data_str_m3_o1_o16_pcu_sym.79
_audit_creation_date              2020-01-03
_audit_creation_method            'Materials Studio'
_symmetry_space_group_name_H-M    'P1'
_symmetry_Int_Tables_number       1
_symmetry_cell_setting            triclinic
loop_
_symmetry_equiv_pos_as_xyz
  x,y,z
_cell_length_a                    29.6093
_cell_length_b                    32.1360
_cell_length_c                    26.0585
_cell_angle_alpha                 90.0255
_cell_angle_beta                  71.6427
_cell_angle_gamma                 90.0102
loop_
_atom_site_label
_atom_site_type_symbol
_atom_site_fract_x
_atom_site_fract_y
_atom_site_fract_z
_atom_site_U_iso_or_equiv
_atom_site_adp_type
_atom_site_occupancy
C1     C     0.16667   0.24668   0.25004   0.00000  Uiso   1.00
C2     C     0.12839   0.19156   0.40578   0.00000  Uiso   1.00
C3     C     0.20278   0.31202   0.26314   0.00000  Uiso   1.00
C4     C     0.14141   0.17383   0.35070   0.00000  Uiso   1.00
C5     C     0.20280   0.02133   0.26308   0.00000  Uiso   1.00
C6     C     0.16660   0.04249   0.25017   0.00000  Uiso   1.00
C7     C     0.13035   0.02129   0.23740   0.00000  Uiso   1.00
C8     C     0.13036   0.31199   0.23741   0.00000  Uiso   1.00
C9     C     0.16661   0.29083   0.25021   0.00000  Uiso   1.00
C10    C     0.31357   0.13201   0.23495   0.00000  Uiso   1.00
C11    C     0.02813   0.13206   0.23484   0.00000  Uiso   1.00
C12    C     0.15070   0.20336   0.48662   0.00000  Uiso   1.00
C13    C     0.01982   0.20135   0.26489   0.00000  Uiso   1.00
C14    C     0.30543   0.20142   0.26451   0.00000  Uiso   1.00
C15    C     0.16664   0.08666   0.25005   0.00000  Uiso   1.00
C16    C     0.19262   0.16722   0.14788   0.00000  Uiso   1.00
C17    C     0.26850   0.17854   0.00279   0.00000  Uiso   1.00
C18    C     0.20771   0.17369   0.08969   0.00000  Uiso   1.00
C19    C     0.08055   0.19931   0.43527   0.00000  Uiso   1.00
C20    C     0.06849   0.21292   0.48888   0.00000  Uiso   1.00
C21    C     0.10286   0.21263   0.01536   0.00000  Uiso   1.00
C22    C     0.16402   0.20083   0.43007   0.00000  Uiso   1.00
C23    C     0.18583   0.19533   0.01160   0.00000  Uiso   1.00
C24    C     0.23430   0.19193   0.47966   0.00000  Uiso   1.00
C25    C     0.24754   0.20138   0.42485   0.00000  Uiso   1.00
C26    C     0.21254   0.20696   0.40050   0.00000  Uiso   1.00
C27    C     0.17346   0.18637   0.06649   0.00000  Uiso   1.00
C28    C     0.25522   0.16925   0.05773   0.00000  Uiso   1.00
H29    H     0.28180   0.15850   0.07520   0.00000  Uiso   1.00
H30    H     0.30515   0.17428   0.47804   0.00000  Uiso   1.00
H31    H     0.13676   0.18768   0.09152   0.00000  Uiso   1.00
H32    H     0.05299   0.19601   0.41637   0.00000  Uiso   1.00
H33    H     0.09176   0.22127   0.05757   0.00000  Uiso   1.00
H34    H     0.22396   0.21607   0.35860   0.00000  Uiso   1.00
H35    H     0.23073   0.29577   0.27360   0.00000  Uiso   1.00
H36    H     0.02299   0.25799   0.02651   0.00000  Uiso   1.00
H37    H     0.00902   0.21021   0.05300   0.00000  Uiso   1.00
H38    H     0.23078   0.03761   0.27346   0.00000  Uiso   1.00
H39    H     0.10238   0.03752   0.22698   0.00000  Uiso   1.00
H40    H     0.10238   0.29572   0.22701   0.00000  Uiso   1.00
H41    H     0.29900   0.10425   0.22276   0.00000  Uiso   1.00
H42    H     0.04949   0.10435   0.22250   0.00000  Uiso   1.00
H43    H     0.03442   0.22914   0.27697   0.00000  Uiso   1.00
H44    H     0.28448   0.22943   0.27577   0.00000  Uiso   1.00
H45    H     0.28469   0.20277   0.40046   0.00000  Uiso   1.00
N46    N     0.04760   0.16668   0.25002   0.00000  Uiso   1.00
N47    N     0.28573   0.16665   0.25001   0.00000  Uiso   1.00
N48    N     0.02121   0.22663   0.01664   0.00000  Uiso   1.00
O49    O     0.12846   0.22775   0.25001   0.00000  Uiso   1.00
O50    O     0.20490   0.22774   0.25001   0.00000  Uiso   1.00
O51    O     0.10947   0.16666   0.32681   0.00000  Uiso   1.00
O52    O     0.18591   0.16665   0.32681   0.00000  Uiso   1.00
O53    O     0.12843   0.10559   0.25000   0.00000  Uiso   1.00
O54    O     0.20488   0.10558   0.25000   0.00000  Uiso   1.00
O55    O     0.14742   0.16668   0.17319   0.00000  Uiso   1.00
O56    O     0.22387   0.16667   0.17319   0.00000  Uiso   1.00
Zn57   Zn    0.11562   0.16667   0.25000   0.00000  Uiso   1.00
Zn58   Zn    0.21771   0.16666   0.25000   0.00000  Uiso   1.00
C59    C     0.50001   0.24668   0.25004   0.00000  Uiso   1.00
C60    C     0.46173   0.19156   0.40578   0.00000  Uiso   1.00
C61    C     0.53611   0.31202   0.26314   0.00000  Uiso   1.00
C62    C     0.47475   0.17383   0.35070   0.00000  Uiso   1.00
C63    C     0.53613   0.02133   0.26308   0.00000  Uiso   1.00
C64    C     0.49993   0.04249   0.25017   0.00000  Uiso   1.00
C65    C     0.46369   0.02129   0.23740   0.00000  Uiso   1.00
C66    C     0.46369   0.31199   0.23741   0.00000  Uiso   1.00
C67    C     0.49994   0.29083   0.25021   0.00000  Uiso   1.00
C68    C     0.64690   0.13201   0.23495   0.00000  Uiso   1.00
C69    C     0.36146   0.13206   0.23484   0.00000  Uiso   1.00
C70    C     0.48404   0.20336   0.48662   0.00000  Uiso   1.00
C71    C     0.35315   0.20135   0.26489   0.00000  Uiso   1.00
C72    C     0.63877   0.20142   0.26451   0.00000  Uiso   1.00
C73    C     0.49997   0.08666   0.25005   0.00000  Uiso   1.00
C74    C     0.52595   0.16722   0.14788   0.00000  Uiso   1.00
C75    C     0.60184   0.17854   0.00279   0.00000  Uiso   1.00
C76    C     0.54105   0.17369   0.08969   0.00000  Uiso   1.00
C77    C     0.41389   0.19931   0.43527   0.00000  Uiso   1.00
C78    C     0.40182   0.21292   0.48888   0.00000  Uiso   1.00
C79    C     0.43619   0.21263   0.01536   0.00000  Uiso   1.00
C80    C     0.49735   0.20083   0.43007   0.00000  Uiso   1.00
C81    C     0.51917   0.19533   0.01160   0.00000  Uiso   1.00
C82    C     0.56764   0.19193   0.47966   0.00000  Uiso   1.00
C83    C     0.58088   0.20138   0.42485   0.00000  Uiso   1.00
C84    C     0.54588   0.20696   0.40050   0.00000  Uiso   1.00
C85    C     0.50679   0.18637   0.06649   0.00000  Uiso   1.00
C86    C     0.58855   0.16925   0.05773   0.00000  Uiso   1.00
H87    H     0.61514   0.15850   0.07520   0.00000  Uiso   1.00
H88    H     0.63848   0.17428   0.47804   0.00000  Uiso   1.00
H89    H     0.47009   0.18768   0.09152   0.00000  Uiso   1.00
H90    H     0.38632   0.19601   0.41637   0.00000  Uiso   1.00
H91    H     0.42509   0.22127   0.05757   0.00000  Uiso   1.00
H92    H     0.55729   0.21607   0.35860   0.00000  Uiso   1.00
H93    H     0.56406   0.29577   0.27360   0.00000  Uiso   1.00
H94    H     0.35632   0.25799   0.02651   0.00000  Uiso   1.00
H95    H     0.34235   0.21021   0.05300   0.00000  Uiso   1.00
H96    H     0.56411   0.03761   0.27346   0.00000  Uiso   1.00
H97    H     0.43571   0.03752   0.22698   0.00000  Uiso   1.00
H98    H     0.43571   0.29572   0.22701   0.00000  Uiso   1.00
H99    H     0.63233   0.10425   0.22276   0.00000  Uiso   1.00
H100   H     0.38283   0.10435   0.22250   0.00000  Uiso   1.00
H101   H     0.36775   0.22914   0.27697   0.00000  Uiso   1.00
H102   H     0.61781   0.22943   0.27577   0.00000  Uiso   1.00
H103   H     0.61803   0.20277   0.40046   0.00000  Uiso   1.00
N104   N     0.38093   0.16668   0.25002   0.00000  Uiso   1.00
N105   N     0.61906   0.16665   0.25001   0.00000  Uiso   1.00
N106   N     0.35454   0.22663   0.01664   0.00000  Uiso   1.00
O107   O     0.46179   0.22775   0.25001   0.00000  Uiso   1.00
O108   O     0.53823   0.22774   0.25001   0.00000  Uiso   1.00
O109   O     0.44280   0.16666   0.32681   0.00000  Uiso   1.00
O110   O     0.51924   0.16665   0.32681   0.00000  Uiso   1.00
O111   O     0.46177   0.10559   0.25000   0.00000  Uiso   1.00
O112   O     0.53821   0.10558   0.25000   0.00000  Uiso   1.00
O113   O     0.48076   0.16668   0.17319   0.00000  Uiso   1.00
O114   O     0.55720   0.16667   0.17319   0.00000  Uiso   1.00
Zn115  Zn    0.44896   0.16667   0.25000   0.00000  Uiso   1.00
Zn116  Zn    0.55104   0.16666   0.25000   0.00000  Uiso   1.00
C117   C     0.83334   0.24668   0.25004   0.00000  Uiso   1.00
C118   C     0.79506   0.19156   0.40578   0.00000  Uiso   1.00
C119   C     0.86945   0.31202   0.26314   0.00000  Uiso   1.00
C120   C     0.80808   0.17383   0.35070   0.00000  Uiso   1.00
C121   C     0.86946   0.02133   0.26308   0.00000  Uiso   1.00
C122   C     0.83327   0.04249   0.25017   0.00000  Uiso   1.00
C123   C     0.79702   0.02129   0.23740   0.00000  Uiso   1.00
C124   C     0.79702   0.31199   0.23741   0.00000  Uiso   1.00
C125   C     0.83327   0.29083   0.25021   0.00000  Uiso   1.00
C126   C     0.98024   0.13201   0.23495   0.00000  Uiso   1.00
C127   C     0.69479   0.13206   0.23484   0.00000  Uiso   1.00
C128   C     0.81737   0.20336   0.48662   0.00000  Uiso   1.00
C129   C     0.68649   0.20135   0.26489   0.00000  Uiso   1.00
C130   C     0.97210   0.20142   0.26451   0.00000  Uiso   1.00
C131   C     0.83330   0.08666   0.25005   0.00000  Uiso   1.00
C132   C     0.85928   0.16722   0.14788   0.00000  Uiso   1.00
C133   C     0.93517   0.17854   0.00279   0.00000  Uiso   1.00
C134   C     0.87438   0.17369   0.08969   0.00000  Uiso   1.00
C135   C     0.74722   0.19931   0.43527   0.00000  Uiso   1.00
C136   C     0.73516   0.21292   0.48888   0.00000  Uiso   1.00
C137   C     0.76953   0.21263   0.01536   0.00000  Uiso   1.00
C138   C     0.83068   0.20083   0.43007   0.00000  Uiso   1.00
C139   C     0.85250   0.19533   0.01160   0.00000  Uiso   1.00
C140   C     0.90097   0.19193   0.47966   0.00000  Uiso   1.00
C141   C     0.91421   0.20138   0.42485   0.00000  Uiso   1.00
C142   C     0.87921   0.20696   0.40050   0.00000  Uiso   1.00
C143   C     0.84013   0.18637   0.06649   0.00000  Uiso   1.00
C144   C     0.92189   0.16925   0.05773   0.00000  Uiso   1.00
H145   H     0.94847   0.15850   0.07520   0.00000  Uiso   1.00
H146   H     0.97181   0.17428   0.47804   0.00000  Uiso   1.00
H147   H     0.80342   0.18768   0.09152   0.00000  Uiso   1.00
H148   H     0.71965   0.19601   0.41637   0.00000  Uiso   1.00
H149   H     0.75843   0.22127   0.05757   0.00000  Uiso   1.00
H150   H     0.89063   0.21607   0.35860   0.00000  Uiso   1.00
H151   H     0.89739   0.29577   0.27360   0.00000  Uiso   1.00
H152   H     0.68966   0.25799   0.02651   0.00000  Uiso   1.00
H153   H     0.67569   0.21021   0.05300   0.00000  Uiso   1.00
H154   H     0.89745   0.03761   0.27346   0.00000  Uiso   1.00
H155   H     0.76904   0.03752   0.22698   0.00000  Uiso   1.00
H156   H     0.76905   0.29572   0.22701   0.00000  Uiso   1.00
H157   H     0.96567   0.10425   0.22276   0.00000  Uiso   1.00
H158   H     0.71616   0.10435   0.22250   0.00000  Uiso   1.00
H159   H     0.70108   0.22914   0.27697   0.00000  Uiso   1.00
H160   H     0.95114   0.22943   0.27577   0.00000  Uiso   1.00
H161   H     0.95136   0.20277   0.40046   0.00000  Uiso   1.00
N162   N     0.71426   0.16668   0.25002   0.00000  Uiso   1.00
N163   N     0.95239   0.16665   0.25001   0.00000  Uiso   1.00
N164   N     0.68787   0.22663   0.01664   0.00000  Uiso   1.00
O165   O     0.79512   0.22775   0.25001   0.00000  Uiso   1.00
O166   O     0.87157   0.22774   0.25001   0.00000  Uiso   1.00
O167   O     0.77613   0.16666   0.32681   0.00000  Uiso   1.00
O168   O     0.85258   0.16665   0.32681   0.00000  Uiso   1.00
O169   O     0.79510   0.10559   0.25000   0.00000  Uiso   1.00
O170   O     0.87154   0.10558   0.25000   0.00000  Uiso   1.00
O171   O     0.81409   0.16668   0.17319   0.00000  Uiso   1.00
O172   O     0.89053   0.16667   0.17319   0.00000  Uiso   1.00
Zn173  Zn    0.78229   0.16667   0.25000   0.00000  Uiso   1.00
Zn174  Zn    0.88438   0.16666   0.25000   0.00000  Uiso   1.00
C175   C     0.16667   0.58001   0.25004   0.00000  Uiso   1.00
C176   C     0.12839   0.52489   0.40578   0.00000  Uiso   1.00
C177   C     0.20278   0.64535   0.26314   0.00000  Uiso   1.00
C178   C     0.14141   0.50716   0.35070   0.00000  Uiso   1.00
C179   C     0.20280   0.35466   0.26308   0.00000  Uiso   1.00
C180   C     0.16660   0.37582   0.25017   0.00000  Uiso   1.00
C181   C     0.13035   0.35462   0.23740   0.00000  Uiso   1.00
C182   C     0.13036   0.64532   0.23741   0.00000  Uiso   1.00
C183   C     0.16661   0.62416   0.25021   0.00000  Uiso   1.00
C184   C     0.31357   0.46535   0.23495   0.00000  Uiso   1.00
C185   C     0.02813   0.46539   0.23484   0.00000  Uiso   1.00
C186   C     0.15070   0.53670   0.48662   0.00000  Uiso   1.00
C187   C     0.01982   0.53468   0.26489   0.00000  Uiso   1.00
C188   C     0.30543   0.53475   0.26451   0.00000  Uiso   1.00
C189   C     0.16664   0.41999   0.25005   0.00000  Uiso   1.00
C190   C     0.19262   0.50055   0.14788   0.00000  Uiso   1.00
C191   C     0.26850   0.51187   0.00279   0.00000  Uiso   1.00
C192   C     0.20771   0.50702   0.08969   0.00000  Uiso   1.00
C193   C     0.08055   0.53264   0.43527   0.00000  Uiso   1.00
C194   C     0.06849   0.54625   0.48888   0.00000  Uiso   1.00
C195   C     0.10286   0.54597   0.01536   0.00000  Uiso   1.00
C196   C     0.16402   0.53416   0.43007   0.00000  Uiso   1.00
C197   C     0.18583   0.52866   0.01160   0.00000  Uiso   1.00
C198   C     0.23430   0.52527   0.47966   0.00000  Uiso   1.00
C199   C     0.24754   0.53472   0.42485   0.00000  Uiso   1.00
C200   C     0.21254   0.54029   0.40050   0.00000  Uiso   1.00
C201   C     0.17346   0.51970   0.06649   0.00000  Uiso   1.00
C202   C     0.25522   0.50259   0.05773   0.00000  Uiso   1.00
H203   H     0.28180   0.49183   0.07520   0.00000  Uiso   1.00
H204   H     0.30515   0.50761   0.47804   0.00000  Uiso   1.00
H205   H     0.13676   0.52101   0.09152   0.00000  Uiso   1.00
H206   H     0.05299   0.52934   0.41637   0.00000  Uiso   1.00
H207   H     0.09176   0.55460   0.05757   0.00000  Uiso   1.00
H208   H     0.22396   0.54940   0.35860   0.00000  Uiso   1.00
H209   H     0.23073   0.62910   0.27360   0.00000  Uiso   1.00
H210   H     0.02299   0.59132   0.02651   0.00000  Uiso   1.00
H211   H     0.00902   0.54354   0.05300   0.00000  Uiso   1.00
H212   H     0.23078   0.37094   0.27346   0.00000  Uiso   1.00
H213   H     0.10238   0.37085   0.22698   0.00000  Uiso   1.00
H214   H     0.10238   0.62905   0.22701   0.00000  Uiso   1.00
H215   H     0.29900   0.43758   0.22276   0.00000  Uiso   1.00
H216   H     0.04949   0.43768   0.22250   0.00000  Uiso   1.00
H217   H     0.03442   0.56247   0.27697   0.00000  Uiso   1.00
H218   H     0.28448   0.56277   0.27577   0.00000  Uiso   1.00
H219   H     0.28469   0.53611   0.40046   0.00000  Uiso   1.00
N220   N     0.04760   0.50001   0.25002   0.00000  Uiso   1.00
N221   N     0.28573   0.49998   0.25001   0.00000  Uiso   1.00
N222   N     0.02121   0.55996   0.01664   0.00000  Uiso   1.00
O223   O     0.12846   0.56108   0.25001   0.00000  Uiso   1.00
O224   O     0.20490   0.56107   0.25001   0.00000  Uiso   1.00
O225   O     0.10947   0.50000   0.32681   0.00000  Uiso   1.00
O226   O     0.18591   0.49999   0.32681   0.00000  Uiso   1.00
O227   O     0.12843   0.43893   0.25000   0.00000  Uiso   1.00
O228   O     0.20488   0.43892   0.25000   0.00000  Uiso   1.00
O229   O     0.14742   0.50001   0.17319   0.00000  Uiso   1.00
O230   O     0.22387   0.50000   0.17319   0.00000  Uiso   1.00
Zn231  Zn    0.11562   0.50001   0.25000   0.00000  Uiso   1.00
Zn232  Zn    0.21771   0.49999   0.25000   0.00000  Uiso   1.00
C233   C     0.50001   0.58001   0.25004   0.00000  Uiso   1.00
C234   C     0.46173   0.52489   0.40578   0.00000  Uiso   1.00
C235   C     0.53611   0.64535   0.26314   0.00000  Uiso   1.00
C236   C     0.47475   0.50716   0.35070   0.00000  Uiso   1.00
C237   C     0.53613   0.35466   0.26308   0.00000  Uiso   1.00
C238   C     0.49993   0.37582   0.25017   0.00000  Uiso   1.00
C239   C     0.46369   0.35462   0.23740   0.00000  Uiso   1.00
C240   C     0.46369   0.64532   0.23741   0.00000  Uiso   1.00
C241   C     0.49994   0.62416   0.25021   0.00000  Uiso   1.00
C242   C     0.64690   0.46535   0.23495   0.00000  Uiso   1.00
C243   C     0.36146   0.46539   0.23484   0.00000  Uiso   1.00
C244   C     0.48404   0.53670   0.48662   0.00000  Uiso   1.00
C245   C     0.35315   0.53468   0.26489   0.00000  Uiso   1.00
C246   C     0.63877   0.53475   0.26451   0.00000  Uiso   1.00
C247   C     0.49997   0.41999   0.25005   0.00000  Uiso   1.00
C248   C     0.52595   0.50055   0.14788   0.00000  Uiso   1.00
C249   C     0.60184   0.51187   0.00279   0.00000  Uiso   1.00
C250   C     0.54105   0.50702   0.08969   0.00000  Uiso   1.00
C251   C     0.41389   0.53264   0.43527   0.00000  Uiso   1.00
C252   C     0.40182   0.54625   0.48888   0.00000  Uiso   1.00
C253   C     0.43619   0.54597   0.01536   0.00000  Uiso   1.00
C254   C     0.49735   0.53416   0.43007   0.00000  Uiso   1.00
C255   C     0.51917   0.52866   0.01160   0.00000  Uiso   1.00
C256   C     0.56764   0.52527   0.47966   0.00000  Uiso   1.00
C257   C     0.58088   0.53472   0.42485   0.00000  Uiso   1.00
C258   C     0.54588   0.54029   0.40050   0.00000  Uiso   1.00
C259   C     0.50679   0.51970   0.06649   0.00000  Uiso   1.00
C260   C     0.58855   0.50259   0.05773   0.00000  Uiso   1.00
H261   H     0.61514   0.49183   0.07520   0.00000  Uiso   1.00
H262   H     0.63848   0.50761   0.47804   0.00000  Uiso   1.00
H263   H     0.47009   0.52101   0.09152   0.00000  Uiso   1.00
H264   H     0.38632   0.52934   0.41637   0.00000  Uiso   1.00
H265   H     0.42509   0.55460   0.05757   0.00000  Uiso   1.00
H266   H     0.55729   0.54940   0.35860   0.00000  Uiso   1.00
H267   H     0.56406   0.62910   0.27360   0.00000  Uiso   1.00
H268   H     0.35632   0.59132   0.02651   0.00000  Uiso   1.00
H269   H     0.34235   0.54354   0.05300   0.00000  Uiso   1.00
H270   H     0.56411   0.37094   0.27346   0.00000  Uiso   1.00
H271   H     0.43571   0.37085   0.22698   0.00000  Uiso   1.00
H272   H     0.43571   0.62905   0.22701   0.00000  Uiso   1.00
H273   H     0.63233   0.43758   0.22276   0.00000  Uiso   1.00
H274   H     0.38283   0.43768   0.22250   0.00000  Uiso   1.00
H275   H     0.36775   0.56247   0.27697   0.00000  Uiso   1.00
H276   H     0.61781   0.56277   0.27577   0.00000  Uiso   1.00
H277   H     0.61803   0.53611   0.40046   0.00000  Uiso   1.00
N278   N     0.38093   0.50001   0.25002   0.00000  Uiso   1.00
N279   N     0.61906   0.49998   0.25001   0.00000  Uiso   1.00
N280   N     0.35454   0.55996   0.01664   0.00000  Uiso   1.00
O281   O     0.46179   0.56108   0.25001   0.00000  Uiso   1.00
O282   O     0.53823   0.56107   0.25001   0.00000  Uiso   1.00
O283   O     0.44280   0.50000   0.32681   0.00000  Uiso   1.00
O284   O     0.51924   0.49999   0.32681   0.00000  Uiso   1.00
O285   O     0.46177   0.43893   0.25000   0.00000  Uiso   1.00
O286   O     0.53821   0.43892   0.25000   0.00000  Uiso   1.00
O287   O     0.48076   0.50001   0.17319   0.00000  Uiso   1.00
O288   O     0.55720   0.50000   0.17319   0.00000  Uiso   1.00
Zn289  Zn    0.44896   0.50001   0.25000   0.00000  Uiso   1.00
Zn290  Zn    0.55104   0.49999   0.25000   0.00000  Uiso   1.00
C291   C     0.83334   0.58001   0.25004   0.00000  Uiso   1.00
C292   C     0.79506   0.52489   0.40578   0.00000  Uiso   1.00
C293   C     0.86945   0.64535   0.26314   0.00000  Uiso   1.00
C294   C     0.80808   0.50716   0.35070   0.00000  Uiso   1.00
C295   C     0.86946   0.35466   0.26308   0.00000  Uiso   1.00
C296   C     0.83327   0.37582   0.25017   0.00000  Uiso   1.00
C297   C     0.79702   0.35462   0.23740   0.00000  Uiso   1.00
C298   C     0.79702   0.64532   0.23741   0.00000  Uiso   1.00
C299   C     0.83327   0.62416   0.25021   0.00000  Uiso   1.00
C300   C     0.98024   0.46535   0.23495   0.00000  Uiso   1.00
C301   C     0.69479   0.46539   0.23484   0.00000  Uiso   1.00
C302   C     0.81737   0.53670   0.48662   0.00000  Uiso   1.00
C303   C     0.68649   0.53468   0.26489   0.00000  Uiso   1.00
C304   C     0.97210   0.53475   0.26451   0.00000  Uiso   1.00
C305   C     0.83330   0.41999   0.25005   0.00000  Uiso   1.00
C306   C     0.85928   0.50055   0.14788   0.00000  Uiso   1.00
C307   C     0.93517   0.51187   0.00279   0.00000  Uiso   1.00
C308   C     0.87438   0.50702   0.08969   0.00000  Uiso   1.00
C309   C     0.74722   0.53264   0.43527   0.00000  Uiso   1.00
C310   C     0.73516   0.54625   0.48888   0.00000  Uiso   1.00
C311   C     0.76953   0.54597   0.01536   0.00000  Uiso   1.00
C312   C     0.83068   0.53416   0.43007   0.00000  Uiso   1.00
C313   C     0.85250   0.52866   0.01160   0.00000  Uiso   1.00
C314   C     0.90097   0.52527   0.47966   0.00000  Uiso   1.00
C315   C     0.91421   0.53472   0.42485   0.00000  Uiso   1.00
C316   C     0.87921   0.54029   0.40050   0.00000  Uiso   1.00
C317   C     0.84013   0.51970   0.06649   0.00000  Uiso   1.00
C318   C     0.92189   0.50259   0.05773   0.00000  Uiso   1.00
H319   H     0.94847   0.49183   0.07520   0.00000  Uiso   1.00
H320   H     0.97181   0.50761   0.47804   0.00000  Uiso   1.00
H321   H     0.80342   0.52101   0.09152   0.00000  Uiso   1.00
H322   H     0.71965   0.52934   0.41637   0.00000  Uiso   1.00
H323   H     0.75843   0.55460   0.05757   0.00000  Uiso   1.00
H324   H     0.89063   0.54940   0.35860   0.00000  Uiso   1.00
H325   H     0.89739   0.62910   0.27360   0.00000  Uiso   1.00
H326   H     0.68966   0.59132   0.02651   0.00000  Uiso   1.00
H327   H     0.67569   0.54354   0.05300   0.00000  Uiso   1.00
H328   H     0.89745   0.37094   0.27346   0.00000  Uiso   1.00
H329   H     0.76904   0.37085   0.22698   0.00000  Uiso   1.00
H330   H     0.76905   0.62905   0.22701   0.00000  Uiso   1.00
H331   H     0.96567   0.43758   0.22276   0.00000  Uiso   1.00
H332   H     0.71616   0.43768   0.22250   0.00000  Uiso   1.00
H333   H     0.70108   0.56247   0.27697   0.00000  Uiso   1.00
H334   H     0.95114   0.56277   0.27577   0.00000  Uiso   1.00
H335   H     0.95136   0.53611   0.40046   0.00000  Uiso   1.00
N336   N     0.71426   0.50001   0.25002   0.00000  Uiso   1.00
N337   N     0.95239   0.49998   0.25001   0.00000  Uiso   1.00
N338   N     0.68787   0.55996   0.01664   0.00000  Uiso   1.00
O339   O     0.79512   0.56108   0.25001   0.00000  Uiso   1.00
O340   O     0.87157   0.56107   0.25001   0.00000  Uiso   1.00
O341   O     0.77613   0.50000   0.32681   0.00000  Uiso   1.00
O342   O     0.85258   0.49999   0.32681   0.00000  Uiso   1.00
O343   O     0.79510   0.43893   0.25000   0.00000  Uiso   1.00
O344   O     0.87154   0.43892   0.25000   0.00000  Uiso   1.00
O345   O     0.81409   0.50001   0.17319   0.00000  Uiso   1.00
O346   O     0.89053   0.50000   0.17319   0.00000  Uiso   1.00
Zn347  Zn    0.78229   0.50001   0.25000   0.00000  Uiso   1.00
Zn348  Zn    0.88438   0.49999   0.25000   0.00000  Uiso   1.00
C349   C     0.16667   0.91335   0.25004   0.00000  Uiso   1.00
C350   C     0.12839   0.85822   0.40578   0.00000  Uiso   1.00
C351   C     0.20278   0.97868   0.26314   0.00000  Uiso   1.00
C352   C     0.14141   0.84049   0.35070   0.00000  Uiso   1.00
C353   C     0.20280   0.68800   0.26308   0.00000  Uiso   1.00
C354   C     0.16660   0.70915   0.25017   0.00000  Uiso   1.00
C355   C     0.13035   0.68795   0.23740   0.00000  Uiso   1.00
C356   C     0.13036   0.97865   0.23741   0.00000  Uiso   1.00
C357   C     0.16661   0.95750   0.25021   0.00000  Uiso   1.00
C358   C     0.31357   0.79868   0.23495   0.00000  Uiso   1.00
C359   C     0.02813   0.79873   0.23484   0.00000  Uiso   1.00
C360   C     0.15070   0.87003   0.48662   0.00000  Uiso   1.00
C361   C     0.01982   0.86801   0.26489   0.00000  Uiso   1.00
C362   C     0.30543   0.86809   0.26451   0.00000  Uiso   1.00
C363   C     0.16664   0.75332   0.25005   0.00000  Uiso   1.00
C364   C     0.19262   0.83389   0.14788   0.00000  Uiso   1.00
C365   C     0.26850   0.84520   0.00279   0.00000  Uiso   1.00
C366   C     0.20771   0.84035   0.08969   0.00000  Uiso   1.00
C367   C     0.08055   0.86598   0.43527   0.00000  Uiso   1.00
C368   C     0.06849   0.87959   0.48888   0.00000  Uiso   1.00
C369   C     0.10286   0.87930   0.01536   0.00000  Uiso   1.00
C370   C     0.16402   0.86749   0.43007   0.00000  Uiso   1.00
C371   C     0.18583   0.86199   0.01160   0.00000  Uiso   1.00
C372   C     0.23430   0.85860   0.47966   0.00000  Uiso   1.00
C373   C     0.24754   0.86805   0.42485   0.00000  Uiso   1.00
C374   C     0.21254   0.87363   0.40050   0.00000  Uiso   1.00
C375   C     0.17346   0.85304   0.06649   0.00000  Uiso   1.00
C376   C     0.25522   0.83592   0.05773   0.00000  Uiso   1.00
H377   H     0.28180   0.82517   0.07520   0.00000  Uiso   1.00
H378   H     0.30515   0.84095   0.47804   0.00000  Uiso   1.00
H379   H     0.13676   0.85435   0.09152   0.00000  Uiso   1.00
H380   H     0.05299   0.86268   0.41637   0.00000  Uiso   1.00
H381   H     0.09176   0.88794   0.05757   0.00000  Uiso   1.00
H382   H     0.22396   0.88274   0.35860   0.00000  Uiso   1.00
H383   H     0.23073   0.96244   0.27360   0.00000  Uiso   1.00
H384   H     0.02299   0.92466   0.02651   0.00000  Uiso   1.00
H385   H     0.00902   0.87687   0.05300   0.00000  Uiso   1.00
H386   H     0.23078   0.70427   0.27346   0.00000  Uiso   1.00
H387   H     0.10238   0.70419   0.22698   0.00000  Uiso   1.00
H388   H     0.10238   0.96238   0.22701   0.00000  Uiso   1.00
H389   H     0.29900   0.77092   0.22276   0.00000  Uiso   1.00
H390   H     0.04949   0.77102   0.22250   0.00000  Uiso   1.00
H391   H     0.03442   0.89581   0.27697   0.00000  Uiso   1.00
H392   H     0.28448   0.89610   0.27577   0.00000  Uiso   1.00
H393   H     0.28469   0.86944   0.40046   0.00000  Uiso   1.00
N394   N     0.04760   0.83334   0.25002   0.00000  Uiso   1.00
N395   N     0.28573   0.83331   0.25001   0.00000  Uiso   1.00
N396   N     0.02121   0.89330   0.01664   0.00000  Uiso   1.00
O397   O     0.12846   0.89442   0.25001   0.00000  Uiso   1.00
O398   O     0.20490   0.89441   0.25001   0.00000  Uiso   1.00
O399   O     0.10947   0.83333   0.32681   0.00000  Uiso   1.00
O400   O     0.18591   0.83332   0.32681   0.00000  Uiso   1.00
O401   O     0.12843   0.77226   0.25000   0.00000  Uiso   1.00
O402   O     0.20488   0.77225   0.25000   0.00000  Uiso   1.00
O403   O     0.14742   0.83335   0.17319   0.00000  Uiso   1.00
O404   O     0.22387   0.83334   0.17319   0.00000  Uiso   1.00
Zn405  Zn    0.11562   0.83334   0.25000   0.00000  Uiso   1.00
Zn406  Zn    0.21771   0.83333   0.25000   0.00000  Uiso   1.00
C407   C     0.50001   0.91335   0.25004   0.00000  Uiso   1.00
C408   C     0.46173   0.85822   0.40578   0.00000  Uiso   1.00
C409   C     0.53611   0.97868   0.26314   0.00000  Uiso   1.00
C410   C     0.47475   0.84049   0.35070   0.00000  Uiso   1.00
C411   C     0.53613   0.68800   0.26308   0.00000  Uiso   1.00
C412   C     0.49993   0.70915   0.25017   0.00000  Uiso   1.00
C413   C     0.46369   0.68795   0.23740   0.00000  Uiso   1.00
C414   C     0.46369   0.97865   0.23741   0.00000  Uiso   1.00
C415   C     0.49994   0.95750   0.25021   0.00000  Uiso   1.00
C416   C     0.64690   0.79868   0.23495   0.00000  Uiso   1.00
C417   C     0.36146   0.79873   0.23484   0.00000  Uiso   1.00
C418   C     0.48404   0.87003   0.48662   0.00000  Uiso   1.00
C419   C     0.35315   0.86801   0.26489   0.00000  Uiso   1.00
C420   C     0.63877   0.86809   0.26451   0.00000  Uiso   1.00
C421   C     0.49997   0.75332   0.25005   0.00000  Uiso   1.00
C422   C     0.52595   0.83389   0.14788   0.00000  Uiso   1.00
C423   C     0.60184   0.84520   0.00279   0.00000  Uiso   1.00
C424   C     0.54105   0.84035   0.08969   0.00000  Uiso   1.00
C425   C     0.41389   0.86598   0.43527   0.00000  Uiso   1.00
C426   C     0.40182   0.87959   0.48888   0.00000  Uiso   1.00
C427   C     0.43619   0.87930   0.01536   0.00000  Uiso   1.00
C428   C     0.49735   0.86749   0.43007   0.00000  Uiso   1.00
C429   C     0.51917   0.86199   0.01160   0.00000  Uiso   1.00
C430   C     0.56764   0.85860   0.47966   0.00000  Uiso   1.00
C431   C     0.58088   0.86805   0.42485   0.00000  Uiso   1.00
C432   C     0.54588   0.87363   0.40050   0.00000  Uiso   1.00
C433   C     0.50679   0.85304   0.06649   0.00000  Uiso   1.00
C434   C     0.58855   0.83592   0.05773   0.00000  Uiso   1.00
H435   H     0.61514   0.82517   0.07520   0.00000  Uiso   1.00
H436   H     0.63848   0.84095   0.47804   0.00000  Uiso   1.00
H437   H     0.47009   0.85435   0.09152   0.00000  Uiso   1.00
H438   H     0.38632   0.86268   0.41637   0.00000  Uiso   1.00
H439   H     0.42509   0.88794   0.05757   0.00000  Uiso   1.00
H440   H     0.55729   0.88274   0.35860   0.00000  Uiso   1.00
H441   H     0.56406   0.96244   0.27360   0.00000  Uiso   1.00
H442   H     0.35632   0.92466   0.02651   0.00000  Uiso   1.00
H443   H     0.34235   0.87687   0.05300   0.00000  Uiso   1.00
H444   H     0.56411   0.70427   0.27346   0.00000  Uiso   1.00
H445   H     0.43571   0.70419   0.22698   0.00000  Uiso   1.00
H446   H     0.43571   0.96238   0.22701   0.00000  Uiso   1.00
H447   H     0.63233   0.77092   0.22276   0.00000  Uiso   1.00
H448   H     0.38283   0.77102   0.22250   0.00000  Uiso   1.00
H449   H     0.36775   0.89581   0.27697   0.00000  Uiso   1.00
H450   H     0.61781   0.89610   0.27577   0.00000  Uiso   1.00
H451   H     0.61803   0.86944   0.40046   0.00000  Uiso   1.00
N452   N     0.38093   0.83334   0.25002   0.00000  Uiso   1.00
N453   N     0.61906   0.83331   0.25001   0.00000  Uiso   1.00
N454   N     0.35454   0.89330   0.01664   0.00000  Uiso   1.00
O455   O     0.46179   0.89442   0.25001   0.00000  Uiso   1.00
O456   O     0.53823   0.89441   0.25001   0.00000  Uiso   1.00
O457   O     0.44280   0.83333   0.32681   0.00000  Uiso   1.00
O458   O     0.51924   0.83332   0.32681   0.00000  Uiso   1.00
O459   O     0.46177   0.77226   0.25000   0.00000  Uiso   1.00
O460   O     0.53821   0.77225   0.25000   0.00000  Uiso   1.00
O461   O     0.48076   0.83335   0.17319   0.00000  Uiso   1.00
O462   O     0.55720   0.83334   0.17319   0.00000  Uiso   1.00
Zn463  Zn    0.44896   0.83334   0.25000   0.00000  Uiso   1.00
Zn464  Zn    0.55104   0.83333   0.25000   0.00000  Uiso   1.00
C465   C     0.83334   0.91335   0.25004   0.00000  Uiso   1.00
C466   C     0.79506   0.85822   0.40578   0.00000  Uiso   1.00
C467   C     0.86945   0.97868   0.26314   0.00000  Uiso   1.00
C468   C     0.80808   0.84049   0.35070   0.00000  Uiso   1.00
C469   C     0.86946   0.68800   0.26308   0.00000  Uiso   1.00
C470   C     0.83327   0.70915   0.25017   0.00000  Uiso   1.00
C471   C     0.79702   0.68795   0.23740   0.00000  Uiso   1.00
C472   C     0.79702   0.97865   0.23741   0.00000  Uiso   1.00
C473   C     0.83327   0.95750   0.25021   0.00000  Uiso   1.00
C474   C     0.98024   0.79868   0.23495   0.00000  Uiso   1.00
C475   C     0.69479   0.79873   0.23484   0.00000  Uiso   1.00
C476   C     0.81737   0.87003   0.48662   0.00000  Uiso   1.00
C477   C     0.68649   0.86801   0.26489   0.00000  Uiso   1.00
C478   C     0.97210   0.86809   0.26451   0.00000  Uiso   1.00
C479   C     0.83330   0.75332   0.25005   0.00000  Uiso   1.00
C480   C     0.85928   0.83389   0.14788   0.00000  Uiso   1.00
C481   C     0.93517   0.84520   0.00279   0.00000  Uiso   1.00
C482   C     0.87438   0.84035   0.08969   0.00000  Uiso   1.00
C483   C     0.74722   0.86598   0.43527   0.00000  Uiso   1.00
C484   C     0.73516   0.87959   0.48888   0.00000  Uiso   1.00
C485   C     0.76953   0.87930   0.01536   0.00000  Uiso   1.00
C486   C     0.83068   0.86749   0.43007   0.00000  Uiso   1.00
C487   C     0.85250   0.86199   0.01160   0.00000  Uiso   1.00
C488   C     0.90097   0.85860   0.47966   0.00000  Uiso   1.00
C489   C     0.91421   0.86805   0.42485   0.00000  Uiso   1.00
C490   C     0.87921   0.87363   0.40050   0.00000  Uiso   1.00
C491   C     0.84013   0.85304   0.06649   0.00000  Uiso   1.00
C492   C     0.92189   0.83592   0.05773   0.00000  Uiso   1.00
H493   H     0.94847   0.82517   0.07520   0.00000  Uiso   1.00
H494   H     0.97181   0.84095   0.47804   0.00000  Uiso   1.00
H495   H     0.80342   0.85435   0.09152   0.00000  Uiso   1.00
H496   H     0.71965   0.86268   0.41637   0.00000  Uiso   1.00
H497   H     0.75843   0.88794   0.05757   0.00000  Uiso   1.00
H498   H     0.89063   0.88274   0.35860   0.00000  Uiso   1.00
H499   H     0.89739   0.96244   0.27360   0.00000  Uiso   1.00
H500   H     0.68966   0.92466   0.02651   0.00000  Uiso   1.00
H501   H     0.67569   0.87687   0.05300   0.00000  Uiso   1.00
H502   H     0.89745   0.70427   0.27346   0.00000  Uiso   1.00
H503   H     0.76904   0.70419   0.22698   0.00000  Uiso   1.00
H504   H     0.76905   0.96238   0.22701   0.00000  Uiso   1.00
H505   H     0.96567   0.77092   0.22276   0.00000  Uiso   1.00
H506   H     0.71616   0.77102   0.22250   0.00000  Uiso   1.00
H507   H     0.70108   0.89581   0.27697   0.00000  Uiso   1.00
H508   H     0.95114   0.89610   0.27577   0.00000  Uiso   1.00
H509   H     0.95136   0.86944   0.40046   0.00000  Uiso   1.00
N510   N     0.71426   0.83334   0.25002   0.00000  Uiso   1.00
N511   N     0.95239   0.83331   0.25001   0.00000  Uiso   1.00
N512   N     0.68787   0.89330   0.01664   0.00000  Uiso   1.00
O513   O     0.79512   0.89442   0.25001   0.00000  Uiso   1.00
O514   O     0.87157   0.89441   0.25001   0.00000  Uiso   1.00
O515   O     0.77613   0.83333   0.32681   0.00000  Uiso   1.00
O516   O     0.85258   0.83332   0.32681   0.00000  Uiso   1.00
O517   O     0.79510   0.77226   0.25000   0.00000  Uiso   1.00
O518   O     0.87154   0.77225   0.25000   0.00000  Uiso   1.00
O519   O     0.81409   0.83335   0.17319   0.00000  Uiso   1.00
O520   O     0.89053   0.83334   0.17319   0.00000  Uiso   1.00
Zn521  Zn    0.78229   0.83334   0.25000   0.00000  Uiso   1.00
Zn522  Zn    0.88438   0.83333   0.25000   0.00000  Uiso   1.00
C523   C     0.16667   0.24668   0.75004   0.00000  Uiso   1.00
C524   C     0.12839   0.19156   0.90578   0.00000  Uiso   1.00
C525   C     0.20278   0.31202   0.76314   0.00000  Uiso   1.00
C526   C     0.14141   0.17383   0.85070   0.00000  Uiso   1.00
C527   C     0.20280   0.02133   0.76308   0.00000  Uiso   1.00
C528   C     0.16660   0.04249   0.75017   0.00000  Uiso   1.00
C529   C     0.13035   0.02129   0.73740   0.00000  Uiso   1.00
C530   C     0.13036   0.31199   0.73741   0.00000  Uiso   1.00
C531   C     0.16661   0.29083   0.75021   0.00000  Uiso   1.00
C532   C     0.31357   0.13201   0.73495   0.00000  Uiso   1.00
C533   C     0.02813   0.13206   0.73484   0.00000  Uiso   1.00
C534   C     0.15070   0.20336   0.98662   0.00000  Uiso   1.00
C535   C     0.01982   0.20135   0.76489   0.00000  Uiso   1.00
C536   C     0.30543   0.20142   0.76451   0.00000  Uiso   1.00
C537   C     0.16664   0.08666   0.75005   0.00000  Uiso   1.00
C538   C     0.19262   0.16722   0.64788   0.00000  Uiso   1.00
C539   C     0.26850   0.17854   0.50279   0.00000  Uiso   1.00
C540   C     0.20771   0.17369   0.58969   0.00000  Uiso   1.00
C541   C     0.08055   0.19931   0.93527   0.00000  Uiso   1.00
C542   C     0.06849   0.21292   0.98888   0.00000  Uiso   1.00
C543   C     0.10286   0.21263   0.51536   0.00000  Uiso   1.00
C544   C     0.16402   0.20083   0.93007   0.00000  Uiso   1.00
C545   C     0.18583   0.19533   0.51160   0.00000  Uiso   1.00
C546   C     0.23430   0.19193   0.97966   0.00000  Uiso   1.00
C547   C     0.24754   0.20138   0.92485   0.00000  Uiso   1.00
C548   C     0.21254   0.20696   0.90050   0.00000  Uiso   1.00
C549   C     0.17346   0.18637   0.56649   0.00000  Uiso   1.00
C550   C     0.25522   0.16925   0.55773   0.00000  Uiso   1.00
H551   H     0.28180   0.15850   0.57520   0.00000  Uiso   1.00
H552   H     0.30515   0.17428   0.97804   0.00000  Uiso   1.00
H553   H     0.13676   0.18768   0.59152   0.00000  Uiso   1.00
H554   H     0.05299   0.19601   0.91637   0.00000  Uiso   1.00
H555   H     0.09176   0.22127   0.55757   0.00000  Uiso   1.00
H556   H     0.22396   0.21607   0.85860   0.00000  Uiso   1.00
H557   H     0.23073   0.29577   0.77360   0.00000  Uiso   1.00
H558   H     0.02299   0.25799   0.52651   0.00000  Uiso   1.00
H559   H     0.00902   0.21021   0.55300   0.00000  Uiso   1.00
H560   H     0.23078   0.03761   0.77346   0.00000  Uiso   1.00
H561   H     0.10238   0.03752   0.72698   0.00000  Uiso   1.00
H562   H     0.10238   0.29572   0.72701   0.00000  Uiso   1.00
H563   H     0.29900   0.10425   0.72276   0.00000  Uiso   1.00
H564   H     0.04949   0.10435   0.72250   0.00000  Uiso   1.00
H565   H     0.03442   0.22914   0.77697   0.00000  Uiso   1.00
H566   H     0.28448   0.22943   0.77577   0.00000  Uiso   1.00
H567   H     0.28469   0.20277   0.90046   0.00000  Uiso   1.00
N568   N     0.04760   0.16668   0.75002   0.00000  Uiso   1.00
N569   N     0.28573   0.16665   0.75001   0.00000  Uiso   1.00
N570   N     0.02121   0.22663   0.51664   0.00000  Uiso   1.00
O571   O     0.12846   0.22775   0.75001   0.00000  Uiso   1.00
O572   O     0.20490   0.22774   0.75001   0.00000  Uiso   1.00
O573   O     0.10947   0.16666   0.82681   0.00000  Uiso   1.00
O574   O     0.18591   0.16665   0.82681   0.00000  Uiso   1.00
O575   O     0.12843   0.10559   0.75000   0.00000  Uiso   1.00
O576   O     0.20488   0.10558   0.75000   0.00000  Uiso   1.00
O577   O     0.14742   0.16668   0.67319   0.00000  Uiso   1.00
O578   O     0.22387   0.16667   0.67319   0.00000  Uiso   1.00
Zn579  Zn    0.11562   0.16667   0.75000   0.00000  Uiso   1.00
Zn580  Zn    0.21771   0.16666   0.75000   0.00000  Uiso   1.00
C581   C     0.50001   0.24668   0.75004   0.00000  Uiso   1.00
C582   C     0.46173   0.19156   0.90578   0.00000  Uiso   1.00
C583   C     0.53611   0.31202   0.76314   0.00000  Uiso   1.00
C584   C     0.47475   0.17383   0.85070   0.00000  Uiso   1.00
C585   C     0.53613   0.02133   0.76308   0.00000  Uiso   1.00
C586   C     0.49993   0.04249   0.75017   0.00000  Uiso   1.00
C587   C     0.46369   0.02129   0.73740   0.00000  Uiso   1.00
C588   C     0.46369   0.31199   0.73741   0.00000  Uiso   1.00
C589   C     0.49994   0.29083   0.75021   0.00000  Uiso   1.00
C590   C     0.64690   0.13201   0.73495   0.00000  Uiso   1.00
C591   C     0.36146   0.13206   0.73484   0.00000  Uiso   1.00
C592   C     0.48404   0.20336   0.98662   0.00000  Uiso   1.00
C593   C     0.35315   0.20135   0.76489   0.00000  Uiso   1.00
C594   C     0.63877   0.20142   0.76451   0.00000  Uiso   1.00
C595   C     0.49997   0.08666   0.75005   0.00000  Uiso   1.00
C596   C     0.52595   0.16722   0.64788   0.00000  Uiso   1.00
C597   C     0.60184   0.17854   0.50279   0.00000  Uiso   1.00
C598   C     0.54105   0.17369   0.58969   0.00000  Uiso   1.00
C599   C     0.41389   0.19931   0.93527   0.00000  Uiso   1.00
C600   C     0.40182   0.21292   0.98888   0.00000  Uiso   1.00
C601   C     0.43619   0.21263   0.51536   0.00000  Uiso   1.00
C602   C     0.49735   0.20083   0.93007   0.00000  Uiso   1.00
C603   C     0.51917   0.19533   0.51160   0.00000  Uiso   1.00
C604   C     0.56764   0.19193   0.97966   0.00000  Uiso   1.00
C605   C     0.58088   0.20138   0.92485   0.00000  Uiso   1.00
C606   C     0.54588   0.20696   0.90050   0.00000  Uiso   1.00
C607   C     0.50679   0.18637   0.56649   0.00000  Uiso   1.00
C608   C     0.58855   0.16925   0.55773   0.00000  Uiso   1.00
H609   H     0.61514   0.15850   0.57520   0.00000  Uiso   1.00
H610   H     0.63848   0.17428   0.97804   0.00000  Uiso   1.00
H611   H     0.47009   0.18768   0.59152   0.00000  Uiso   1.00
H612   H     0.38632   0.19601   0.91637   0.00000  Uiso   1.00
H613   H     0.42509   0.22127   0.55757   0.00000  Uiso   1.00
H614   H     0.55729   0.21607   0.85860   0.00000  Uiso   1.00
H615   H     0.56406   0.29577   0.77360   0.00000  Uiso   1.00
H616   H     0.35632   0.25799   0.52651   0.00000  Uiso   1.00
H617   H     0.34235   0.21021   0.55300   0.00000  Uiso   1.00
H618   H     0.56411   0.03761   0.77346   0.00000  Uiso   1.00
H619   H     0.43571   0.03752   0.72698   0.00000  Uiso   1.00
H620   H     0.43571   0.29572   0.72701   0.00000  Uiso   1.00
H621   H     0.63233   0.10425   0.72276   0.00000  Uiso   1.00
H622   H     0.38283   0.10435   0.72250   0.00000  Uiso   1.00
H623   H     0.36775   0.22914   0.77697   0.00000  Uiso   1.00
H624   H     0.61781   0.22943   0.77577   0.00000  Uiso   1.00
H625   H     0.61803   0.20277   0.90046   0.00000  Uiso   1.00
N626   N     0.38093   0.16668   0.75002   0.00000  Uiso   1.00
N627   N     0.61906   0.16665   0.75001   0.00000  Uiso   1.00
N628   N     0.35454   0.22663   0.51664   0.00000  Uiso   1.00
O629   O     0.46179   0.22775   0.75001   0.00000  Uiso   1.00
O630   O     0.53823   0.22774   0.75001   0.00000  Uiso   1.00
O631   O     0.44280   0.16666   0.82681   0.00000  Uiso   1.00
O632   O     0.51924   0.16665   0.82681   0.00000  Uiso   1.00
O633   O     0.46177   0.10559   0.75000   0.00000  Uiso   1.00
O634   O     0.53821   0.10558   0.75000   0.00000  Uiso   1.00
O635   O     0.48076   0.16668   0.67319   0.00000  Uiso   1.00
O636   O     0.55720   0.16667   0.67319   0.00000  Uiso   1.00
Zn637  Zn    0.44896   0.16667   0.75000   0.00000  Uiso   1.00
Zn638  Zn    0.55104   0.16666   0.75000   0.00000  Uiso   1.00
C639   C     0.83334   0.24668   0.75004   0.00000  Uiso   1.00
C640   C     0.79506   0.19156   0.90578   0.00000  Uiso   1.00
C641   C     0.86945   0.31202   0.76314   0.00000  Uiso   1.00
C642   C     0.80808   0.17383   0.85070   0.00000  Uiso   1.00
C643   C     0.86946   0.02133   0.76308   0.00000  Uiso   1.00
C644   C     0.83327   0.04249   0.75017   0.00000  Uiso   1.00
C645   C     0.79702   0.02129   0.73740   0.00000  Uiso   1.00
C646   C     0.79702   0.31199   0.73741   0.00000  Uiso   1.00
C647   C     0.83327   0.29083   0.75021   0.00000  Uiso   1.00
C648   C     0.98024   0.13201   0.73495   0.00000  Uiso   1.00
C649   C     0.69479   0.13206   0.73484   0.00000  Uiso   1.00
C650   C     0.81737   0.20336   0.98662   0.00000  Uiso   1.00
C651   C     0.68649   0.20135   0.76489   0.00000  Uiso   1.00
C652   C     0.97210   0.20142   0.76451   0.00000  Uiso   1.00
C653   C     0.83330   0.08666   0.75005   0.00000  Uiso   1.00
C654   C     0.85928   0.16722   0.64788   0.00000  Uiso   1.00
C655   C     0.93517   0.17854   0.50279   0.00000  Uiso   1.00
C656   C     0.87438   0.17369   0.58969   0.00000  Uiso   1.00
C657   C     0.74722   0.19931   0.93527   0.00000  Uiso   1.00
C658   C     0.73516   0.21292   0.98888   0.00000  Uiso   1.00
C659   C     0.76953   0.21263   0.51536   0.00000  Uiso   1.00
C660   C     0.83068   0.20083   0.93007   0.00000  Uiso   1.00
C661   C     0.85250   0.19533   0.51160   0.00000  Uiso   1.00
C662   C     0.90097   0.19193   0.97966   0.00000  Uiso   1.00
C663   C     0.91421   0.20138   0.92485   0.00000  Uiso   1.00
C664   C     0.87921   0.20696   0.90050   0.00000  Uiso   1.00
C665   C     0.84013   0.18637   0.56649   0.00000  Uiso   1.00
C666   C     0.92189   0.16925   0.55773   0.00000  Uiso   1.00
H667   H     0.94847   0.15850   0.57520   0.00000  Uiso   1.00
H668   H     0.97181   0.17428   0.97804   0.00000  Uiso   1.00
H669   H     0.80342   0.18768   0.59152   0.00000  Uiso   1.00
H670   H     0.71965   0.19601   0.91637   0.00000  Uiso   1.00
H671   H     0.75843   0.22127   0.55757   0.00000  Uiso   1.00
H672   H     0.89063   0.21607   0.85860   0.00000  Uiso   1.00
H673   H     0.89739   0.29577   0.77360   0.00000  Uiso   1.00
H674   H     0.68966   0.25799   0.52651   0.00000  Uiso   1.00
H675   H     0.67569   0.21021   0.55300   0.00000  Uiso   1.00
H676   H     0.89745   0.03761   0.77346   0.00000  Uiso   1.00
H677   H     0.76904   0.03752   0.72698   0.00000  Uiso   1.00
H678   H     0.76905   0.29572   0.72701   0.00000  Uiso   1.00
H679   H     0.96567   0.10425   0.72276   0.00000  Uiso   1.00
H680   H     0.71616   0.10435   0.72250   0.00000  Uiso   1.00
H681   H     0.70108   0.22914   0.77697   0.00000  Uiso   1.00
H682   H     0.95114   0.22943   0.77577   0.00000  Uiso   1.00
H683   H     0.95136   0.20277   0.90046   0.00000  Uiso   1.00
N684   N     0.71426   0.16668   0.75002   0.00000  Uiso   1.00
N685   N     0.95239   0.16665   0.75001   0.00000  Uiso   1.00
N686   N     0.68787   0.22663   0.51664   0.00000  Uiso   1.00
O687   O     0.79512   0.22775   0.75001   0.00000  Uiso   1.00
O688   O     0.87157   0.22774   0.75001   0.00000  Uiso   1.00
O689   O     0.77613   0.16666   0.82681   0.00000  Uiso   1.00
O690   O     0.85258   0.16665   0.82681   0.00000  Uiso   1.00
O691   O     0.79510   0.10559   0.75000   0.00000  Uiso   1.00
O692   O     0.87154   0.10558   0.75000   0.00000  Uiso   1.00
O693   O     0.81409   0.16668   0.67319   0.00000  Uiso   1.00
O694   O     0.89053   0.16667   0.67319   0.00000  Uiso   1.00
Zn695  Zn    0.78229   0.16667   0.75000   0.00000  Uiso   1.00
Zn696  Zn    0.88438   0.16666   0.75000   0.00000  Uiso   1.00
C697   C     0.16667   0.58001   0.75004   0.00000  Uiso   1.00
C698   C     0.12839   0.52489   0.90578   0.00000  Uiso   1.00
C699   C     0.20278   0.64535   0.76314   0.00000  Uiso   1.00
C700   C     0.14141   0.50716   0.85070   0.00000  Uiso   1.00
C701   C     0.20280   0.35466   0.76308   0.00000  Uiso   1.00
C702   C     0.16660   0.37582   0.75017   0.00000  Uiso   1.00
C703   C     0.13035   0.35462   0.73740   0.00000  Uiso   1.00
C704   C     0.13036   0.64532   0.73741   0.00000  Uiso   1.00
C705   C     0.16661   0.62416   0.75021   0.00000  Uiso   1.00
C706   C     0.31357   0.46535   0.73495   0.00000  Uiso   1.00
C707   C     0.02813   0.46539   0.73484   0.00000  Uiso   1.00
C708   C     0.15070   0.53670   0.98662   0.00000  Uiso   1.00
C709   C     0.01982   0.53468   0.76489   0.00000  Uiso   1.00
C710   C     0.30543   0.53475   0.76451   0.00000  Uiso   1.00
C711   C     0.16664   0.41999   0.75005   0.00000  Uiso   1.00
C712   C     0.19262   0.50055   0.64788   0.00000  Uiso   1.00
C713   C     0.26850   0.51187   0.50279   0.00000  Uiso   1.00
C714   C     0.20771   0.50702   0.58969   0.00000  Uiso   1.00
C715   C     0.08055   0.53264   0.93527   0.00000  Uiso   1.00
C716   C     0.06849   0.54625   0.98888   0.00000  Uiso   1.00
C717   C     0.10286   0.54597   0.51536   0.00000  Uiso   1.00
C718   C     0.16402   0.53416   0.93007   0.00000  Uiso   1.00
C719   C     0.18583   0.52866   0.51160   0.00000  Uiso   1.00
C720   C     0.23430   0.52527   0.97966   0.00000  Uiso   1.00
C721   C     0.24754   0.53472   0.92485   0.00000  Uiso   1.00
C722   C     0.21254   0.54029   0.90050   0.00000  Uiso   1.00
C723   C     0.17346   0.51970   0.56649   0.00000  Uiso   1.00
C724   C     0.25522   0.50259   0.55773   0.00000  Uiso   1.00
H725   H     0.28180   0.49183   0.57520   0.00000  Uiso   1.00
H726   H     0.30515   0.50761   0.97804   0.00000  Uiso   1.00
H727   H     0.13676   0.52101   0.59152   0.00000  Uiso   1.00
H728   H     0.05299   0.52934   0.91637   0.00000  Uiso   1.00
H729   H     0.09176   0.55460   0.55757   0.00000  Uiso   1.00
H730   H     0.22396   0.54940   0.85860   0.00000  Uiso   1.00
H731   H     0.23073   0.62910   0.77360   0.00000  Uiso   1.00
H732   H     0.02299   0.59132   0.52651   0.00000  Uiso   1.00
H733   H     0.00902   0.54354   0.55300   0.00000  Uiso   1.00
H734   H     0.23078   0.37094   0.77346   0.00000  Uiso   1.00
H735   H     0.10238   0.37085   0.72698   0.00000  Uiso   1.00
H736   H     0.10238   0.62905   0.72701   0.00000  Uiso   1.00
H737   H     0.29900   0.43758   0.72276   0.00000  Uiso   1.00
H738   H     0.04949   0.43768   0.72250   0.00000  Uiso   1.00
H739   H     0.03442   0.56247   0.77697   0.00000  Uiso   1.00
H740   H     0.28448   0.56277   0.77577   0.00000  Uiso   1.00
H741   H     0.28469   0.53611   0.90046   0.00000  Uiso   1.00
N742   N     0.04760   0.50001   0.75002   0.00000  Uiso   1.00
N743   N     0.28573   0.49998   0.75001   0.00000  Uiso   1.00
N744   N     0.02121   0.55996   0.51664   0.00000  Uiso   1.00
O745   O     0.12846   0.56108   0.75001   0.00000  Uiso   1.00
O746   O     0.20490   0.56107   0.75001   0.00000  Uiso   1.00
O747   O     0.10947   0.50000   0.82681   0.00000  Uiso   1.00
O748   O     0.18591   0.49999   0.82681   0.00000  Uiso   1.00
O749   O     0.12843   0.43893   0.75000   0.00000  Uiso   1.00
O750   O     0.20488   0.43892   0.75000   0.00000  Uiso   1.00
O751   O     0.14742   0.50001   0.67319   0.00000  Uiso   1.00
O752   O     0.22387   0.50000   0.67319   0.00000  Uiso   1.00
Zn753  Zn    0.11562   0.50001   0.75000   0.00000  Uiso   1.00
Zn754  Zn    0.21771   0.49999   0.75000   0.00000  Uiso   1.00
C755   C     0.50001   0.58001   0.75004   0.00000  Uiso   1.00
C756   C     0.46173   0.52489   0.90578   0.00000  Uiso   1.00
C757   C     0.53611   0.64535   0.76314   0.00000  Uiso   1.00
C758   C     0.47475   0.50716   0.85070   0.00000  Uiso   1.00
C759   C     0.53613   0.35466   0.76308   0.00000  Uiso   1.00
C760   C     0.49993   0.37582   0.75017   0.00000  Uiso   1.00
C761   C     0.46369   0.35462   0.73740   0.00000  Uiso   1.00
C762   C     0.46369   0.64532   0.73741   0.00000  Uiso   1.00
C763   C     0.49994   0.62416   0.75021   0.00000  Uiso   1.00
C764   C     0.64690   0.46535   0.73495   0.00000  Uiso   1.00
C765   C     0.36146   0.46539   0.73484   0.00000  Uiso   1.00
C766   C     0.48404   0.53670   0.98662   0.00000  Uiso   1.00
C767   C     0.35315   0.53468   0.76489   0.00000  Uiso   1.00
C768   C     0.63877   0.53475   0.76451   0.00000  Uiso   1.00
C769   C     0.49997   0.41999   0.75005   0.00000  Uiso   1.00
C770   C     0.52595   0.50055   0.64788   0.00000  Uiso   1.00
C771   C     0.60184   0.51187   0.50279   0.00000  Uiso   1.00
C772   C     0.54105   0.50702   0.58969   0.00000  Uiso   1.00
C773   C     0.41389   0.53264   0.93527   0.00000  Uiso   1.00
C774   C     0.40182   0.54625   0.98888   0.00000  Uiso   1.00
C775   C     0.43619   0.54597   0.51536   0.00000  Uiso   1.00
C776   C     0.49735   0.53416   0.93007   0.00000  Uiso   1.00
C777   C     0.51917   0.52866   0.51160   0.00000  Uiso   1.00
C778   C     0.56764   0.52527   0.97966   0.00000  Uiso   1.00
C779   C     0.58088   0.53472   0.92485   0.00000  Uiso   1.00
C780   C     0.54588   0.54029   0.90050   0.00000  Uiso   1.00
C781   C     0.50679   0.51970   0.56649   0.00000  Uiso   1.00
C782   C     0.58855   0.50259   0.55773   0.00000  Uiso   1.00
H783   H     0.61514   0.49183   0.57520   0.00000  Uiso   1.00
H784   H     0.63848   0.50761   0.97804   0.00000  Uiso   1.00
H785   H     0.47009   0.52101   0.59152   0.00000  Uiso   1.00
H786   H     0.38632   0.52934   0.91637   0.00000  Uiso   1.00
H787   H     0.42509   0.55460   0.55757   0.00000  Uiso   1.00
H788   H     0.55729   0.54940   0.85860   0.00000  Uiso   1.00
H789   H     0.56406   0.62910   0.77360   0.00000  Uiso   1.00
H790   H     0.35632   0.59132   0.52651   0.00000  Uiso   1.00
H791   H     0.34235   0.54354   0.55300   0.00000  Uiso   1.00
H792   H     0.56411   0.37094   0.77346   0.00000  Uiso   1.00
H793   H     0.43571   0.37085   0.72698   0.00000  Uiso   1.00
H794   H     0.43571   0.62905   0.72701   0.00000  Uiso   1.00
H795   H     0.63233   0.43758   0.72276   0.00000  Uiso   1.00
H796   H     0.38283   0.43768   0.72250   0.00000  Uiso   1.00
H797   H     0.36775   0.56247   0.77697   0.00000  Uiso   1.00
H798   H     0.61781   0.56277   0.77577   0.00000  Uiso   1.00
H799   H     0.61803   0.53611   0.90046   0.00000  Uiso   1.00
N800   N     0.38093   0.50001   0.75002   0.00000  Uiso   1.00
N801   N     0.61906   0.49998   0.75001   0.00000  Uiso   1.00
N802   N     0.35454   0.55996   0.51664   0.00000  Uiso   1.00
O803   O     0.46179   0.56108   0.75001   0.00000  Uiso   1.00
O804   O     0.53823   0.56107   0.75001   0.00000  Uiso   1.00
O805   O     0.44280   0.50000   0.82681   0.00000  Uiso   1.00
O806   O     0.51924   0.49999   0.82681   0.00000  Uiso   1.00
O807   O     0.46177   0.43893   0.75000   0.00000  Uiso   1.00
O808   O     0.53821   0.43892   0.75000   0.00000  Uiso   1.00
O809   O     0.48076   0.50001   0.67319   0.00000  Uiso   1.00
O810   O     0.55720   0.50000   0.67319   0.00000  Uiso   1.00
Zn811  Zn    0.44896   0.50001   0.75000   0.00000  Uiso   1.00
Zn812  Zn    0.55104   0.49999   0.75000   0.00000  Uiso   1.00
C813   C     0.83334   0.58001   0.75004   0.00000  Uiso   1.00
C814   C     0.79506   0.52489   0.90578   0.00000  Uiso   1.00
C815   C     0.86945   0.64535   0.76314   0.00000  Uiso   1.00
C816   C     0.80808   0.50716   0.85070   0.00000  Uiso   1.00
C817   C     0.86946   0.35466   0.76308   0.00000  Uiso   1.00
C818   C     0.83327   0.37582   0.75017   0.00000  Uiso   1.00
C819   C     0.79702   0.35462   0.73740   0.00000  Uiso   1.00
C820   C     0.79702   0.64532   0.73741   0.00000  Uiso   1.00
C821   C     0.83327   0.62416   0.75021   0.00000  Uiso   1.00
C822   C     0.98024   0.46535   0.73495   0.00000  Uiso   1.00
C823   C     0.69479   0.46539   0.73484   0.00000  Uiso   1.00
C824   C     0.81737   0.53670   0.98662   0.00000  Uiso   1.00
C825   C     0.68649   0.53468   0.76489   0.00000  Uiso   1.00
C826   C     0.97210   0.53475   0.76451   0.00000  Uiso   1.00
C827   C     0.83330   0.41999   0.75005   0.00000  Uiso   1.00
C828   C     0.85928   0.50055   0.64788   0.00000  Uiso   1.00
C829   C     0.93517   0.51187   0.50279   0.00000  Uiso   1.00
C830   C     0.87438   0.50702   0.58969   0.00000  Uiso   1.00
C831   C     0.74722   0.53264   0.93527   0.00000  Uiso   1.00
C832   C     0.73516   0.54625   0.98888   0.00000  Uiso   1.00
C833   C     0.76953   0.54597   0.51536   0.00000  Uiso   1.00
C834   C     0.83068   0.53416   0.93007   0.00000  Uiso   1.00
C835   C     0.85250   0.52866   0.51160   0.00000  Uiso   1.00
C836   C     0.90097   0.52527   0.97966   0.00000  Uiso   1.00
C837   C     0.91421   0.53472   0.92485   0.00000  Uiso   1.00
C838   C     0.87921   0.54029   0.90050   0.00000  Uiso   1.00
C839   C     0.84013   0.51970   0.56649   0.00000  Uiso   1.00
C840   C     0.92189   0.50259   0.55773   0.00000  Uiso   1.00
H841   H     0.94847   0.49183   0.57520   0.00000  Uiso   1.00
H842   H     0.97181   0.50761   0.97804   0.00000  Uiso   1.00
H843   H     0.80342   0.52101   0.59152   0.00000  Uiso   1.00
H844   H     0.71965   0.52934   0.91637   0.00000  Uiso   1.00
H845   H     0.75843   0.55460   0.55757   0.00000  Uiso   1.00
H846   H     0.89063   0.54940   0.85860   0.00000  Uiso   1.00
H847   H     0.89739   0.62910   0.77360   0.00000  Uiso   1.00
H848   H     0.68966   0.59132   0.52651   0.00000  Uiso   1.00
H849   H     0.67569   0.54354   0.55300   0.00000  Uiso   1.00
H850   H     0.89745   0.37094   0.77346   0.00000  Uiso   1.00
H851   H     0.76904   0.37085   0.72698   0.00000  Uiso   1.00
H852   H     0.76905   0.62905   0.72701   0.00000  Uiso   1.00
H853   H     0.96567   0.43758   0.72276   0.00000  Uiso   1.00
H854   H     0.71616   0.43768   0.72250   0.00000  Uiso   1.00
H855   H     0.70108   0.56247   0.77697   0.00000  Uiso   1.00
H856   H     0.95114   0.56277   0.77577   0.00000  Uiso   1.00
H857   H     0.95136   0.53611   0.90046   0.00000  Uiso   1.00
N858   N     0.71426   0.50001   0.75002   0.00000  Uiso   1.00
N859   N     0.95239   0.49998   0.75001   0.00000  Uiso   1.00
N860   N     0.68787   0.55996   0.51664   0.00000  Uiso   1.00
O861   O     0.79512   0.56108   0.75001   0.00000  Uiso   1.00
O862   O     0.87157   0.56107   0.75001   0.00000  Uiso   1.00
O863   O     0.77613   0.50000   0.82681   0.00000  Uiso   1.00
O864   O     0.85258   0.49999   0.82681   0.00000  Uiso   1.00
O865   O     0.79510   0.43893   0.75000   0.00000  Uiso   1.00
O866   O     0.87154   0.43892   0.75000   0.00000  Uiso   1.00
O867   O     0.81409   0.50001   0.67319   0.00000  Uiso   1.00
O868   O     0.89053   0.50000   0.67319   0.00000  Uiso   1.00
Zn869  Zn    0.78229   0.50001   0.75000   0.00000  Uiso   1.00
Zn870  Zn    0.88438   0.49999   0.75000   0.00000  Uiso   1.00
C871   C     0.16667   0.91335   0.75004   0.00000  Uiso   1.00
C872   C     0.12839   0.85822   0.90578   0.00000  Uiso   1.00
C873   C     0.20278   0.97868   0.76314   0.00000  Uiso   1.00
C874   C     0.14141   0.84049   0.85070   0.00000  Uiso   1.00
C875   C     0.20280   0.68800   0.76308   0.00000  Uiso   1.00
C876   C     0.16660   0.70915   0.75017   0.00000  Uiso   1.00
C877   C     0.13035   0.68795   0.73740   0.00000  Uiso   1.00
C878   C     0.13036   0.97865   0.73741   0.00000  Uiso   1.00
C879   C     0.16661   0.95750   0.75021   0.00000  Uiso   1.00
C880   C     0.31357   0.79868   0.73495   0.00000  Uiso   1.00
C881   C     0.02813   0.79873   0.73484   0.00000  Uiso   1.00
C882   C     0.15070   0.87003   0.98662   0.00000  Uiso   1.00
C883   C     0.01982   0.86801   0.76489   0.00000  Uiso   1.00
C884   C     0.30543   0.86809   0.76451   0.00000  Uiso   1.00
C885   C     0.16664   0.75332   0.75005   0.00000  Uiso   1.00
C886   C     0.19262   0.83389   0.64788   0.00000  Uiso   1.00
C887   C     0.26850   0.84520   0.50279   0.00000  Uiso   1.00
C888   C     0.20771   0.84035   0.58969   0.00000  Uiso   1.00
C889   C     0.08055   0.86598   0.93527   0.00000  Uiso   1.00
C890   C     0.06849   0.87959   0.98888   0.00000  Uiso   1.00
C891   C     0.10286   0.87930   0.51536   0.00000  Uiso   1.00
C892   C     0.16402   0.86749   0.93007   0.00000  Uiso   1.00
C893   C     0.18583   0.86199   0.51160   0.00000  Uiso   1.00
C894   C     0.23430   0.85860   0.97966   0.00000  Uiso   1.00
C895   C     0.24754   0.86805   0.92485   0.00000  Uiso   1.00
C896   C     0.21254   0.87363   0.90050   0.00000  Uiso   1.00
C897   C     0.17346   0.85304   0.56649   0.00000  Uiso   1.00
C898   C     0.25522   0.83592   0.55773   0.00000  Uiso   1.00
H899   H     0.28180   0.82517   0.57520   0.00000  Uiso   1.00
H900   H     0.30515   0.84095   0.97804   0.00000  Uiso   1.00
H901   H     0.13676   0.85435   0.59152   0.00000  Uiso   1.00
H902   H     0.05299   0.86268   0.91637   0.00000  Uiso   1.00
H903   H     0.09176   0.88794   0.55757   0.00000  Uiso   1.00
H904   H     0.22396   0.88274   0.85860   0.00000  Uiso   1.00
H905   H     0.23073   0.96244   0.77360   0.00000  Uiso   1.00
H906   H     0.02299   0.92466   0.52651   0.00000  Uiso   1.00
H907   H     0.00902   0.87687   0.55300   0.00000  Uiso   1.00
H908   H     0.23078   0.70427   0.77346   0.00000  Uiso   1.00
H909   H     0.10238   0.70419   0.72698   0.00000  Uiso   1.00
H910   H     0.10238   0.96238   0.72701   0.00000  Uiso   1.00
H911   H     0.29900   0.77092   0.72276   0.00000  Uiso   1.00
H912   H     0.04949   0.77102   0.72250   0.00000  Uiso   1.00
H913   H     0.03442   0.89581   0.77697   0.00000  Uiso   1.00
H914   H     0.28448   0.89610   0.77577   0.00000  Uiso   1.00
H915   H     0.28469   0.86944   0.90046   0.00000  Uiso   1.00
N916   N     0.04760   0.83334   0.75002   0.00000  Uiso   1.00
N917   N     0.28573   0.83331   0.75001   0.00000  Uiso   1.00
N918   N     0.02121   0.89330   0.51664   0.00000  Uiso   1.00
O919   O     0.12846   0.89442   0.75001   0.00000  Uiso   1.00
O920   O     0.20490   0.89441   0.75001   0.00000  Uiso   1.00
O921   O     0.10947   0.83333   0.82681   0.00000  Uiso   1.00
O922   O     0.18591   0.83332   0.82681   0.00000  Uiso   1.00
O923   O     0.12843   0.77226   0.75000   0.00000  Uiso   1.00
O924   O     0.20488   0.77225   0.75000   0.00000  Uiso   1.00
O925   O     0.14742   0.83335   0.67319   0.00000  Uiso   1.00
O926   O     0.22387   0.83334   0.67319   0.00000  Uiso   1.00
Zn927  Zn    0.11562   0.83334   0.75000   0.00000  Uiso   1.00
Zn928  Zn    0.21771   0.83333   0.75000   0.00000  Uiso   1.00
C929   C     0.50001   0.91335   0.75004   0.00000  Uiso   1.00
C930   C     0.46173   0.85822   0.90578   0.00000  Uiso   1.00
C931   C     0.53611   0.97868   0.76314   0.00000  Uiso   1.00
C932   C     0.47475   0.84049   0.85070   0.00000  Uiso   1.00
C933   C     0.53613   0.68800   0.76308   0.00000  Uiso   1.00
C934   C     0.49993   0.70915   0.75017   0.00000  Uiso   1.00
C935   C     0.46369   0.68795   0.73740   0.00000  Uiso   1.00
C936   C     0.46369   0.97865   0.73741   0.00000  Uiso   1.00
C937   C     0.49994   0.95750   0.75021   0.00000  Uiso   1.00
C938   C     0.64690   0.79868   0.73495   0.00000  Uiso   1.00
C939   C     0.36146   0.79873   0.73484   0.00000  Uiso   1.00
C940   C     0.48404   0.87003   0.98662   0.00000  Uiso   1.00
C941   C     0.35315   0.86801   0.76489   0.00000  Uiso   1.00
C942   C     0.63877   0.86809   0.76451   0.00000  Uiso   1.00
C943   C     0.49997   0.75332   0.75005   0.00000  Uiso   1.00
C944   C     0.52595   0.83389   0.64788   0.00000  Uiso   1.00
C945   C     0.60184   0.84520   0.50279   0.00000  Uiso   1.00
C946   C     0.54105   0.84035   0.58969   0.00000  Uiso   1.00
C947   C     0.41389   0.86598   0.93527   0.00000  Uiso   1.00
C948   C     0.40182   0.87959   0.98888   0.00000  Uiso   1.00
C949   C     0.43619   0.87930   0.51536   0.00000  Uiso   1.00
C950   C     0.49735   0.86749   0.93007   0.00000  Uiso   1.00
C951   C     0.51917   0.86199   0.51160   0.00000  Uiso   1.00
C952   C     0.56764   0.85860   0.97966   0.00000  Uiso   1.00
C953   C     0.58088   0.86805   0.92485   0.00000  Uiso   1.00
C954   C     0.54588   0.87363   0.90050   0.00000  Uiso   1.00
C955   C     0.50679   0.85304   0.56649   0.00000  Uiso   1.00
C956   C     0.58855   0.83592   0.55773   0.00000  Uiso   1.00
H957   H     0.61514   0.82517   0.57520   0.00000  Uiso   1.00
H958   H     0.63848   0.84095   0.97804   0.00000  Uiso   1.00
H959   H     0.47009   0.85435   0.59152   0.00000  Uiso   1.00
H960   H     0.38632   0.86268   0.91637   0.00000  Uiso   1.00
H961   H     0.42509   0.88794   0.55757   0.00000  Uiso   1.00
H962   H     0.55729   0.88274   0.85860   0.00000  Uiso   1.00
H963   H     0.56406   0.96244   0.77360   0.00000  Uiso   1.00
H964   H     0.35632   0.92466   0.52651   0.00000  Uiso   1.00
H965   H     0.34235   0.87687   0.55300   0.00000  Uiso   1.00
H966   H     0.56411   0.70427   0.77346   0.00000  Uiso   1.00
H967   H     0.43571   0.70419   0.72698   0.00000  Uiso   1.00
H968   H     0.43571   0.96238   0.72701   0.00000  Uiso   1.00
H969   H     0.63233   0.77092   0.72276   0.00000  Uiso   1.00
H970   H     0.38283   0.77102   0.72250   0.00000  Uiso   1.00
H971   H     0.36775   0.89581   0.77697   0.00000  Uiso   1.00
H972   H     0.61781   0.89610   0.77577   0.00000  Uiso   1.00
H973   H     0.61803   0.86944   0.90046   0.00000  Uiso   1.00
N974   N     0.38093   0.83334   0.75002   0.00000  Uiso   1.00
N975   N     0.61906   0.83331   0.75001   0.00000  Uiso   1.00
N976   N     0.35454   0.89330   0.51664   0.00000  Uiso   1.00
O977   O     0.46179   0.89442   0.75001   0.00000  Uiso   1.00
O978   O     0.53823   0.89441   0.75001   0.00000  Uiso   1.00
O979   O     0.44280   0.83333   0.82681   0.00000  Uiso   1.00
O980   O     0.51924   0.83332   0.82681   0.00000  Uiso   1.00
O981   O     0.46177   0.77226   0.75000   0.00000  Uiso   1.00
O982   O     0.53821   0.77225   0.75000   0.00000  Uiso   1.00
O983   O     0.48076   0.83335   0.67319   0.00000  Uiso   1.00
O984   O     0.55720   0.83334   0.67319   0.00000  Uiso   1.00
Zn985  Zn    0.44896   0.83334   0.75000   0.00000  Uiso   1.00
Zn986  Zn    0.55104   0.83333   0.75000   0.00000  Uiso   1.00
C987   C     0.83334   0.91335   0.75004   0.00000  Uiso   1.00
C988   C     0.79506   0.85822   0.90578   0.00000  Uiso   1.00
C989   C     0.86945   0.97868   0.76314   0.00000  Uiso   1.00
C990   C     0.80808   0.84049   0.85070   0.00000  Uiso   1.00
C991   C     0.86946   0.68800   0.76308   0.00000  Uiso   1.00
C992   C     0.83327   0.70915   0.75017   0.00000  Uiso   1.00
C993   C     0.79702   0.68795   0.73740   0.00000  Uiso   1.00
C994   C     0.79702   0.97865   0.73741   0.00000  Uiso   1.00
C995   C     0.83327   0.95750   0.75021   0.00000  Uiso   1.00
C996   C     0.98024   0.79868   0.73495   0.00000  Uiso   1.00
C997   C     0.69479   0.79873   0.73484   0.00000  Uiso   1.00
C998   C     0.81737   0.87003   0.98662   0.00000  Uiso   1.00
C999   C     0.68649   0.86801   0.76489   0.00000  Uiso   1.00
C1000  C     0.97210   0.86809   0.76451   0.00000  Uiso   1.00
C1001  C     0.83330   0.75332   0.75005   0.00000  Uiso   1.00
C1002  C     0.85928   0.83389   0.64788   0.00000  Uiso   1.00
C1003  C     0.93517   0.84520   0.50279   0.00000  Uiso   1.00
C1004  C     0.87438   0.84035   0.58969   0.00000  Uiso   1.00
C1005  C     0.74722   0.86598   0.93527   0.00000  Uiso   1.00
C1006  C     0.73516   0.87959   0.98888   0.00000  Uiso   1.00
C1007  C     0.76953   0.87930   0.51536   0.00000  Uiso   1.00
C1008  C     0.83068   0.86749   0.93007   0.00000  Uiso   1.00
C1009  C     0.85250   0.86199   0.51160   0.00000  Uiso   1.00
C1010  C     0.90097   0.85860   0.97966   0.00000  Uiso   1.00
C1011  C     0.91421   0.86805   0.92485   0.00000  Uiso   1.00
C1012  C     0.87921   0.87363   0.90050   0.00000  Uiso   1.00
C1013  C     0.84013   0.85304   0.56649   0.00000  Uiso   1.00
C1014  C     0.92189   0.83592   0.55773   0.00000  Uiso   1.00
H1015  H     0.94847   0.82517   0.57520   0.00000  Uiso   1.00
H1016  H     0.97181   0.84095   0.97804   0.00000  Uiso   1.00
H1017  H     0.80342   0.85435   0.59152   0.00000  Uiso   1.00
H1018  H     0.71965   0.86268   0.91637   0.00000  Uiso   1.00
H1019  H     0.75843   0.88794   0.55757   0.00000  Uiso   1.00
H1020  H     0.89063   0.88274   0.85860   0.00000  Uiso   1.00
H1021  H     0.89739   0.96244   0.77360   0.00000  Uiso   1.00
H1022  H     0.68966   0.92466   0.52651   0.00000  Uiso   1.00
H1023  H     0.67569   0.87687   0.55300   0.00000  Uiso   1.00
H1024  H     0.89745   0.70427   0.77346   0.00000  Uiso   1.00
H1025  H     0.76904   0.70419   0.72698   0.00000  Uiso   1.00
H1026  H     0.76905   0.96238   0.72701   0.00000  Uiso   1.00
H1027  H     0.96567   0.77092   0.72276   0.00000  Uiso   1.00
H1028  H     0.71616   0.77102   0.72250   0.00000  Uiso   1.00
H1029  H     0.70108   0.89581   0.77697   0.00000  Uiso   1.00
H1030  H     0.95114   0.89610   0.77577   0.00000  Uiso   1.00
H1031  H     0.95136   0.86944   0.90046   0.00000  Uiso   1.00
N1032  N     0.71426   0.83334   0.75002   0.00000  Uiso   1.00
N1033  N     0.95239   0.83331   0.75001   0.00000  Uiso   1.00
N1034  N     0.68787   0.89330   0.51664   0.00000  Uiso   1.00
O1035  O     0.79512   0.89442   0.75001   0.00000  Uiso   1.00
O1036  O     0.87157   0.89441   0.75001   0.00000  Uiso   1.00
O1037  O     0.77613   0.83333   0.82681   0.00000  Uiso   1.00
O1038  O     0.85258   0.83332   0.82681   0.00000  Uiso   1.00
O1039  O     0.79510   0.77226   0.75000   0.00000  Uiso   1.00
O1040  O     0.87154   0.77225   0.75000   0.00000  Uiso   1.00
O1041  O     0.81409   0.83335   0.67319   0.00000  Uiso   1.00
O1042  O     0.89053   0.83334   0.67319   0.00000  Uiso   1.00
Zn1043 Zn    0.78229   0.83334   0.75000   0.00000  Uiso   1.00
Zn1044 Zn    0.88438   0.83333   0.75000   0.00000  Uiso   1.00
loop_
_geom_bond_atom_site_label_1
_geom_bond_atom_site_label_2
_geom_bond_distance
_geom_bond_site_symmetry_2
_ccdc_geom_bond_type
C1     O50     1.285   .     A
C1     C9      1.419   .     S
C1     O49     1.285   .     A
C2     C22     1.422   .     A
C2     C4      1.478   .     S
C2     C19     1.405   .     A
C3     C9      1.397   .     A
C3     H35     1.084   .     S
C3     C179    1.370   .     S
C4     O52     1.288   .     A
C4     O51     1.306   .     A
C5     H38     1.084   .     S
C5     C6      1.397   .     A
C5     C351    1.370   1_545 S
C6     C7      1.397   .     A
C6     C15     1.419   .     S
C7     H39     1.083   .     S
C7     C356    1.370   1_545 S
C8     H40     1.084   .     S
C8     C9      1.397   .     A
C8     C181    1.370   .     S
C10    N47     1.367   .     A
C10    H41     1.081   .     S
C10    C69     1.417   .     S
C11    H42     1.081   .     S
C11    N46     1.367   .     A
C11    C126    1.417   1_455 S
C12    C22     1.403   .     A
C12    C543    1.410   .     S
C12    C545    1.414   .     S
C13    H43     1.081   .     S
C13    N46     1.366   .     A
C13    C130    1.416   1_455 S
C14    H44     1.080   .     S
C14    N47     1.368   .     A
C14    C71     1.416   .     S
C15    O53     1.285   .     A
C15    O54     1.285   .     A
C16    O56     1.295   .     A
C16    O55     1.292   .     A
C16    C18     1.454   .     S
C17    C28     1.393   .     A
C17    C546    1.399   1_554 S
C17    H552    1.082   1_554 S
C18    C28     1.398   .     A
C18    C27     1.395   .     A
C19    C20     1.398   .     A
C19    H32     1.083   .     S
C20    C543    1.398   .     S
C20    N570    1.428   .     S
C21    H33     1.080   .     S
C21    C534    1.410   1_554 S
C21    C542    1.398   1_554 S
C22    C26     1.414   .     A
C23    C27     1.391   .     A
C23    C534    1.414   1_554 S
C23    C546    1.418   1_554 S
C24    C25     1.391   .     A
C24    C539    1.399   .     S
C24    C545    1.418   .     S
C25    C26     1.387   .     A
C25    H45     1.084   .     S
C26    H34     1.077   .     S
C27    H31     1.078   .     S
C28    H29     1.083   .     S
H30    C539    1.082   .     S
H36    N48     1.045   .     S
H37    N48     1.045   .     S
N46    Zn57    2.014   .     S
N47    Zn58    2.014   .     S
N48    C542    1.428   1_554 S
O49    Zn57    1.999   .     S
O50    Zn58    1.999   .     S
O51    Zn57    1.952   .     S
O52    Zn58    1.925   .     S
O53    Zn57    1.999   .     S
O54    Zn58    1.999   .     S
O55    Zn57    1.925   .     S
O56    Zn58    1.952   .     S
C59    O108    1.285   .     A
C59    C67     1.419   .     S
C59    O107    1.285   .     A
C60    C80     1.422   .     A
C60    C62     1.478   .     S
C60    C77     1.405   .     A
C61    C67     1.397   .     A
C61    H93     1.084   .     S
C61    C237    1.370   .     S
C62    O110    1.288   .     A
C62    O109    1.306   .     A
C63    H96     1.084   .     S
C63    C64     1.397   .     A
C63    C409    1.370   1_545 S
C64    C65     1.397   .     A
C64    C73     1.419   .     S
C65    H97     1.083   .     S
C65    C414    1.370   1_545 S
C66    H98     1.084   .     S
C66    C67     1.397   .     A
C66    C239    1.370   .     S
C68    N105    1.367   .     A
C68    H99     1.081   .     S
C68    C127    1.417   .     S
C69    H100    1.081   .     S
C69    N104    1.367   .     A
C70    C80     1.403   .     A
C70    C601    1.410   .     S
C70    C603    1.414   .     S
C71    H101    1.081   .     S
C71    N104    1.366   .     A
C72    H102    1.080   .     S
C72    N105    1.368   .     A
C72    C129    1.416   .     S
C73    O111    1.285   .     A
C73    O112    1.285   .     A
C74    O114    1.295   .     A
C74    O113    1.292   .     A
C74    C76     1.454   .     S
C75    C86     1.393   .     A
C75    C604    1.399   1_554 S
C75    H610    1.082   1_554 S
C76    C86     1.398   .     A
C76    C85     1.395   .     A
C77    C78     1.398   .     A
C77    H90     1.083   .     S
C78    C601    1.398   .     S
C78    N628    1.428   .     S
C79    H91     1.080   .     S
C79    C592    1.410   1_554 S
C79    C600    1.398   1_554 S
C80    C84     1.414   .     A
C81    C85     1.391   .     A
C81    C592    1.414   1_554 S
C81    C604    1.418   1_554 S
C82    C83     1.391   .     A
C82    C597    1.399   .     S
C82    C603    1.418   .     S
C83    C84     1.387   .     A
C83    H103    1.084   .     S
C84    H92     1.077   .     S
C85    H89     1.078   .     S
C86    H87     1.083   .     S
H88    C597    1.082   .     S
H94    N106    1.045   .     S
H95    N106    1.045   .     S
N104   Zn115   2.014   .     S
N105   Zn116   2.014   .     S
N106   C600    1.428   1_554 S
O107   Zn115   1.999   .     S
O108   Zn116   1.999   .     S
O109   Zn115   1.952   .     S
O110   Zn116   1.925   .     S
O111   Zn115   1.999   .     S
O112   Zn116   1.999   .     S
O113   Zn115   1.925   .     S
O114   Zn116   1.952   .     S
C117   O166    1.285   .     A
C117   C125    1.419   .     S
C117   O165    1.285   .     A
C118   C138    1.422   .     A
C118   C120    1.478   .     S
C118   C135    1.405   .     A
C119   C125    1.397   .     A
C119   H151    1.084   .     S
C119   C295    1.370   .     S
C120   O168    1.288   .     A
C120   O167    1.306   .     A
C121   H154    1.084   .     S
C121   C122    1.397   .     A
C121   C467    1.370   1_545 S
C122   C123    1.397   .     A
C122   C131    1.419   .     S
C123   H155    1.083   .     S
C123   C472    1.370   1_545 S
C124   H156    1.084   .     S
C124   C125    1.397   .     A
C124   C297    1.370   .     S
C126   N163    1.367   .     A
C126   H157    1.081   .     S
C126   C11     1.417   1_655 S
C127   H158    1.081   .     S
C127   N162    1.367   .     A
C128   C138    1.403   .     A
C128   C659    1.410   .     S
C128   C661    1.414   .     S
C129   H159    1.081   .     S
C129   N162    1.366   .     A
C130   H160    1.080   .     S
C130   N163    1.368   .     A
C130   C13     1.416   1_655 S
C131   O169    1.285   .     A
C131   O170    1.285   .     A
C132   O172    1.295   .     A
C132   O171    1.292   .     A
C132   C134    1.454   .     S
C133   C144    1.393   .     A
C133   C662    1.399   1_554 S
C133   H668    1.082   1_554 S
C134   C144    1.398   .     A
C134   C143    1.395   .     A
C135   C136    1.398   .     A
C135   H148    1.083   .     S
C136   C659    1.398   .     S
C136   N686    1.428   .     S
C137   H149    1.080   .     S
C137   C650    1.410   1_554 S
C137   C658    1.398   1_554 S
C138   C142    1.414   .     A
C139   C143    1.391   .     A
C139   C650    1.414   1_554 S
C139   C662    1.418   1_554 S
C140   C141    1.391   .     A
C140   C655    1.399   .     S
C140   C661    1.418   .     S
C141   C142    1.387   .     A
C141   H161    1.084   .     S
C142   H150    1.077   .     S
C143   H147    1.078   .     S
C144   H145    1.083   .     S
H146   C655    1.082   .     S
H152   N164    1.045   .     S
H153   N164    1.045   .     S
N162   Zn173   2.014   .     S
N163   Zn174   2.014   .     S
N164   C658    1.428   1_554 S
O165   Zn173   1.999   .     S
O166   Zn174   1.999   .     S
O167   Zn173   1.952   .     S
O168   Zn174   1.925   .     S
O169   Zn173   1.999   .     S
O170   Zn174   1.999   .     S
O171   Zn173   1.925   .     S
O172   Zn174   1.952   .     S
C175   O224    1.285   .     A
C175   C183    1.419   .     S
C175   O223    1.285   .     A
C176   C196    1.422   .     A
C176   C178    1.478   .     S
C176   C193    1.405   .     A
C177   C183    1.397   .     A
C177   H209    1.084   .     S
C177   C353    1.370   .     S
C178   O226    1.288   .     A
C178   O225    1.306   .     A
C179   H212    1.084   .     S
C179   C180    1.397   .     A
C180   C181    1.397   .     A
C180   C189    1.419   .     S
C181   H213    1.083   .     S
C182   H214    1.084   .     S
C182   C183    1.397   .     A
C182   C355    1.370   .     S
C184   N221    1.367   .     A
C184   H215    1.081   .     S
C184   C243    1.417   .     S
C185   H216    1.081   .     S
C185   N220    1.367   .     A
C185   C300    1.417   1_455 S
C186   C196    1.403   .     A
C186   C717    1.410   .     S
C186   C719    1.414   .     S
C187   H217    1.081   .     S
C187   N220    1.366   .     A
C187   C304    1.416   1_455 S
C188   H218    1.080   .     S
C188   N221    1.368   .     A
C188   C245    1.416   .     S
C189   O227    1.285   .     A
C189   O228    1.285   .     A
C190   O230    1.295   .     A
C190   O229    1.292   .     A
C190   C192    1.454   .     S
C191   C202    1.393   .     A
C191   C720    1.399   1_554 S
C191   H726    1.082   1_554 S
C192   C202    1.398   .     A
C192   C201    1.395   .     A
C193   C194    1.398   .     A
C193   H206    1.083   .     S
C194   C717    1.398   .     S
C194   N744    1.428   .     S
C195   H207    1.080   .     S
C195   C708    1.410   1_554 S
C195   C716    1.398   1_554 S
C196   C200    1.414   .     A
C197   C201    1.391   .     A
C197   C708    1.414   1_554 S
C197   C720    1.418   1_554 S
C198   C199    1.391   .     A
C198   C713    1.399   .     S
C198   C719    1.418   .     S
C199   C200    1.387   .     A
C199   H219    1.084   .     S
C200   H208    1.077   .     S
C201   H205    1.078   .     S
C202   H203    1.083   .     S
H204   C713    1.082   .     S
H210   N222    1.045   .     S
H211   N222    1.045   .     S
N220   Zn231   2.014   .     S
N221   Zn232   2.014   .     S
N222   C716    1.428   1_554 S
O223   Zn231   1.999   .     S
O224   Zn232   1.999   .     S
O225   Zn231   1.952   .     S
O226   Zn232   1.925   .     S
O227   Zn231   1.999   .     S
O228   Zn232   1.999   .     S
O229   Zn231   1.925   .     S
O230   Zn232   1.952   .     S
C233   O282    1.285   .     A
C233   C241    1.419   .     S
C233   O281    1.285   .     A
C234   C254    1.422   .     A
C234   C236    1.478   .     S
C234   C251    1.405   .     A
C235   C241    1.397   .     A
C235   H267    1.084   .     S
C235   C411    1.370   .     S
C236   O284    1.288   .     A
C236   O283    1.306   .     A
C237   H270    1.084   .     S
C237   C238    1.397   .     A
C238   C239    1.397   .     A
C238   C247    1.419   .     S
C239   H271    1.083   .     S
C240   H272    1.084   .     S
C240   C241    1.397   .     A
C240   C413    1.370   .     S
C242   N279    1.367   .     A
C242   H273    1.081   .     S
C242   C301    1.417   .     S
C243   H274    1.081   .     S
C243   N278    1.367   .     A
C244   C254    1.403   .     A
C244   C775    1.410   .     S
C244   C777    1.414   .     S
C245   H275    1.081   .     S
C245   N278    1.366   .     A
C246   H276    1.080   .     S
C246   N279    1.368   .     A
C246   C303    1.416   .     S
C247   O285    1.285   .     A
C247   O286    1.285   .     A
C248   O288    1.295   .     A
C248   O287    1.292   .     A
C248   C250    1.454   .     S
C249   C260    1.393   .     A
C249   C778    1.399   1_554 S
C249   H784    1.082   1_554 S
C250   C260    1.398   .     A
C250   C259    1.395   .     A
C251   C252    1.398   .     A
C251   H264    1.083   .     S
C252   C775    1.398   .     S
C252   N802    1.428   .     S
C253   H265    1.080   .     S
C253   C766    1.410   1_554 S
C253   C774    1.398   1_554 S
C254   C258    1.414   .     A
C255   C259    1.391   .     A
C255   C766    1.414   1_554 S
C255   C778    1.418   1_554 S
C256   C257    1.391   .     A
C256   C771    1.399   .     S
C256   C777    1.418   .     S
C257   C258    1.387   .     A
C257   H277    1.084   .     S
C258   H266    1.077   .     S
C259   H263    1.078   .     S
C260   H261    1.083   .     S
H262   C771    1.082   .     S
H268   N280    1.045   .     S
H269   N280    1.045   .     S
N278   Zn289   2.014   .     S
N279   Zn290   2.014   .     S
N280   C774    1.428   1_554 S
O281   Zn289   1.999   .     S
O282   Zn290   1.999   .     S
O283   Zn289   1.952   .     S
O284   Zn290   1.925   .     S
O285   Zn289   1.999   .     S
O286   Zn290   1.999   .     S
O287   Zn289   1.925   .     S
O288   Zn290   1.952   .     S
C291   O340    1.285   .     A
C291   C299    1.419   .     S
C291   O339    1.285   .     A
C292   C312    1.422   .     A
C292   C294    1.478   .     S
C292   C309    1.405   .     A
C293   C299    1.397   .     A
C293   H325    1.084   .     S
C293   C469    1.370   .     S
C294   O342    1.288   .     A
C294   O341    1.306   .     A
C295   H328    1.084   .     S
C295   C296    1.397   .     A
C296   C297    1.397   .     A
C296   C305    1.419   .     S
C297   H329    1.083   .     S
C298   H330    1.084   .     S
C298   C299    1.397   .     A
C298   C471    1.370   .     S
C300   N337    1.367   .     A
C300   H331    1.081   .     S
C300   C185    1.417   1_655 S
C301   H332    1.081   .     S
C301   N336    1.367   .     A
C302   C312    1.403   .     A
C302   C833    1.410   .     S
C302   C835    1.414   .     S
C303   H333    1.081   .     S
C303   N336    1.366   .     A
C304   H334    1.080   .     S
C304   N337    1.368   .     A
C304   C187    1.416   1_655 S
C305   O343    1.285   .     A
C305   O344    1.285   .     A
C306   O346    1.295   .     A
C306   O345    1.292   .     A
C306   C308    1.454   .     S
C307   C318    1.393   .     A
C307   C836    1.399   1_554 S
C307   H842    1.082   1_554 S
C308   C318    1.398   .     A
C308   C317    1.395   .     A
C309   C310    1.398   .     A
C309   H322    1.083   .     S
C310   C833    1.398   .     S
C310   N860    1.428   .     S
C311   H323    1.080   .     S
C311   C824    1.410   1_554 S
C311   C832    1.398   1_554 S
C312   C316    1.414   .     A
C313   C317    1.391   .     A
C313   C824    1.414   1_554 S
C313   C836    1.418   1_554 S
C314   C315    1.391   .     A
C314   C829    1.399   .     S
C314   C835    1.418   .     S
C315   C316    1.387   .     A
C315   H335    1.084   .     S
C316   H324    1.077   .     S
C317   H321    1.078   .     S
C318   H319    1.083   .     S
H320   C829    1.082   .     S
H326   N338    1.045   .     S
H327   N338    1.045   .     S
N336   Zn347   2.014   .     S
N337   Zn348   2.014   .     S
N338   C832    1.428   1_554 S
O339   Zn347   1.999   .     S
O340   Zn348   1.999   .     S
O341   Zn347   1.952   .     S
O342   Zn348   1.925   .     S
O343   Zn347   1.999   .     S
O344   Zn348   1.999   .     S
O345   Zn347   1.925   .     S
O346   Zn348   1.952   .     S
C349   O398    1.285   .     A
C349   C357    1.419   .     S
C349   O397    1.285   .     A
C350   C370    1.422   .     A
C350   C352    1.478   .     S
C350   C367    1.405   .     A
C351   C357    1.397   .     A
C351   H383    1.084   .     S
C351   C5      1.370   1_565 S
C352   O400    1.288   .     A
C352   O399    1.306   .     A
C353   H386    1.084   .     S
C353   C354    1.397   .     A
C354   C355    1.397   .     A
C354   C363    1.419   .     S
C355   H387    1.083   .     S
C356   H388    1.084   .     S
C356   C357    1.397   .     A
C356   C7      1.370   1_565 S
C358   N395    1.367   .     A
C358   H389    1.081   .     S
C358   C417    1.417   .     S
C359   H390    1.081   .     S
C359   N394    1.367   .     A
C359   C474    1.417   1_455 S
C360   C370    1.403   .     A
C360   C891    1.410   .     S
C360   C893    1.414   .     S
C361   H391    1.081   .     S
C361   N394    1.366   .     A
C361   C478    1.416   1_455 S
C362   H392    1.080   .     S
C362   N395    1.368   .     A
C362   C419    1.416   .     S
C363   O401    1.285   .     A
C363   O402    1.285   .     A
C364   O404    1.295   .     A
C364   O403    1.292   .     A
C364   C366    1.454   .     S
C365   C376    1.393   .     A
C365   C894    1.399   1_554 S
C365   H900    1.082   1_554 S
C366   C376    1.398   .     A
C366   C375    1.395   .     A
C367   C368    1.398   .     A
C367   H380    1.083   .     S
C368   C891    1.398   .     S
C368   N918    1.428   .     S
C369   H381    1.080   .     S
C369   C882    1.410   1_554 S
C369   C890    1.398   1_554 S
C370   C374    1.414   .     A
C371   C375    1.391   .     A
C371   C882    1.414   1_554 S
C371   C894    1.418   1_554 S
C372   C373    1.391   .     A
C372   C887    1.399   .     S
C372   C893    1.418   .     S
C373   C374    1.387   .     A
C373   H393    1.084   .     S
C374   H382    1.077   .     S
C375   H379    1.078   .     S
C376   H377    1.083   .     S
H378   C887    1.082   .     S
H384   N396    1.045   .     S
H385   N396    1.045   .     S
N394   Zn405   2.014   .     S
N395   Zn406   2.014   .     S
N396   C890    1.428   1_554 S
O397   Zn405   1.999   .     S
O398   Zn406   1.999   .     S
O399   Zn405   1.952   .     S
O400   Zn406   1.925   .     S
O401   Zn405   1.999   .     S
O402   Zn406   1.999   .     S
O403   Zn405   1.925   .     S
O404   Zn406   1.952   .     S
C407   O456    1.285   .     A
C407   C415    1.419   .     S
C407   O455    1.285   .     A
C408   C428    1.422   .     A
C408   C410    1.478   .     S
C408   C425    1.405   .     A
C409   C415    1.397   .     A
C409   H441    1.084   .     S
C409   C63     1.370   1_565 S
C410   O458    1.288   .     A
C410   O457    1.306   .     A
C411   H444    1.084   .     S
C411   C412    1.397   .     A
C412   C413    1.397   .     A
C412   C421    1.419   .     S
C413   H445    1.083   .     S
C414   H446    1.084   .     S
C414   C415    1.397   .     A
C414   C65     1.370   1_565 S
C416   N453    1.367   .     A
C416   H447    1.081   .     S
C416   C475    1.417   .     S
C417   H448    1.081   .     S
C417   N452    1.367   .     A
C418   C428    1.403   .     A
C418   C949    1.410   .     S
C418   C951    1.414   .     S
C419   H449    1.081   .     S
C419   N452    1.366   .     A
C420   H450    1.080   .     S
C420   N453    1.368   .     A
C420   C477    1.416   .     S
C421   O459    1.285   .     A
C421   O460    1.285   .     A
C422   O462    1.295   .     A
C422   O461    1.292   .     A
C422   C424    1.454   .     S
C423   C434    1.393   .     A
C423   C952    1.399   1_554 S
C423   H958    1.082   1_554 S
C424   C434    1.398   .     A
C424   C433    1.395   .     A
C425   C426    1.398   .     A
C425   H438    1.083   .     S
C426   C949    1.398   .     S
C426   N976    1.428   .     S
C427   H439    1.080   .     S
C427   C940    1.410   1_554 S
C427   C948    1.398   1_554 S
C428   C432    1.414   .     A
C429   C433    1.391   .     A
C429   C940    1.414   1_554 S
C429   C952    1.418   1_554 S
C430   C431    1.391   .     A
C430   C945    1.399   .     S
C430   C951    1.418   .     S
C431   C432    1.387   .     A
C431   H451    1.084   .     S
C432   H440    1.077   .     S
C433   H437    1.078   .     S
C434   H435    1.083   .     S
H436   C945    1.082   .     S
H442   N454    1.045   .     S
H443   N454    1.045   .     S
N452   Zn463   2.014   .     S
N453   Zn464   2.014   .     S
N454   C948    1.428   1_554 S
O455   Zn463   1.999   .     S
O456   Zn464   1.999   .     S
O457   Zn463   1.952   .     S
O458   Zn464   1.925   .     S
O459   Zn463   1.999   .     S
O460   Zn464   1.999   .     S
O461   Zn463   1.925   .     S
O462   Zn464   1.952   .     S
C465   O514    1.285   .     A
C465   C473    1.419   .     S
C465   O513    1.285   .     A
C466   C486    1.422   .     A
C466   C468    1.478   .     S
C466   C483    1.405   .     A
C467   C473    1.397   .     A
C467   H499    1.084   .     S
C467   C121    1.370   1_565 S
C468   O516    1.288   .     A
C468   O515    1.306   .     A
C469   H502    1.084   .     S
C469   C470    1.397   .     A
C470   C471    1.397   .     A
C470   C479    1.419   .     S
C471   H503    1.083   .     S
C472   H504    1.084   .     S
C472   C473    1.397   .     A
C472   C123    1.370   1_565 S
C474   N511    1.367   .     A
C474   H505    1.081   .     S
C474   C359    1.417   1_655 S
C475   H506    1.081   .     S
C475   N510    1.367   .     A
C476   C486    1.403   .     A
C476   C1007   1.410   .     S
C476   C1009   1.414   .     S
C477   H507    1.081   .     S
C477   N510    1.366   .     A
C478   H508    1.080   .     S
C478   N511    1.368   .     A
C478   C361    1.416   1_655 S
C479   O517    1.285   .     A
C479   O518    1.285   .     A
C480   O520    1.295   .     A
C480   O519    1.292   .     A
C480   C482    1.454   .     S
C481   C492    1.393   .     A
C481   C1010   1.399   1_554 S
C481   H1016   1.082   1_554 S
C482   C492    1.398   .     A
C482   C491    1.395   .     A
C483   C484    1.398   .     A
C483   H496    1.083   .     S
C484   C1007   1.398   .     S
C484   N1034   1.428   .     S
C485   H497    1.080   .     S
C485   C998    1.410   1_554 S
C485   C1006   1.398   1_554 S
C486   C490    1.414   .     A
C487   C491    1.391   .     A
C487   C998    1.414   1_554 S
C487   C1010   1.418   1_554 S
C488   C489    1.391   .     A
C488   C1003   1.399   .     S
C488   C1009   1.418   .     S
C489   C490    1.387   .     A
C489   H509    1.084   .     S
C490   H498    1.077   .     S
C491   H495    1.078   .     S
C492   H493    1.083   .     S
H494   C1003   1.082   .     S
H500   N512    1.045   .     S
H501   N512    1.045   .     S
N510   Zn521   2.014   .     S
N511   Zn522   2.014   .     S
N512   C1006   1.428   1_554 S
O513   Zn521   1.999   .     S
O514   Zn522   1.999   .     S
O515   Zn521   1.952   .     S
O516   Zn522   1.925   .     S
O517   Zn521   1.999   .     S
O518   Zn522   1.999   .     S
O519   Zn521   1.925   .     S
O520   Zn522   1.952   .     S
C523   O572    1.285   .     A
C523   C531    1.419   .     S
C523   O571    1.285   .     A
C524   C544    1.422   .     A
C524   C526    1.478   .     S
C524   C541    1.405   .     A
C525   C531    1.397   .     A
C525   H557    1.084   .     S
C525   C701    1.370   .     S
C526   O574    1.288   .     A
C526   O573    1.306   .     A
C527   H560    1.084   .     S
C527   C528    1.397   .     A
C527   C873    1.370   1_545 S
C528   C529    1.397   .     A
C528   C537    1.419   .     S
C529   H561    1.083   .     S
C529   C878    1.370   1_545 S
C530   H562    1.084   .     S
C530   C531    1.397   .     A
C530   C703    1.370   .     S
C532   N569    1.367   .     A
C532   H563    1.081   .     S
C532   C591    1.417   .     S
C533   H564    1.081   .     S
C533   N568    1.367   .     A
C533   C648    1.417   1_455 S
C534   C544    1.403   .     A
C534   C21     1.410   1_556 S
C534   C23     1.414   1_556 S
C535   H565    1.081   .     S
C535   N568    1.366   .     A
C535   C652    1.416   1_455 S
C536   H566    1.080   .     S
C536   N569    1.368   .     A
C536   C593    1.416   .     S
C537   O575    1.285   .     A
C537   O576    1.285   .     A
C538   O578    1.295   .     A
C538   O577    1.292   .     A
C538   C540    1.454   .     S
C539   C550    1.393   .     A
C540   C550    1.398   .     A
C540   C549    1.395   .     A
C541   C542    1.398   .     A
C541   H554    1.083   .     S
C542   C21     1.398   1_556 S
C542   N48     1.428   1_556 S
C543   H555    1.080   .     S
C544   C548    1.414   .     A
C545   C549    1.391   .     A
C546   C547    1.391   .     A
C546   C17     1.399   1_556 S
C546   C23     1.418   1_556 S
C547   C548    1.387   .     A
C547   H567    1.084   .     S
C548   H556    1.077   .     S
C549   H553    1.078   .     S
C550   H551    1.083   .     S
H552   C17     1.082   1_556 S
H558   N570    1.045   .     S
H559   N570    1.045   .     S
N568   Zn579   2.014   .     S
N569   Zn580   2.014   .     S
O571   Zn579   1.999   .     S
O572   Zn580   1.999   .     S
O573   Zn579   1.952   .     S
O574   Zn580   1.925   .     S
O575   Zn579   1.999   .     S
O576   Zn580   1.999   .     S
O577   Zn579   1.925   .     S
O578   Zn580   1.952   .     S
C581   O630    1.285   .     A
C581   C589    1.419   .     S
C581   O629    1.285   .     A
C582   C602    1.422   .     A
C582   C584    1.478   .     S
C582   C599    1.405   .     A
C583   C589    1.397   .     A
C583   H615    1.084   .     S
C583   C759    1.370   .     S
C584   O632    1.288   .     A
C584   O631    1.306   .     A
C585   H618    1.084   .     S
C585   C586    1.397   .     A
C585   C931    1.370   1_545 S
C586   C587    1.397   .     A
C586   C595    1.419   .     S
C587   H619    1.083   .     S
C587   C936    1.370   1_545 S
C588   H620    1.084   .     S
C588   C589    1.397   .     A
C588   C761    1.370   .     S
C590   N627    1.367   .     A
C590   H621    1.081   .     S
C590   C649    1.417   .     S
C591   H622    1.081   .     S
C591   N626    1.367   .     A
C592   C602    1.403   .     A
C592   C79     1.410   1_556 S
C592   C81     1.414   1_556 S
C593   H623    1.081   .     S
C593   N626    1.366   .     A
C594   H624    1.080   .     S
C594   N627    1.368   .     A
C594   C651    1.416   .     S
C595   O633    1.285   .     A
C595   O634    1.285   .     A
C596   O636    1.295   .     A
C596   O635    1.292   .     A
C596   C598    1.454   .     S
C597   C608    1.393   .     A
C598   C608    1.398   .     A
C598   C607    1.395   .     A
C599   C600    1.398   .     A
C599   H612    1.083   .     S
C600   C79     1.398   1_556 S
C600   N106    1.428   1_556 S
C601   H613    1.080   .     S
C602   C606    1.414   .     A
C603   C607    1.391   .     A
C604   C605    1.391   .     A
C604   C75     1.399   1_556 S
C604   C81     1.418   1_556 S
C605   C606    1.387   .     A
C605   H625    1.084   .     S
C606   H614    1.077   .     S
C607   H611    1.078   .     S
C608   H609    1.083   .     S
H610   C75     1.082   1_556 S
H616   N628    1.045   .     S
H617   N628    1.045   .     S
N626   Zn637   2.014   .     S
N627   Zn638   2.014   .     S
O629   Zn637   1.999   .     S
O630   Zn638   1.999   .     S
O631   Zn637   1.952   .     S
O632   Zn638   1.925   .     S
O633   Zn637   1.999   .     S
O634   Zn638   1.999   .     S
O635   Zn637   1.925   .     S
O636   Zn638   1.952   .     S
C639   O688    1.285   .     A
C639   C647    1.419   .     S
C639   O687    1.285   .     A
C640   C660    1.422   .     A
C640   C642    1.478   .     S
C640   C657    1.405   .     A
C641   C647    1.397   .     A
C641   H673    1.084   .     S
C641   C817    1.370   .     S
C642   O690    1.288   .     A
C642   O689    1.306   .     A
C643   H676    1.084   .     S
C643   C644    1.397   .     A
C643   C989    1.370   1_545 S
C644   C645    1.397   .     A
C644   C653    1.419   .     S
C645   H677    1.083   .     S
C645   C994    1.370   1_545 S
C646   H678    1.084   .     S
C646   C647    1.397   .     A
C646   C819    1.370   .     S
C648   N685    1.367   .     A
C648   H679    1.081   .     S
C648   C533    1.417   1_655 S
C649   H680    1.081   .     S
C649   N684    1.367   .     A
C650   C660    1.403   .     A
C650   C137    1.410   1_556 S
C650   C139    1.414   1_556 S
C651   H681    1.081   .     S
C651   N684    1.366   .     A
C652   H682    1.080   .     S
C652   N685    1.368   .     A
C652   C535    1.416   1_655 S
C653   O691    1.285   .     A
C653   O692    1.285   .     A
C654   O694    1.295   .     A
C654   O693    1.292   .     A
C654   C656    1.454   .     S
C655   C666    1.393   .     A
C656   C666    1.398   .     A
C656   C665    1.395   .     A
C657   C658    1.398   .     A
C657   H670    1.083   .     S
C658   C137    1.398   1_556 S
C658   N164    1.428   1_556 S
C659   H671    1.080   .     S
C660   C664    1.414   .     A
C661   C665    1.391   .     A
C662   C663    1.391   .     A
C662   C133    1.399   1_556 S
C662   C139    1.418   1_556 S
C663   C664    1.387   .     A
C663   H683    1.084   .     S
C664   H672    1.077   .     S
C665   H669    1.078   .     S
C666   H667    1.083   .     S
H668   C133    1.082   1_556 S
H674   N686    1.045   .     S
H675   N686    1.045   .     S
N684   Zn695   2.014   .     S
N685   Zn696   2.014   .     S
O687   Zn695   1.999   .     S
O688   Zn696   1.999   .     S
O689   Zn695   1.952   .     S
O690   Zn696   1.925   .     S
O691   Zn695   1.999   .     S
O692   Zn696   1.999   .     S
O693   Zn695   1.925   .     S
O694   Zn696   1.952   .     S
C697   O746    1.285   .     A
C697   C705    1.419   .     S
C697   O745    1.285   .     A
C698   C718    1.422   .     A
C698   C700    1.478   .     S
C698   C715    1.405   .     A
C699   C705    1.397   .     A
C699   H731    1.084   .     S
C699   C875    1.370   .     S
C700   O748    1.288   .     A
C700   O747    1.306   .     A
C701   H734    1.084   .     S
C701   C702    1.397   .     A
C702   C703    1.397   .     A
C702   C711    1.419   .     S
C703   H735    1.083   .     S
C704   H736    1.084   .     S
C704   C705    1.397   .     A
C704   C877    1.370   .     S
C706   N743    1.367   .     A
C706   H737    1.081   .     S
C706   C765    1.417   .     S
C707   H738    1.081   .     S
C707   N742    1.367   .     A
C707   C822    1.417   1_455 S
C708   C718    1.403   .     A
C708   C195    1.410   1_556 S
C708   C197    1.414   1_556 S
C709   H739    1.081   .     S
C709   N742    1.366   .     A
C709   C826    1.416   1_455 S
C710   H740    1.080   .     S
C710   N743    1.368   .     A
C710   C767    1.416   .     S
C711   O749    1.285   .     A
C711   O750    1.285   .     A
C712   O752    1.295   .     A
C712   O751    1.292   .     A
C712   C714    1.454   .     S
C713   C724    1.393   .     A
C714   C724    1.398   .     A
C714   C723    1.395   .     A
C715   C716    1.398   .     A
C715   H728    1.083   .     S
C716   C195    1.398   1_556 S
C716   N222    1.428   1_556 S
C717   H729    1.080   .     S
C718   C722    1.414   .     A
C719   C723    1.391   .     A
C720   C721    1.391   .     A
C720   C191    1.399   1_556 S
C720   C197    1.418   1_556 S
C721   C722    1.387   .     A
C721   H741    1.084   .     S
C722   H730    1.077   .     S
C723   H727    1.078   .     S
C724   H725    1.083   .     S
H726   C191    1.082   1_556 S
H732   N744    1.045   .     S
H733   N744    1.045   .     S
N742   Zn753   2.014   .     S
N743   Zn754   2.014   .     S
O745   Zn753   1.999   .     S
O746   Zn754   1.999   .     S
O747   Zn753   1.952   .     S
O748   Zn754   1.925   .     S
O749   Zn753   1.999   .     S
O750   Zn754   1.999   .     S
O751   Zn753   1.925   .     S
O752   Zn754   1.952   .     S
C755   O804    1.285   .     A
C755   C763    1.419   .     S
C755   O803    1.285   .     A
C756   C776    1.422   .     A
C756   C758    1.478   .     S
C756   C773    1.405   .     A
C757   C763    1.397   .     A
C757   H789    1.084   .     S
C757   C933    1.370   .     S
C758   O806    1.288   .     A
C758   O805    1.306   .     A
C759   H792    1.084   .     S
C759   C760    1.397   .     A
C760   C761    1.397   .     A
C760   C769    1.419   .     S
C761   H793    1.083   .     S
C762   H794    1.084   .     S
C762   C763    1.397   .     A
C762   C935    1.370   .     S
C764   N801    1.367   .     A
C764   H795    1.081   .     S
C764   C823    1.417   .     S
C765   H796    1.081   .     S
C765   N800    1.367   .     A
C766   C776    1.403   .     A
C766   C253    1.410   1_556 S
C766   C255    1.414   1_556 S
C767   H797    1.081   .     S
C767   N800    1.366   .     A
C768   H798    1.080   .     S
C768   N801    1.368   .     A
C768   C825    1.416   .     S
C769   O807    1.285   .     A
C769   O808    1.285   .     A
C770   O810    1.295   .     A
C770   O809    1.292   .     A
C770   C772    1.454   .     S
C771   C782    1.393   .     A
C772   C782    1.398   .     A
C772   C781    1.395   .     A
C773   C774    1.398   .     A
C773   H786    1.083   .     S
C774   C253    1.398   1_556 S
C774   N280    1.428   1_556 S
C775   H787    1.080   .     S
C776   C780    1.414   .     A
C777   C781    1.391   .     A
C778   C779    1.391   .     A
C778   C249    1.399   1_556 S
C778   C255    1.418   1_556 S
C779   C780    1.387   .     A
C779   H799    1.084   .     S
C780   H788    1.077   .     S
C781   H785    1.078   .     S
C782   H783    1.083   .     S
H784   C249    1.082   1_556 S
H790   N802    1.045   .     S
H791   N802    1.045   .     S
N800   Zn811   2.014   .     S
N801   Zn812   2.014   .     S
O803   Zn811   1.999   .     S
O804   Zn812   1.999   .     S
O805   Zn811   1.952   .     S
O806   Zn812   1.925   .     S
O807   Zn811   1.999   .     S
O808   Zn812   1.999   .     S
O809   Zn811   1.925   .     S
O810   Zn812   1.952   .     S
C813   O862    1.285   .     A
C813   C821    1.419   .     S
C813   O861    1.285   .     A
C814   C834    1.422   .     A
C814   C816    1.478   .     S
C814   C831    1.405   .     A
C815   C821    1.397   .     A
C815   H847    1.084   .     S
C815   C991    1.370   .     S
C816   O864    1.288   .     A
C816   O863    1.306   .     A
C817   H850    1.084   .     S
C817   C818    1.397   .     A
C818   C819    1.397   .     A
C818   C827    1.419   .     S
C819   H851    1.083   .     S
C820   H852    1.084   .     S
C820   C821    1.397   .     A
C820   C993    1.370   .     S
C822   N859    1.367   .     A
C822   H853    1.081   .     S
C822   C707    1.417   1_655 S
C823   H854    1.081   .     S
C823   N858    1.367   .     A
C824   C834    1.403   .     A
C824   C311    1.410   1_556 S
C824   C313    1.414   1_556 S
C825   H855    1.081   .     S
C825   N858    1.366   .     A
C826   H856    1.080   .     S
C826   N859    1.368   .     A
C826   C709    1.416   1_655 S
C827   O865    1.285   .     A
C827   O866    1.285   .     A
C828   O868    1.295   .     A
C828   O867    1.292   .     A
C828   C830    1.454   .     S
C829   C840    1.393   .     A
C830   C840    1.398   .     A
C830   C839    1.395   .     A
C831   C832    1.398   .     A
C831   H844    1.083   .     S
C832   C311    1.398   1_556 S
C832   N338    1.428   1_556 S
C833   H845    1.080   .     S
C834   C838    1.414   .     A
C835   C839    1.391   .     A
C836   C837    1.391   .     A
C836   C307    1.399   1_556 S
C836   C313    1.418   1_556 S
C837   C838    1.387   .     A
C837   H857    1.084   .     S
C838   H846    1.077   .     S
C839   H843    1.078   .     S
C840   H841    1.083   .     S
H842   C307    1.082   1_556 S
H848   N860    1.045   .     S
H849   N860    1.045   .     S
N858   Zn869   2.014   .     S
N859   Zn870   2.014   .     S
O861   Zn869   1.999   .     S
O862   Zn870   1.999   .     S
O863   Zn869   1.952   .     S
O864   Zn870   1.925   .     S
O865   Zn869   1.999   .     S
O866   Zn870   1.999   .     S
O867   Zn869   1.925   .     S
O868   Zn870   1.952   .     S
C871   O920    1.285   .     A
C871   C879    1.419   .     S
C871   O919    1.285   .     A
C872   C892    1.422   .     A
C872   C874    1.478   .     S
C872   C889    1.405   .     A
C873   C879    1.397   .     A
C873   H905    1.084   .     S
C873   C527    1.370   1_565 S
C874   O922    1.288   .     A
C874   O921    1.306   .     A
C875   H908    1.084   .     S
C875   C876    1.397   .     A
C876   C877    1.397   .     A
C876   C885    1.419   .     S
C877   H909    1.083   .     S
C878   H910    1.084   .     S
C878   C879    1.397   .     A
C878   C529    1.370   1_565 S
C880   N917    1.367   .     A
C880   H911    1.081   .     S
C880   C939    1.417   .     S
C881   H912    1.081   .     S
C881   N916    1.367   .     A
C881   C996    1.417   1_455 S
C882   C892    1.403   .     A
C882   C369    1.410   1_556 S
C882   C371    1.414   1_556 S
C883   H913    1.081   .     S
C883   N916    1.366   .     A
C883   C1000   1.416   1_455 S
C884   H914    1.080   .     S
C884   N917    1.368   .     A
C884   C941    1.416   .     S
C885   O923    1.285   .     A
C885   O924    1.285   .     A
C886   O926    1.295   .     A
C886   O925    1.292   .     A
C886   C888    1.454   .     S
C887   C898    1.393   .     A
C888   C898    1.398   .     A
C888   C897    1.395   .     A
C889   C890    1.398   .     A
C889   H902    1.083   .     S
C890   C369    1.398   1_556 S
C890   N396    1.428   1_556 S
C891   H903    1.080   .     S
C892   C896    1.414   .     A
C893   C897    1.391   .     A
C894   C895    1.391   .     A
C894   C365    1.399   1_556 S
C894   C371    1.418   1_556 S
C895   C896    1.387   .     A
C895   H915    1.084   .     S
C896   H904    1.077   .     S
C897   H901    1.078   .     S
C898   H899    1.083   .     S
H900   C365    1.082   1_556 S
H906   N918    1.045   .     S
H907   N918    1.045   .     S
N916   Zn927   2.014   .     S
N917   Zn928   2.014   .     S
O919   Zn927   1.999   .     S
O920   Zn928   1.999   .     S
O921   Zn927   1.952   .     S
O922   Zn928   1.925   .     S
O923   Zn927   1.999   .     S
O924   Zn928   1.999   .     S
O925   Zn927   1.925   .     S
O926   Zn928   1.952   .     S
C929   O978    1.285   .     A
C929   C937    1.419   .     S
C929   O977    1.285   .     A
C930   C950    1.422   .     A
C930   C932    1.478   .     S
C930   C947    1.405   .     A
C931   C937    1.397   .     A
C931   H963    1.084   .     S
C931   C585    1.370   1_565 S
C932   O980    1.288   .     A
C932   O979    1.306   .     A
C933   H966    1.084   .     S
C933   C934    1.397   .     A
C934   C935    1.397   .     A
C934   C943    1.419   .     S
C935   H967    1.083   .     S
C936   H968    1.084   .     S
C936   C937    1.397   .     A
C936   C587    1.370   1_565 S
C938   N975    1.367   .     A
C938   H969    1.081   .     S
C938   C997    1.417   .     S
C939   H970    1.081   .     S
C939   N974    1.367   .     A
C940   C950    1.403   .     A
C940   C427    1.410   1_556 S
C940   C429    1.414   1_556 S
C941   H971    1.081   .     S
C941   N974    1.366   .     A
C942   H972    1.080   .     S
C942   N975    1.368   .     A
C942   C999    1.416   .     S
C943   O981    1.285   .     A
C943   O982    1.285   .     A
C944   O984    1.295   .     A
C944   O983    1.292   .     A
C944   C946    1.454   .     S
C945   C956    1.393   .     A
C946   C956    1.398   .     A
C946   C955    1.395   .     A
C947   C948    1.398   .     A
C947   H960    1.083   .     S
C948   C427    1.398   1_556 S
C948   N454    1.428   1_556 S
C949   H961    1.080   .     S
C950   C954    1.414   .     A
C951   C955    1.391   .     A
C952   C953    1.391   .     A
C952   C423    1.399   1_556 S
C952   C429    1.418   1_556 S
C953   C954    1.387   .     A
C953   H973    1.084   .     S
C954   H962    1.077   .     S
C955   H959    1.078   .     S
C956   H957    1.083   .     S
H958   C423    1.082   1_556 S
H964   N976    1.045   .     S
H965   N976    1.045   .     S
N974   Zn985   2.014   .     S
N975   Zn986   2.014   .     S
O977   Zn985   1.999   .     S
O978   Zn986   1.999   .     S
O979   Zn985   1.952   .     S
O980   Zn986   1.925   .     S
O981   Zn985   1.999   .     S
O982   Zn986   1.999   .     S
O983   Zn985   1.925   .     S
O984   Zn986   1.952   .     S
C987   O1036   1.285   .     A
C987   C995    1.419   .     S
C987   O1035   1.285   .     A
C988   C1008   1.422   .     A
C988   C990    1.478   .     S
C988   C1005   1.405   .     A
C989   C995    1.397   .     A
C989   H1021   1.084   .     S
C989   C643    1.370   1_565 S
C990   O1038   1.288   .     A
C990   O1037   1.306   .     A
C991   H1024   1.084   .     S
C991   C992    1.397   .     A
C992   C993    1.397   .     A
C992   C1001   1.419   .     S
C993   H1025   1.083   .     S
C994   H1026   1.084   .     S
C994   C995    1.397   .     A
C994   C645    1.370   1_565 S
C996   N1033   1.367   .     A
C996   H1027   1.081   .     S
C996   C881    1.417   1_655 S
C997   H1028   1.081   .     S
C997   N1032   1.367   .     A
C998   C1008   1.403   .     A
C998   C485    1.410   1_556 S
C998   C487    1.414   1_556 S
C999   H1029   1.081   .     S
C999   N1032   1.366   .     A
C1000  H1030   1.080   .     S
C1000  N1033   1.368   .     A
C1000  C883    1.416   1_655 S
C1001  O1039   1.285   .     A
C1001  O1040   1.285   .     A
C1002  O1042   1.295   .     A
C1002  O1041   1.292   .     A
C1002  C1004   1.454   .     S
C1003  C1014   1.393   .     A
C1004  C1014   1.398   .     A
C1004  C1013   1.395   .     A
C1005  C1006   1.398   .     A
C1005  H1018   1.083   .     S
C1006  C485    1.398   1_556 S
C1006  N512    1.428   1_556 S
C1007  H1019   1.080   .     S
C1008  C1012   1.414   .     A
C1009  C1013   1.391   .     A
C1010  C1011   1.391   .     A
C1010  C481    1.399   1_556 S
C1010  C487    1.418   1_556 S
C1011  C1012   1.387   .     A
C1011  H1031   1.084   .     S
C1012  H1020   1.077   .     S
C1013  H1017   1.078   .     S
C1014  H1015   1.083   .     S
H1016  C481    1.082   1_556 S
H1022  N1034   1.045   .     S
H1023  N1034   1.045   .     S
N1032  Zn1043  2.014   .     S
N1033  Zn1044  2.014   .     S
O1035  Zn1043  1.999   .     S
O1036  Zn1044  1.999   .     S
O1037  Zn1043  1.952   .     S
O1038  Zn1044  1.925   .     S
O1039  Zn1043  1.999   .     S
O1040  Zn1044  1.999   .     S
O1041  Zn1043  1.925   .     S
O1042  Zn1044  1.952   .     S
