data_str_m3_o1_o2_pcu_sym.12
_audit_creation_date              2020-01-03
_audit_creation_method            'Materials Studio'
_symmetry_space_group_name_H-M    'P1'
_symmetry_Int_Tables_number       1
_symmetry_cell_setting            triclinic
loop_
_symmetry_equiv_pos_as_xyz
  x,y,z
_cell_length_a                    32.2922
_cell_length_b                    30.1562
_cell_length_c                    29.7559
_cell_angle_alpha                 90.0829
_cell_angle_beta                  90.1874
_cell_angle_gamma                 90.0704
loop_
_atom_site_label
_atom_site_type_symbol
_atom_site_fract_x
_atom_site_fract_y
_atom_site_fract_z
_atom_site_U_iso_or_equiv
_atom_site_adp_type
_atom_site_occupancy
C1     C     0.08683   0.16660   0.24993   0.00000  Uiso   1.00
C2     C     0.31296   0.20683   0.25364   0.00000  Uiso   1.00
C3     C     0.31269   0.12636   0.24426   0.00000  Uiso   1.00
C4     C     0.02059   0.20598   0.24090   0.00000  Uiso   1.00
C5     C     0.20181   0.18138   0.04766   0.00000  Uiso   1.00
C6     C     0.20164   0.15177   0.45257   0.00000  Uiso   1.00
C7     C     0.13150   0.18149   0.45240   0.00000  Uiso   1.00
C8     C     0.13159   0.15168   0.04740   0.00000  Uiso   1.00
C9     C     0.20196   0.18090   0.09404   0.00000  Uiso   1.00
C10    C     0.20172   0.15223   0.40622   0.00000  Uiso   1.00
C11    C     0.13139   0.18109   0.40601   0.00000  Uiso   1.00
C12    C     0.24651   0.16667   0.24978   0.00000  Uiso   1.00
C13    C     0.13155   0.15206   0.09377   0.00000  Uiso   1.00
C14    C     0.16675   0.16650   0.11668   0.00000  Uiso   1.00
C15    C     0.16657   0.16667   0.38334   0.00000  Uiso   1.00
C16    C     0.16666   0.16658   0.02428   0.00000  Uiso   1.00
C17    C     0.16659   0.16662   0.47574   0.00000  Uiso   1.00
C18    C     0.29085   0.16664   0.24912   0.00000  Uiso   1.00
C19    C     0.04248   0.16641   0.24938   0.00000  Uiso   1.00
C20    C     0.16670   0.16663   0.16437   0.00000  Uiso   1.00
C21    C     0.16662   0.16668   0.33563   0.00000  Uiso   1.00
C22    C     0.17174   0.02294   0.28879   0.00000  Uiso   1.00
C23    C     0.17252   0.31036   0.21135   0.00000  Uiso   1.00
C24    C     0.16192   0.02283   0.21112   0.00000  Uiso   1.00
C25    C     0.16107   0.31049   0.28864   0.00000  Uiso   1.00
C26    C     0.02037   0.12673   0.25705   0.00000  Uiso   1.00
H27    H     0.22887   0.19354   0.03011   0.00000  Uiso   1.00
H28    H     0.18259   0.27677   0.09562   0.00000  Uiso   1.00
H29    H     0.07633   0.07702   0.15423   0.00000  Uiso   1.00
H30    H     0.15159   0.27664   0.40414   0.00000  Uiso   1.00
H31    H     0.08217   0.02878   0.27918   0.00000  Uiso   1.00
H32    H     0.28444   0.30158   0.23658   0.00000  Uiso   1.00
H33    H     0.23950   0.07940   0.17041   0.00000  Uiso   1.00
H34    H     0.08170   0.30376   0.21693   0.00000  Uiso   1.00
H35    H     0.22873   0.13969   0.47028   0.00000  Uiso   1.00
H36    H     0.10447   0.19363   0.46999   0.00000  Uiso   1.00
H37    H     0.10447   0.13964   0.02966   0.00000  Uiso   1.00
H38    H     0.22923   0.19190   0.11223   0.00000  Uiso   1.00
H39    H     0.22906   0.14159   0.38827   0.00000  Uiso   1.00
H40    H     0.10418   0.19215   0.38784   0.00000  Uiso   1.00
H41    H     0.10421   0.14136   0.11170   0.00000  Uiso   1.00
H42    H     0.25713   0.07842   0.34592   0.00000  Uiso   1.00
N43    N     0.16667   0.28573   0.25000   0.00000  Uiso   1.00
N44    N     0.16667   0.04760   0.25000   0.00000  Uiso   1.00
O45    O     0.10559   0.20487   0.24999   0.00000  Uiso   1.00
O46    O     0.22336   0.00330   0.35611   0.00000  Uiso   1.00
O47    O     0.23488   0.08100   0.32311   0.00000  Uiso   1.00
O48    O     0.22521   0.32895   0.14485   0.00000  Uiso   1.00
O49    O     0.23129   0.25543   0.17702   0.00000  Uiso   1.00
O50    O     0.16830   0.27179   0.12458   0.00000  Uiso   1.00
O51    O     0.16371   0.05997   0.12881   0.00000  Uiso   1.00
O52    O     0.11149   0.00333   0.14226   0.00000  Uiso   1.00
O53    O     0.09887   0.08034   0.17663   0.00000  Uiso   1.00
O54    O     0.10914   0.32938   0.35588   0.00000  Uiso   1.00
O55    O     0.10190   0.25622   0.32269   0.00000  Uiso   1.00
O56    O     0.22774   0.12846   0.25000   0.00000  Uiso   1.00
O57    O     0.16550   0.27150   0.37498   0.00000  Uiso   1.00
O58    O     0.06623   0.09936   0.32730   0.00000  Uiso   1.00
O59    O     0.00339   0.05695   0.31053   0.00000  Uiso   1.00
O60    O     0.06625   0.04711   0.25775   0.00000  Uiso   1.00
O61    O     0.27169   0.23477   0.32659   0.00000  Uiso   1.00
O62    O     0.33253   0.27774   0.30514   0.00000  Uiso   1.00
O63    O     0.26559   0.28669   0.25787   0.00000  Uiso   1.00
O64    O     0.32960   0.05360   0.19455   0.00000  Uiso   1.00
O65    O     0.26881   0.05044   0.24306   0.00000  Uiso   1.00
O66    O     0.26474   0.09801   0.17002   0.00000  Uiso   1.00
O67    O     0.22774   0.20487   0.25000   0.00000  Uiso   1.00
O68    O     0.06830   0.23110   0.17146   0.00000  Uiso   1.00
O69    O     0.00406   0.27225   0.18289   0.00000  Uiso   1.00
O70    O     0.06473   0.28656   0.23833   0.00000  Uiso   1.00
O71    O     0.10559   0.12846   0.24999   0.00000  Uiso   1.00
O72    O     0.16666   0.20489   0.18453   0.00000  Uiso   1.00
O73    O     0.16667   0.12845   0.31547   0.00000  Uiso   1.00
O74    O     0.16667   0.20489   0.31547   0.00000  Uiso   1.00
O75    O     0.16666   0.12845   0.18453   0.00000  Uiso   1.00
O76    O     0.17089   0.05930   0.37148   0.00000  Uiso   1.00
S77    S     0.20007   0.04186   0.33645   0.00000  Uiso   1.00
S78    S     0.20102   0.29093   0.16423   0.00000  Uiso   1.00
S79    S     0.13419   0.04181   0.16309   0.00000  Uiso   1.00
S80    S     0.13269   0.29123   0.33582   0.00000  Uiso   1.00
S81    S     0.03901   0.08188   0.29016   0.00000  Uiso   1.00
S82    S     0.29597   0.25218   0.28736   0.00000  Uiso   1.00
S83    S     0.29406   0.07993   0.21314   0.00000  Uiso   1.00
S84    S     0.03941   0.24954   0.20634   0.00000  Uiso   1.00
Zn85   Zn    0.16667   0.21771   0.25000   0.00000  Uiso   1.00
Zn86   Zn    0.16667   0.11563   0.25000   0.00000  Uiso   1.00
C87    C     0.42016   0.16660   0.24993   0.00000  Uiso   1.00
C88    C     0.64630   0.20683   0.25364   0.00000  Uiso   1.00
C89    C     0.64603   0.12636   0.24426   0.00000  Uiso   1.00
C90    C     0.35392   0.20598   0.24090   0.00000  Uiso   1.00
C91    C     0.53515   0.18138   0.04766   0.00000  Uiso   1.00
C92    C     0.53498   0.15177   0.45257   0.00000  Uiso   1.00
C93    C     0.46483   0.18149   0.45240   0.00000  Uiso   1.00
C94    C     0.46493   0.15168   0.04740   0.00000  Uiso   1.00
C95    C     0.53530   0.18090   0.09404   0.00000  Uiso   1.00
C96    C     0.53506   0.15223   0.40622   0.00000  Uiso   1.00
C97    C     0.46472   0.18109   0.40601   0.00000  Uiso   1.00
C98    C     0.57984   0.16667   0.24978   0.00000  Uiso   1.00
C99    C     0.46488   0.15206   0.09377   0.00000  Uiso   1.00
C100   C     0.50009   0.16650   0.11668   0.00000  Uiso   1.00
C101   C     0.49990   0.16667   0.38334   0.00000  Uiso   1.00
C102   C     0.50000   0.16658   0.02428   0.00000  Uiso   1.00
C103   C     0.49993   0.16662   0.47574   0.00000  Uiso   1.00
C104   C     0.62418   0.16664   0.24912   0.00000  Uiso   1.00
C105   C     0.37581   0.16641   0.24938   0.00000  Uiso   1.00
C106   C     0.50003   0.16663   0.16437   0.00000  Uiso   1.00
C107   C     0.49995   0.16668   0.33563   0.00000  Uiso   1.00
C108   C     0.50507   0.02294   0.28879   0.00000  Uiso   1.00
C109   C     0.50586   0.31036   0.21135   0.00000  Uiso   1.00
C110   C     0.49526   0.02283   0.21112   0.00000  Uiso   1.00
C111   C     0.49440   0.31049   0.28864   0.00000  Uiso   1.00
C112   C     0.35370   0.12673   0.25705   0.00000  Uiso   1.00
H113   H     0.56220   0.19354   0.03011   0.00000  Uiso   1.00
H114   H     0.51593   0.27677   0.09562   0.00000  Uiso   1.00
H115   H     0.40966   0.07702   0.15423   0.00000  Uiso   1.00
H116   H     0.48493   0.27664   0.40414   0.00000  Uiso   1.00
H117   H     0.41550   0.02878   0.27918   0.00000  Uiso   1.00
H118   H     0.61778   0.30158   0.23658   0.00000  Uiso   1.00
H119   H     0.57283   0.07940   0.17041   0.00000  Uiso   1.00
H120   H     0.41503   0.30376   0.21693   0.00000  Uiso   1.00
H121   H     0.56206   0.13969   0.47028   0.00000  Uiso   1.00
H122   H     0.43780   0.19363   0.46999   0.00000  Uiso   1.00
H123   H     0.43781   0.13964   0.02966   0.00000  Uiso   1.00
H124   H     0.56256   0.19190   0.11223   0.00000  Uiso   1.00
H125   H     0.56240   0.14159   0.38827   0.00000  Uiso   1.00
H126   H     0.43751   0.19215   0.38784   0.00000  Uiso   1.00
H127   H     0.43754   0.14136   0.11170   0.00000  Uiso   1.00
H128   H     0.59047   0.07842   0.34592   0.00000  Uiso   1.00
N129   N     0.50000   0.28573   0.25000   0.00000  Uiso   1.00
N130   N     0.50000   0.04760   0.25000   0.00000  Uiso   1.00
O131   O     0.43892   0.20487   0.24999   0.00000  Uiso   1.00
O132   O     0.55669   0.00330   0.35611   0.00000  Uiso   1.00
O133   O     0.56821   0.08100   0.32311   0.00000  Uiso   1.00
O134   O     0.55854   0.32895   0.14485   0.00000  Uiso   1.00
O135   O     0.56463   0.25543   0.17702   0.00000  Uiso   1.00
O136   O     0.50163   0.27179   0.12458   0.00000  Uiso   1.00
O137   O     0.49705   0.05997   0.12881   0.00000  Uiso   1.00
O138   O     0.44482   0.00333   0.14226   0.00000  Uiso   1.00
O139   O     0.43220   0.08034   0.17663   0.00000  Uiso   1.00
O140   O     0.44247   0.32938   0.35588   0.00000  Uiso   1.00
O141   O     0.43523   0.25622   0.32269   0.00000  Uiso   1.00
O142   O     0.56108   0.12846   0.25000   0.00000  Uiso   1.00
O143   O     0.49884   0.27150   0.37498   0.00000  Uiso   1.00
O144   O     0.39957   0.09936   0.32730   0.00000  Uiso   1.00
O145   O     0.33673   0.05695   0.31053   0.00000  Uiso   1.00
O146   O     0.39958   0.04711   0.25775   0.00000  Uiso   1.00
O147   O     0.60502   0.23477   0.32659   0.00000  Uiso   1.00
O148   O     0.66587   0.27774   0.30514   0.00000  Uiso   1.00
O149   O     0.59892   0.28669   0.25787   0.00000  Uiso   1.00
O150   O     0.66293   0.05360   0.19455   0.00000  Uiso   1.00
O151   O     0.60214   0.05044   0.24306   0.00000  Uiso   1.00
O152   O     0.59808   0.09801   0.17002   0.00000  Uiso   1.00
O153   O     0.56108   0.20487   0.25000   0.00000  Uiso   1.00
O154   O     0.40163   0.23110   0.17146   0.00000  Uiso   1.00
O155   O     0.33739   0.27225   0.18289   0.00000  Uiso   1.00
O156   O     0.39806   0.28656   0.23833   0.00000  Uiso   1.00
O157   O     0.43892   0.12846   0.24999   0.00000  Uiso   1.00
O158   O     0.50000   0.20489   0.18453   0.00000  Uiso   1.00
O159   O     0.50000   0.12845   0.31547   0.00000  Uiso   1.00
O160   O     0.50000   0.20489   0.31547   0.00000  Uiso   1.00
O161   O     0.50000   0.12845   0.18453   0.00000  Uiso   1.00
O162   O     0.50423   0.05930   0.37148   0.00000  Uiso   1.00
S163   S     0.53340   0.04186   0.33645   0.00000  Uiso   1.00
S164   S     0.53435   0.29093   0.16423   0.00000  Uiso   1.00
S165   S     0.46752   0.04181   0.16309   0.00000  Uiso   1.00
S166   S     0.46602   0.29123   0.33582   0.00000  Uiso   1.00
S167   S     0.37234   0.08188   0.29016   0.00000  Uiso   1.00
S168   S     0.62930   0.25218   0.28736   0.00000  Uiso   1.00
S169   S     0.62740   0.07993   0.21314   0.00000  Uiso   1.00
S170   S     0.37274   0.24954   0.20634   0.00000  Uiso   1.00
Zn171  Zn    0.50000   0.21771   0.25000   0.00000  Uiso   1.00
Zn172  Zn    0.50000   0.11563   0.25000   0.00000  Uiso   1.00
C173   C     0.75349   0.16660   0.24993   0.00000  Uiso   1.00
C174   C     0.97963   0.20683   0.25364   0.00000  Uiso   1.00
C175   C     0.97936   0.12636   0.24426   0.00000  Uiso   1.00
C176   C     0.68725   0.20598   0.24090   0.00000  Uiso   1.00
C177   C     0.86848   0.18138   0.04766   0.00000  Uiso   1.00
C178   C     0.86831   0.15177   0.45257   0.00000  Uiso   1.00
C179   C     0.79817   0.18149   0.45240   0.00000  Uiso   1.00
C180   C     0.79826   0.15168   0.04740   0.00000  Uiso   1.00
C181   C     0.86863   0.18090   0.09404   0.00000  Uiso   1.00
C182   C     0.86839   0.15223   0.40622   0.00000  Uiso   1.00
C183   C     0.79805   0.18109   0.40601   0.00000  Uiso   1.00
C184   C     0.91318   0.16667   0.24978   0.00000  Uiso   1.00
C185   C     0.79822   0.15206   0.09377   0.00000  Uiso   1.00
C186   C     0.83342   0.16650   0.11668   0.00000  Uiso   1.00
C187   C     0.83323   0.16667   0.38334   0.00000  Uiso   1.00
C188   C     0.83333   0.16658   0.02428   0.00000  Uiso   1.00
C189   C     0.83326   0.16662   0.47574   0.00000  Uiso   1.00
C190   C     0.95751   0.16664   0.24912   0.00000  Uiso   1.00
C191   C     0.70914   0.16641   0.24938   0.00000  Uiso   1.00
C192   C     0.83336   0.16663   0.16437   0.00000  Uiso   1.00
C193   C     0.83329   0.16668   0.33563   0.00000  Uiso   1.00
C194   C     0.83840   0.02294   0.28879   0.00000  Uiso   1.00
C195   C     0.83919   0.31036   0.21135   0.00000  Uiso   1.00
C196   C     0.82859   0.02283   0.21112   0.00000  Uiso   1.00
C197   C     0.82773   0.31049   0.28864   0.00000  Uiso   1.00
C198   C     0.68703   0.12673   0.25705   0.00000  Uiso   1.00
H199   H     0.89553   0.19354   0.03011   0.00000  Uiso   1.00
H200   H     0.84926   0.27677   0.09562   0.00000  Uiso   1.00
H201   H     0.74299   0.07702   0.15423   0.00000  Uiso   1.00
H202   H     0.81826   0.27664   0.40414   0.00000  Uiso   1.00
H203   H     0.74883   0.02878   0.27918   0.00000  Uiso   1.00
H204   H     0.95111   0.30158   0.23658   0.00000  Uiso   1.00
H205   H     0.90617   0.07940   0.17041   0.00000  Uiso   1.00
H206   H     0.74837   0.30376   0.21693   0.00000  Uiso   1.00
H207   H     0.89539   0.13969   0.47028   0.00000  Uiso   1.00
H208   H     0.77114   0.19363   0.46999   0.00000  Uiso   1.00
H209   H     0.77114   0.13964   0.02966   0.00000  Uiso   1.00
H210   H     0.89589   0.19190   0.11223   0.00000  Uiso   1.00
H211   H     0.89573   0.14159   0.38827   0.00000  Uiso   1.00
H212   H     0.77084   0.19215   0.38784   0.00000  Uiso   1.00
H213   H     0.77087   0.14136   0.11170   0.00000  Uiso   1.00
H214   H     0.92380   0.07842   0.34592   0.00000  Uiso   1.00
N215   N     0.83333   0.28573   0.25000   0.00000  Uiso   1.00
N216   N     0.83333   0.04760   0.25000   0.00000  Uiso   1.00
O217   O     0.77226   0.20487   0.24999   0.00000  Uiso   1.00
O218   O     0.89003   0.00330   0.35611   0.00000  Uiso   1.00
O219   O     0.90154   0.08100   0.32311   0.00000  Uiso   1.00
O220   O     0.89188   0.32895   0.14485   0.00000  Uiso   1.00
O221   O     0.89796   0.25543   0.17702   0.00000  Uiso   1.00
O222   O     0.83497   0.27179   0.12458   0.00000  Uiso   1.00
O223   O     0.83038   0.05997   0.12881   0.00000  Uiso   1.00
O224   O     0.77816   0.00333   0.14226   0.00000  Uiso   1.00
O225   O     0.76553   0.08034   0.17663   0.00000  Uiso   1.00
O226   O     0.77581   0.32938   0.35588   0.00000  Uiso   1.00
O227   O     0.76857   0.25622   0.32269   0.00000  Uiso   1.00
O228   O     0.89441   0.12846   0.25000   0.00000  Uiso   1.00
O229   O     0.83217   0.27150   0.37498   0.00000  Uiso   1.00
O230   O     0.73290   0.09936   0.32730   0.00000  Uiso   1.00
O231   O     0.67006   0.05695   0.31053   0.00000  Uiso   1.00
O232   O     0.73292   0.04711   0.25775   0.00000  Uiso   1.00
O233   O     0.93835   0.23477   0.32659   0.00000  Uiso   1.00
O234   O     0.99920   0.27774   0.30514   0.00000  Uiso   1.00
O235   O     0.93226   0.28669   0.25787   0.00000  Uiso   1.00
O236   O     0.99627   0.05360   0.19455   0.00000  Uiso   1.00
O237   O     0.93547   0.05044   0.24306   0.00000  Uiso   1.00
O238   O     0.93141   0.09801   0.17002   0.00000  Uiso   1.00
O239   O     0.89441   0.20487   0.25000   0.00000  Uiso   1.00
O240   O     0.73496   0.23110   0.17146   0.00000  Uiso   1.00
O241   O     0.67072   0.27225   0.18289   0.00000  Uiso   1.00
O242   O     0.73139   0.28656   0.23833   0.00000  Uiso   1.00
O243   O     0.77226   0.12846   0.24999   0.00000  Uiso   1.00
O244   O     0.83333   0.20489   0.18453   0.00000  Uiso   1.00
O245   O     0.83334   0.12845   0.31547   0.00000  Uiso   1.00
O246   O     0.83334   0.20489   0.31547   0.00000  Uiso   1.00
O247   O     0.83333   0.12845   0.18453   0.00000  Uiso   1.00
O248   O     0.83756   0.05930   0.37148   0.00000  Uiso   1.00
S249   S     0.86674   0.04186   0.33645   0.00000  Uiso   1.00
S250   S     0.86769   0.29093   0.16423   0.00000  Uiso   1.00
S251   S     0.80085   0.04181   0.16309   0.00000  Uiso   1.00
S252   S     0.79936   0.29123   0.33582   0.00000  Uiso   1.00
S253   S     0.70568   0.08188   0.29016   0.00000  Uiso   1.00
S254   S     0.96264   0.25218   0.28736   0.00000  Uiso   1.00
S255   S     0.96073   0.07993   0.21314   0.00000  Uiso   1.00
S256   S     0.70607   0.24954   0.20634   0.00000  Uiso   1.00
Zn257  Zn    0.83333   0.21771   0.25000   0.00000  Uiso   1.00
Zn258  Zn    0.83333   0.11563   0.25000   0.00000  Uiso   1.00
C259   C     0.08683   0.49993   0.24993   0.00000  Uiso   1.00
C260   C     0.31296   0.54016   0.25364   0.00000  Uiso   1.00
C261   C     0.31269   0.45969   0.24426   0.00000  Uiso   1.00
C262   C     0.02059   0.53932   0.24090   0.00000  Uiso   1.00
C263   C     0.20181   0.51471   0.04766   0.00000  Uiso   1.00
C264   C     0.20164   0.48510   0.45257   0.00000  Uiso   1.00
C265   C     0.13150   0.51482   0.45240   0.00000  Uiso   1.00
C266   C     0.13159   0.48502   0.04740   0.00000  Uiso   1.00
C267   C     0.20196   0.51424   0.09404   0.00000  Uiso   1.00
C268   C     0.20172   0.48556   0.40622   0.00000  Uiso   1.00
C269   C     0.13139   0.51443   0.40601   0.00000  Uiso   1.00
C270   C     0.24651   0.50001   0.24978   0.00000  Uiso   1.00
C271   C     0.13155   0.48539   0.09377   0.00000  Uiso   1.00
C272   C     0.16675   0.49983   0.11668   0.00000  Uiso   1.00
C273   C     0.16657   0.50000   0.38334   0.00000  Uiso   1.00
C274   C     0.16666   0.49991   0.02428   0.00000  Uiso   1.00
C275   C     0.16659   0.49995   0.47574   0.00000  Uiso   1.00
C276   C     0.29085   0.49997   0.24912   0.00000  Uiso   1.00
C277   C     0.04248   0.49975   0.24938   0.00000  Uiso   1.00
C278   C     0.16670   0.49996   0.16437   0.00000  Uiso   1.00
C279   C     0.16662   0.50002   0.33563   0.00000  Uiso   1.00
C280   C     0.17174   0.35627   0.28879   0.00000  Uiso   1.00
C281   C     0.17252   0.64369   0.21135   0.00000  Uiso   1.00
C282   C     0.16192   0.35616   0.21112   0.00000  Uiso   1.00
C283   C     0.16107   0.64383   0.28864   0.00000  Uiso   1.00
C284   C     0.02037   0.46007   0.25705   0.00000  Uiso   1.00
H285   H     0.22887   0.52687   0.03011   0.00000  Uiso   1.00
H286   H     0.18259   0.61011   0.09562   0.00000  Uiso   1.00
H287   H     0.07633   0.41035   0.15423   0.00000  Uiso   1.00
H288   H     0.15159   0.60997   0.40414   0.00000  Uiso   1.00
H289   H     0.08217   0.36211   0.27918   0.00000  Uiso   1.00
H290   H     0.28444   0.63491   0.23658   0.00000  Uiso   1.00
H291   H     0.23950   0.41273   0.17041   0.00000  Uiso   1.00
H292   H     0.08170   0.63709   0.21693   0.00000  Uiso   1.00
H293   H     0.22873   0.47302   0.47028   0.00000  Uiso   1.00
H294   H     0.10447   0.52696   0.46999   0.00000  Uiso   1.00
H295   H     0.10447   0.47297   0.02966   0.00000  Uiso   1.00
H296   H     0.22923   0.52524   0.11223   0.00000  Uiso   1.00
H297   H     0.22906   0.47492   0.38827   0.00000  Uiso   1.00
H298   H     0.10418   0.52549   0.38784   0.00000  Uiso   1.00
H299   H     0.10421   0.47470   0.11170   0.00000  Uiso   1.00
H300   H     0.25713   0.41175   0.34592   0.00000  Uiso   1.00
N301   N     0.16667   0.61907   0.25000   0.00000  Uiso   1.00
N302   N     0.16667   0.38093   0.25000   0.00000  Uiso   1.00
O303   O     0.10559   0.53821   0.24999   0.00000  Uiso   1.00
O304   O     0.22336   0.33663   0.35611   0.00000  Uiso   1.00
O305   O     0.23488   0.41433   0.32311   0.00000  Uiso   1.00
O306   O     0.22521   0.66228   0.14485   0.00000  Uiso   1.00
O307   O     0.23129   0.58876   0.17702   0.00000  Uiso   1.00
O308   O     0.16830   0.60513   0.12458   0.00000  Uiso   1.00
O309   O     0.16371   0.39331   0.12881   0.00000  Uiso   1.00
O310   O     0.11149   0.33667   0.14226   0.00000  Uiso   1.00
O311   O     0.09887   0.41368   0.17663   0.00000  Uiso   1.00
O312   O     0.10914   0.66271   0.35588   0.00000  Uiso   1.00
O313   O     0.10190   0.58956   0.32269   0.00000  Uiso   1.00
O314   O     0.22774   0.46179   0.25000   0.00000  Uiso   1.00
O315   O     0.16550   0.60483   0.37498   0.00000  Uiso   1.00
O316   O     0.06623   0.43270   0.32730   0.00000  Uiso   1.00
O317   O     0.00339   0.39028   0.31053   0.00000  Uiso   1.00
O318   O     0.06625   0.38044   0.25775   0.00000  Uiso   1.00
O319   O     0.27169   0.56811   0.32659   0.00000  Uiso   1.00
O320   O     0.33253   0.61107   0.30514   0.00000  Uiso   1.00
O321   O     0.26559   0.62003   0.25787   0.00000  Uiso   1.00
O322   O     0.32960   0.38693   0.19455   0.00000  Uiso   1.00
O323   O     0.26881   0.38377   0.24306   0.00000  Uiso   1.00
O324   O     0.26474   0.43135   0.17002   0.00000  Uiso   1.00
O325   O     0.22774   0.53821   0.25000   0.00000  Uiso   1.00
O326   O     0.06830   0.56443   0.17146   0.00000  Uiso   1.00
O327   O     0.00406   0.60559   0.18289   0.00000  Uiso   1.00
O328   O     0.06473   0.61989   0.23833   0.00000  Uiso   1.00
O329   O     0.10559   0.46179   0.24999   0.00000  Uiso   1.00
O330   O     0.16666   0.53822   0.18453   0.00000  Uiso   1.00
O331   O     0.16667   0.46178   0.31547   0.00000  Uiso   1.00
O332   O     0.16667   0.53822   0.31547   0.00000  Uiso   1.00
O333   O     0.16666   0.46178   0.18453   0.00000  Uiso   1.00
O334   O     0.17089   0.39263   0.37148   0.00000  Uiso   1.00
S335   S     0.20007   0.37519   0.33645   0.00000  Uiso   1.00
S336   S     0.20102   0.62427   0.16423   0.00000  Uiso   1.00
S337   S     0.13419   0.37514   0.16309   0.00000  Uiso   1.00
S338   S     0.13269   0.62456   0.33582   0.00000  Uiso   1.00
S339   S     0.03901   0.41522   0.29016   0.00000  Uiso   1.00
S340   S     0.29597   0.58552   0.28736   0.00000  Uiso   1.00
S341   S     0.29406   0.41326   0.21314   0.00000  Uiso   1.00
S342   S     0.03941   0.58288   0.20634   0.00000  Uiso   1.00
Zn343  Zn    0.16667   0.55104   0.25000   0.00000  Uiso   1.00
Zn344  Zn    0.16667   0.44896   0.25000   0.00000  Uiso   1.00
C345   C     0.42016   0.49993   0.24993   0.00000  Uiso   1.00
C346   C     0.64630   0.54016   0.25364   0.00000  Uiso   1.00
C347   C     0.64603   0.45969   0.24426   0.00000  Uiso   1.00
C348   C     0.35392   0.53932   0.24090   0.00000  Uiso   1.00
C349   C     0.53515   0.51471   0.04766   0.00000  Uiso   1.00
C350   C     0.53498   0.48510   0.45257   0.00000  Uiso   1.00
C351   C     0.46483   0.51482   0.45240   0.00000  Uiso   1.00
C352   C     0.46493   0.48502   0.04740   0.00000  Uiso   1.00
C353   C     0.53530   0.51424   0.09404   0.00000  Uiso   1.00
C354   C     0.53506   0.48556   0.40622   0.00000  Uiso   1.00
C355   C     0.46472   0.51443   0.40601   0.00000  Uiso   1.00
C356   C     0.57984   0.50001   0.24978   0.00000  Uiso   1.00
C357   C     0.46488   0.48539   0.09377   0.00000  Uiso   1.00
C358   C     0.50009   0.49983   0.11668   0.00000  Uiso   1.00
C359   C     0.49990   0.50000   0.38334   0.00000  Uiso   1.00
C360   C     0.50000   0.49991   0.02428   0.00000  Uiso   1.00
C361   C     0.49993   0.49995   0.47574   0.00000  Uiso   1.00
C362   C     0.62418   0.49997   0.24912   0.00000  Uiso   1.00
C363   C     0.37581   0.49975   0.24938   0.00000  Uiso   1.00
C364   C     0.50003   0.49996   0.16437   0.00000  Uiso   1.00
C365   C     0.49995   0.50002   0.33563   0.00000  Uiso   1.00
C366   C     0.50507   0.35627   0.28879   0.00000  Uiso   1.00
C367   C     0.50586   0.64369   0.21135   0.00000  Uiso   1.00
C368   C     0.49526   0.35616   0.21112   0.00000  Uiso   1.00
C369   C     0.49440   0.64383   0.28864   0.00000  Uiso   1.00
C370   C     0.35370   0.46007   0.25705   0.00000  Uiso   1.00
H371   H     0.56220   0.52687   0.03011   0.00000  Uiso   1.00
H372   H     0.51593   0.61011   0.09562   0.00000  Uiso   1.00
H373   H     0.40966   0.41035   0.15423   0.00000  Uiso   1.00
H374   H     0.48493   0.60997   0.40414   0.00000  Uiso   1.00
H375   H     0.41550   0.36211   0.27918   0.00000  Uiso   1.00
H376   H     0.61778   0.63491   0.23658   0.00000  Uiso   1.00
H377   H     0.57283   0.41273   0.17041   0.00000  Uiso   1.00
H378   H     0.41503   0.63709   0.21693   0.00000  Uiso   1.00
H379   H     0.56206   0.47302   0.47028   0.00000  Uiso   1.00
H380   H     0.43780   0.52696   0.46999   0.00000  Uiso   1.00
H381   H     0.43781   0.47297   0.02966   0.00000  Uiso   1.00
H382   H     0.56256   0.52524   0.11223   0.00000  Uiso   1.00
H383   H     0.56240   0.47492   0.38827   0.00000  Uiso   1.00
H384   H     0.43751   0.52549   0.38784   0.00000  Uiso   1.00
H385   H     0.43754   0.47470   0.11170   0.00000  Uiso   1.00
H386   H     0.59047   0.41175   0.34592   0.00000  Uiso   1.00
N387   N     0.50000   0.61907   0.25000   0.00000  Uiso   1.00
N388   N     0.50000   0.38093   0.25000   0.00000  Uiso   1.00
O389   O     0.43892   0.53821   0.24999   0.00000  Uiso   1.00
O390   O     0.55669   0.33663   0.35611   0.00000  Uiso   1.00
O391   O     0.56821   0.41433   0.32311   0.00000  Uiso   1.00
O392   O     0.55854   0.66228   0.14485   0.00000  Uiso   1.00
O393   O     0.56463   0.58876   0.17702   0.00000  Uiso   1.00
O394   O     0.50163   0.60513   0.12458   0.00000  Uiso   1.00
O395   O     0.49705   0.39331   0.12881   0.00000  Uiso   1.00
O396   O     0.44482   0.33667   0.14226   0.00000  Uiso   1.00
O397   O     0.43220   0.41368   0.17663   0.00000  Uiso   1.00
O398   O     0.44247   0.66271   0.35588   0.00000  Uiso   1.00
O399   O     0.43523   0.58956   0.32269   0.00000  Uiso   1.00
O400   O     0.56108   0.46179   0.25000   0.00000  Uiso   1.00
O401   O     0.49884   0.60483   0.37498   0.00000  Uiso   1.00
O402   O     0.39957   0.43270   0.32730   0.00000  Uiso   1.00
O403   O     0.33673   0.39028   0.31053   0.00000  Uiso   1.00
O404   O     0.39958   0.38044   0.25775   0.00000  Uiso   1.00
O405   O     0.60502   0.56811   0.32659   0.00000  Uiso   1.00
O406   O     0.66587   0.61107   0.30514   0.00000  Uiso   1.00
O407   O     0.59892   0.62003   0.25787   0.00000  Uiso   1.00
O408   O     0.66293   0.38693   0.19455   0.00000  Uiso   1.00
O409   O     0.60214   0.38377   0.24306   0.00000  Uiso   1.00
O410   O     0.59808   0.43135   0.17002   0.00000  Uiso   1.00
O411   O     0.56108   0.53821   0.25000   0.00000  Uiso   1.00
O412   O     0.40163   0.56443   0.17146   0.00000  Uiso   1.00
O413   O     0.33739   0.60559   0.18289   0.00000  Uiso   1.00
O414   O     0.39806   0.61989   0.23833   0.00000  Uiso   1.00
O415   O     0.43892   0.46179   0.24999   0.00000  Uiso   1.00
O416   O     0.50000   0.53822   0.18453   0.00000  Uiso   1.00
O417   O     0.50000   0.46178   0.31547   0.00000  Uiso   1.00
O418   O     0.50000   0.53822   0.31547   0.00000  Uiso   1.00
O419   O     0.50000   0.46178   0.18453   0.00000  Uiso   1.00
O420   O     0.50423   0.39263   0.37148   0.00000  Uiso   1.00
S421   S     0.53340   0.37519   0.33645   0.00000  Uiso   1.00
S422   S     0.53435   0.62427   0.16423   0.00000  Uiso   1.00
S423   S     0.46752   0.37514   0.16309   0.00000  Uiso   1.00
S424   S     0.46602   0.62456   0.33582   0.00000  Uiso   1.00
S425   S     0.37234   0.41522   0.29016   0.00000  Uiso   1.00
S426   S     0.62930   0.58552   0.28736   0.00000  Uiso   1.00
S427   S     0.62740   0.41326   0.21314   0.00000  Uiso   1.00
S428   S     0.37274   0.58288   0.20634   0.00000  Uiso   1.00
Zn429  Zn    0.50000   0.55104   0.25000   0.00000  Uiso   1.00
Zn430  Zn    0.50000   0.44896   0.25000   0.00000  Uiso   1.00
C431   C     0.75349   0.49993   0.24993   0.00000  Uiso   1.00
C432   C     0.97963   0.54016   0.25364   0.00000  Uiso   1.00
C433   C     0.97936   0.45969   0.24426   0.00000  Uiso   1.00
C434   C     0.68725   0.53932   0.24090   0.00000  Uiso   1.00
C435   C     0.86848   0.51471   0.04766   0.00000  Uiso   1.00
C436   C     0.86831   0.48510   0.45257   0.00000  Uiso   1.00
C437   C     0.79817   0.51482   0.45240   0.00000  Uiso   1.00
C438   C     0.79826   0.48502   0.04740   0.00000  Uiso   1.00
C439   C     0.86863   0.51424   0.09404   0.00000  Uiso   1.00
C440   C     0.86839   0.48556   0.40622   0.00000  Uiso   1.00
C441   C     0.79805   0.51443   0.40601   0.00000  Uiso   1.00
C442   C     0.91318   0.50001   0.24978   0.00000  Uiso   1.00
C443   C     0.79822   0.48539   0.09377   0.00000  Uiso   1.00
C444   C     0.83342   0.49983   0.11668   0.00000  Uiso   1.00
C445   C     0.83323   0.50000   0.38334   0.00000  Uiso   1.00
C446   C     0.83333   0.49991   0.02428   0.00000  Uiso   1.00
C447   C     0.83326   0.49995   0.47574   0.00000  Uiso   1.00
C448   C     0.95751   0.49997   0.24912   0.00000  Uiso   1.00
C449   C     0.70914   0.49975   0.24938   0.00000  Uiso   1.00
C450   C     0.83336   0.49996   0.16437   0.00000  Uiso   1.00
C451   C     0.83329   0.50002   0.33563   0.00000  Uiso   1.00
C452   C     0.83840   0.35627   0.28879   0.00000  Uiso   1.00
C453   C     0.83919   0.64369   0.21135   0.00000  Uiso   1.00
C454   C     0.82859   0.35616   0.21112   0.00000  Uiso   1.00
C455   C     0.82773   0.64383   0.28864   0.00000  Uiso   1.00
C456   C     0.68703   0.46007   0.25705   0.00000  Uiso   1.00
H457   H     0.89553   0.52687   0.03011   0.00000  Uiso   1.00
H458   H     0.84926   0.61011   0.09562   0.00000  Uiso   1.00
H459   H     0.74299   0.41035   0.15423   0.00000  Uiso   1.00
H460   H     0.81826   0.60997   0.40414   0.00000  Uiso   1.00
H461   H     0.74883   0.36211   0.27918   0.00000  Uiso   1.00
H462   H     0.95111   0.63491   0.23658   0.00000  Uiso   1.00
H463   H     0.90617   0.41273   0.17041   0.00000  Uiso   1.00
H464   H     0.74837   0.63709   0.21693   0.00000  Uiso   1.00
H465   H     0.89539   0.47302   0.47028   0.00000  Uiso   1.00
H466   H     0.77114   0.52696   0.46999   0.00000  Uiso   1.00
H467   H     0.77114   0.47297   0.02966   0.00000  Uiso   1.00
H468   H     0.89589   0.52524   0.11223   0.00000  Uiso   1.00
H469   H     0.89573   0.47492   0.38827   0.00000  Uiso   1.00
H470   H     0.77084   0.52549   0.38784   0.00000  Uiso   1.00
H471   H     0.77087   0.47470   0.11170   0.00000  Uiso   1.00
H472   H     0.92380   0.41175   0.34592   0.00000  Uiso   1.00
N473   N     0.83333   0.61907   0.25000   0.00000  Uiso   1.00
N474   N     0.83333   0.38093   0.25000   0.00000  Uiso   1.00
O475   O     0.77226   0.53821   0.24999   0.00000  Uiso   1.00
O476   O     0.89003   0.33663   0.35611   0.00000  Uiso   1.00
O477   O     0.90154   0.41433   0.32311   0.00000  Uiso   1.00
O478   O     0.89188   0.66228   0.14485   0.00000  Uiso   1.00
O479   O     0.89796   0.58876   0.17702   0.00000  Uiso   1.00
O480   O     0.83497   0.60513   0.12458   0.00000  Uiso   1.00
O481   O     0.83038   0.39331   0.12881   0.00000  Uiso   1.00
O482   O     0.77816   0.33667   0.14226   0.00000  Uiso   1.00
O483   O     0.76553   0.41368   0.17663   0.00000  Uiso   1.00
O484   O     0.77581   0.66271   0.35588   0.00000  Uiso   1.00
O485   O     0.76857   0.58956   0.32269   0.00000  Uiso   1.00
O486   O     0.89441   0.46179   0.25000   0.00000  Uiso   1.00
O487   O     0.83217   0.60483   0.37498   0.00000  Uiso   1.00
O488   O     0.73290   0.43270   0.32730   0.00000  Uiso   1.00
O489   O     0.67006   0.39028   0.31053   0.00000  Uiso   1.00
O490   O     0.73292   0.38044   0.25775   0.00000  Uiso   1.00
O491   O     0.93835   0.56811   0.32659   0.00000  Uiso   1.00
O492   O     0.99920   0.61107   0.30514   0.00000  Uiso   1.00
O493   O     0.93226   0.62003   0.25787   0.00000  Uiso   1.00
O494   O     0.99627   0.38693   0.19455   0.00000  Uiso   1.00
O495   O     0.93547   0.38377   0.24306   0.00000  Uiso   1.00
O496   O     0.93141   0.43135   0.17002   0.00000  Uiso   1.00
O497   O     0.89441   0.53821   0.25000   0.00000  Uiso   1.00
O498   O     0.73496   0.56443   0.17146   0.00000  Uiso   1.00
O499   O     0.67072   0.60559   0.18289   0.00000  Uiso   1.00
O500   O     0.73139   0.61989   0.23833   0.00000  Uiso   1.00
O501   O     0.77226   0.46179   0.24999   0.00000  Uiso   1.00
O502   O     0.83333   0.53822   0.18453   0.00000  Uiso   1.00
O503   O     0.83334   0.46178   0.31547   0.00000  Uiso   1.00
O504   O     0.83334   0.53822   0.31547   0.00000  Uiso   1.00
O505   O     0.83333   0.46178   0.18453   0.00000  Uiso   1.00
O506   O     0.83756   0.39263   0.37148   0.00000  Uiso   1.00
S507   S     0.86674   0.37519   0.33645   0.00000  Uiso   1.00
S508   S     0.86769   0.62427   0.16423   0.00000  Uiso   1.00
S509   S     0.80085   0.37514   0.16309   0.00000  Uiso   1.00
S510   S     0.79936   0.62456   0.33582   0.00000  Uiso   1.00
S511   S     0.70568   0.41522   0.29016   0.00000  Uiso   1.00
S512   S     0.96264   0.58552   0.28736   0.00000  Uiso   1.00
S513   S     0.96073   0.41326   0.21314   0.00000  Uiso   1.00
S514   S     0.70607   0.58288   0.20634   0.00000  Uiso   1.00
Zn515  Zn    0.83333   0.55104   0.25000   0.00000  Uiso   1.00
Zn516  Zn    0.83333   0.44896   0.25000   0.00000  Uiso   1.00
C517   C     0.08683   0.83327   0.24993   0.00000  Uiso   1.00
C518   C     0.31296   0.87349   0.25364   0.00000  Uiso   1.00
C519   C     0.31269   0.79303   0.24426   0.00000  Uiso   1.00
C520   C     0.02059   0.87265   0.24090   0.00000  Uiso   1.00
C521   C     0.20181   0.84805   0.04766   0.00000  Uiso   1.00
C522   C     0.20164   0.81844   0.45257   0.00000  Uiso   1.00
C523   C     0.13150   0.84815   0.45240   0.00000  Uiso   1.00
C524   C     0.13159   0.81835   0.04740   0.00000  Uiso   1.00
C525   C     0.20196   0.84757   0.09404   0.00000  Uiso   1.00
C526   C     0.20172   0.81890   0.40622   0.00000  Uiso   1.00
C527   C     0.13139   0.84776   0.40601   0.00000  Uiso   1.00
C528   C     0.24651   0.83334   0.24978   0.00000  Uiso   1.00
C529   C     0.13155   0.81872   0.09377   0.00000  Uiso   1.00
C530   C     0.16675   0.83316   0.11668   0.00000  Uiso   1.00
C531   C     0.16657   0.83334   0.38334   0.00000  Uiso   1.00
C532   C     0.16666   0.83325   0.02428   0.00000  Uiso   1.00
C533   C     0.16659   0.83329   0.47574   0.00000  Uiso   1.00
C534   C     0.29085   0.83330   0.24912   0.00000  Uiso   1.00
C535   C     0.04248   0.83308   0.24938   0.00000  Uiso   1.00
C536   C     0.16670   0.83329   0.16437   0.00000  Uiso   1.00
C537   C     0.16662   0.83335   0.33563   0.00000  Uiso   1.00
C538   C     0.17174   0.68961   0.28879   0.00000  Uiso   1.00
C539   C     0.17252   0.97702   0.21135   0.00000  Uiso   1.00
C540   C     0.16192   0.68949   0.21112   0.00000  Uiso   1.00
C541   C     0.16107   0.97716   0.28864   0.00000  Uiso   1.00
C542   C     0.02037   0.79340   0.25705   0.00000  Uiso   1.00
H543   H     0.22887   0.86021   0.03011   0.00000  Uiso   1.00
H544   H     0.18259   0.94344   0.09562   0.00000  Uiso   1.00
H545   H     0.07633   0.74368   0.15423   0.00000  Uiso   1.00
H546   H     0.15159   0.94331   0.40414   0.00000  Uiso   1.00
H547   H     0.08217   0.69544   0.27918   0.00000  Uiso   1.00
H548   H     0.28444   0.96824   0.23658   0.00000  Uiso   1.00
H549   H     0.23950   0.74606   0.17041   0.00000  Uiso   1.00
H550   H     0.08170   0.97042   0.21693   0.00000  Uiso   1.00
H551   H     0.22873   0.80636   0.47028   0.00000  Uiso   1.00
H552   H     0.10447   0.86030   0.46999   0.00000  Uiso   1.00
H553   H     0.10447   0.80631   0.02966   0.00000  Uiso   1.00
H554   H     0.22923   0.85857   0.11223   0.00000  Uiso   1.00
H555   H     0.22906   0.80826   0.38827   0.00000  Uiso   1.00
H556   H     0.10418   0.85882   0.38784   0.00000  Uiso   1.00
H557   H     0.10421   0.80803   0.11170   0.00000  Uiso   1.00
H558   H     0.25713   0.74508   0.34592   0.00000  Uiso   1.00
N559   N     0.16667   0.95240   0.25000   0.00000  Uiso   1.00
N560   N     0.16667   0.71427   0.25000   0.00000  Uiso   1.00
O561   O     0.10559   0.87154   0.24999   0.00000  Uiso   1.00
O562   O     0.22336   0.66996   0.35611   0.00000  Uiso   1.00
O563   O     0.23488   0.74766   0.32311   0.00000  Uiso   1.00
O564   O     0.22521   0.99562   0.14485   0.00000  Uiso   1.00
O565   O     0.23129   0.92210   0.17702   0.00000  Uiso   1.00
O566   O     0.16830   0.93846   0.12458   0.00000  Uiso   1.00
O567   O     0.16371   0.72664   0.12881   0.00000  Uiso   1.00
O568   O     0.11149   0.67000   0.14226   0.00000  Uiso   1.00
O569   O     0.09887   0.74701   0.17663   0.00000  Uiso   1.00
O570   O     0.10914   0.99605   0.35588   0.00000  Uiso   1.00
O571   O     0.10190   0.92289   0.32269   0.00000  Uiso   1.00
O572   O     0.22774   0.79513   0.25000   0.00000  Uiso   1.00
O573   O     0.16550   0.93817   0.37498   0.00000  Uiso   1.00
O574   O     0.06623   0.76603   0.32730   0.00000  Uiso   1.00
O575   O     0.00339   0.72362   0.31053   0.00000  Uiso   1.00
O576   O     0.06625   0.71377   0.25775   0.00000  Uiso   1.00
O577   O     0.27169   0.90144   0.32659   0.00000  Uiso   1.00
O578   O     0.33253   0.94441   0.30514   0.00000  Uiso   1.00
O579   O     0.26559   0.95336   0.25787   0.00000  Uiso   1.00
O580   O     0.32960   0.72027   0.19455   0.00000  Uiso   1.00
O581   O     0.26881   0.71711   0.24306   0.00000  Uiso   1.00
O582   O     0.26474   0.76468   0.17002   0.00000  Uiso   1.00
O583   O     0.22774   0.87154   0.25000   0.00000  Uiso   1.00
O584   O     0.06830   0.89777   0.17146   0.00000  Uiso   1.00
O585   O     0.00406   0.93892   0.18289   0.00000  Uiso   1.00
O586   O     0.06473   0.95323   0.23833   0.00000  Uiso   1.00
O587   O     0.10559   0.79513   0.24999   0.00000  Uiso   1.00
O588   O     0.16666   0.87155   0.18453   0.00000  Uiso   1.00
O589   O     0.16667   0.79511   0.31547   0.00000  Uiso   1.00
O590   O     0.16667   0.87155   0.31547   0.00000  Uiso   1.00
O591   O     0.16666   0.79511   0.18453   0.00000  Uiso   1.00
O592   O     0.17089   0.72596   0.37148   0.00000  Uiso   1.00
S593   S     0.20007   0.70852   0.33645   0.00000  Uiso   1.00
S594   S     0.20102   0.95760   0.16423   0.00000  Uiso   1.00
S595   S     0.13419   0.70847   0.16309   0.00000  Uiso   1.00
S596   S     0.13269   0.95790   0.33582   0.00000  Uiso   1.00
S597   S     0.03901   0.74855   0.29016   0.00000  Uiso   1.00
S598   S     0.29597   0.91885   0.28736   0.00000  Uiso   1.00
S599   S     0.29406   0.74659   0.21314   0.00000  Uiso   1.00
S600   S     0.03941   0.91621   0.20634   0.00000  Uiso   1.00
Zn601  Zn    0.16667   0.88437   0.25000   0.00000  Uiso   1.00
Zn602  Zn    0.16667   0.78229   0.25000   0.00000  Uiso   1.00
C603   C     0.42016   0.83327   0.24993   0.00000  Uiso   1.00
C604   C     0.64630   0.87349   0.25364   0.00000  Uiso   1.00
C605   C     0.64603   0.79303   0.24426   0.00000  Uiso   1.00
C606   C     0.35392   0.87265   0.24090   0.00000  Uiso   1.00
C607   C     0.53515   0.84805   0.04766   0.00000  Uiso   1.00
C608   C     0.53498   0.81844   0.45257   0.00000  Uiso   1.00
C609   C     0.46483   0.84815   0.45240   0.00000  Uiso   1.00
C610   C     0.46493   0.81835   0.04740   0.00000  Uiso   1.00
C611   C     0.53530   0.84757   0.09404   0.00000  Uiso   1.00
C612   C     0.53506   0.81890   0.40622   0.00000  Uiso   1.00
C613   C     0.46472   0.84776   0.40601   0.00000  Uiso   1.00
C614   C     0.57984   0.83334   0.24978   0.00000  Uiso   1.00
C615   C     0.46488   0.81872   0.09377   0.00000  Uiso   1.00
C616   C     0.50009   0.83316   0.11668   0.00000  Uiso   1.00
C617   C     0.49990   0.83334   0.38334   0.00000  Uiso   1.00
C618   C     0.50000   0.83325   0.02428   0.00000  Uiso   1.00
C619   C     0.49993   0.83329   0.47574   0.00000  Uiso   1.00
C620   C     0.62418   0.83330   0.24912   0.00000  Uiso   1.00
C621   C     0.37581   0.83308   0.24938   0.00000  Uiso   1.00
C622   C     0.50003   0.83329   0.16437   0.00000  Uiso   1.00
C623   C     0.49995   0.83335   0.33563   0.00000  Uiso   1.00
C624   C     0.50507   0.68961   0.28879   0.00000  Uiso   1.00
C625   C     0.50586   0.97702   0.21135   0.00000  Uiso   1.00
C626   C     0.49526   0.68949   0.21112   0.00000  Uiso   1.00
C627   C     0.49440   0.97716   0.28864   0.00000  Uiso   1.00
C628   C     0.35370   0.79340   0.25705   0.00000  Uiso   1.00
H629   H     0.56220   0.86021   0.03011   0.00000  Uiso   1.00
H630   H     0.51593   0.94344   0.09562   0.00000  Uiso   1.00
H631   H     0.40966   0.74368   0.15423   0.00000  Uiso   1.00
H632   H     0.48493   0.94331   0.40414   0.00000  Uiso   1.00
H633   H     0.41550   0.69544   0.27918   0.00000  Uiso   1.00
H634   H     0.61778   0.96824   0.23658   0.00000  Uiso   1.00
H635   H     0.57283   0.74606   0.17041   0.00000  Uiso   1.00
H636   H     0.41503   0.97042   0.21693   0.00000  Uiso   1.00
H637   H     0.56206   0.80636   0.47028   0.00000  Uiso   1.00
H638   H     0.43780   0.86030   0.46999   0.00000  Uiso   1.00
H639   H     0.43781   0.80631   0.02966   0.00000  Uiso   1.00
H640   H     0.56256   0.85857   0.11223   0.00000  Uiso   1.00
H641   H     0.56240   0.80826   0.38827   0.00000  Uiso   1.00
H642   H     0.43751   0.85882   0.38784   0.00000  Uiso   1.00
H643   H     0.43754   0.80803   0.11170   0.00000  Uiso   1.00
H644   H     0.59047   0.74508   0.34592   0.00000  Uiso   1.00
N645   N     0.50000   0.95240   0.25000   0.00000  Uiso   1.00
N646   N     0.50000   0.71427   0.25000   0.00000  Uiso   1.00
O647   O     0.43892   0.87154   0.24999   0.00000  Uiso   1.00
O648   O     0.55669   0.66996   0.35611   0.00000  Uiso   1.00
O649   O     0.56821   0.74766   0.32311   0.00000  Uiso   1.00
O650   O     0.55854   0.99562   0.14485   0.00000  Uiso   1.00
O651   O     0.56463   0.92210   0.17702   0.00000  Uiso   1.00
O652   O     0.50163   0.93846   0.12458   0.00000  Uiso   1.00
O653   O     0.49705   0.72664   0.12881   0.00000  Uiso   1.00
O654   O     0.44482   0.67000   0.14226   0.00000  Uiso   1.00
O655   O     0.43220   0.74701   0.17663   0.00000  Uiso   1.00
O656   O     0.44247   0.99605   0.35588   0.00000  Uiso   1.00
O657   O     0.43523   0.92289   0.32269   0.00000  Uiso   1.00
O658   O     0.56108   0.79513   0.25000   0.00000  Uiso   1.00
O659   O     0.49884   0.93817   0.37498   0.00000  Uiso   1.00
O660   O     0.39957   0.76603   0.32730   0.00000  Uiso   1.00
O661   O     0.33673   0.72362   0.31053   0.00000  Uiso   1.00
O662   O     0.39958   0.71377   0.25775   0.00000  Uiso   1.00
O663   O     0.60502   0.90144   0.32659   0.00000  Uiso   1.00
O664   O     0.66587   0.94441   0.30514   0.00000  Uiso   1.00
O665   O     0.59892   0.95336   0.25787   0.00000  Uiso   1.00
O666   O     0.66293   0.72027   0.19455   0.00000  Uiso   1.00
O667   O     0.60214   0.71711   0.24306   0.00000  Uiso   1.00
O668   O     0.59808   0.76468   0.17002   0.00000  Uiso   1.00
O669   O     0.56108   0.87154   0.25000   0.00000  Uiso   1.00
O670   O     0.40163   0.89777   0.17146   0.00000  Uiso   1.00
O671   O     0.33739   0.93892   0.18289   0.00000  Uiso   1.00
O672   O     0.39806   0.95323   0.23833   0.00000  Uiso   1.00
O673   O     0.43892   0.79513   0.24999   0.00000  Uiso   1.00
O674   O     0.50000   0.87155   0.18453   0.00000  Uiso   1.00
O675   O     0.50000   0.79511   0.31547   0.00000  Uiso   1.00
O676   O     0.50000   0.87155   0.31547   0.00000  Uiso   1.00
O677   O     0.50000   0.79511   0.18453   0.00000  Uiso   1.00
O678   O     0.50423   0.72596   0.37148   0.00000  Uiso   1.00
S679   S     0.53340   0.70852   0.33645   0.00000  Uiso   1.00
S680   S     0.53435   0.95760   0.16423   0.00000  Uiso   1.00
S681   S     0.46752   0.70847   0.16309   0.00000  Uiso   1.00
S682   S     0.46602   0.95790   0.33582   0.00000  Uiso   1.00
S683   S     0.37234   0.74855   0.29016   0.00000  Uiso   1.00
S684   S     0.62930   0.91885   0.28736   0.00000  Uiso   1.00
S685   S     0.62740   0.74659   0.21314   0.00000  Uiso   1.00
S686   S     0.37274   0.91621   0.20634   0.00000  Uiso   1.00
Zn687  Zn    0.50000   0.88437   0.25000   0.00000  Uiso   1.00
Zn688  Zn    0.50000   0.78229   0.25000   0.00000  Uiso   1.00
C689   C     0.75349   0.83327   0.24993   0.00000  Uiso   1.00
C690   C     0.97963   0.87349   0.25364   0.00000  Uiso   1.00
C691   C     0.97936   0.79303   0.24426   0.00000  Uiso   1.00
C692   C     0.68725   0.87265   0.24090   0.00000  Uiso   1.00
C693   C     0.86848   0.84805   0.04766   0.00000  Uiso   1.00
C694   C     0.86831   0.81844   0.45257   0.00000  Uiso   1.00
C695   C     0.79817   0.84815   0.45240   0.00000  Uiso   1.00
C696   C     0.79826   0.81835   0.04740   0.00000  Uiso   1.00
C697   C     0.86863   0.84757   0.09404   0.00000  Uiso   1.00
C698   C     0.86839   0.81890   0.40622   0.00000  Uiso   1.00
C699   C     0.79805   0.84776   0.40601   0.00000  Uiso   1.00
C700   C     0.91318   0.83334   0.24978   0.00000  Uiso   1.00
C701   C     0.79822   0.81872   0.09377   0.00000  Uiso   1.00
C702   C     0.83342   0.83316   0.11668   0.00000  Uiso   1.00
C703   C     0.83323   0.83334   0.38334   0.00000  Uiso   1.00
C704   C     0.83333   0.83325   0.02428   0.00000  Uiso   1.00
C705   C     0.83326   0.83329   0.47574   0.00000  Uiso   1.00
C706   C     0.95751   0.83330   0.24912   0.00000  Uiso   1.00
C707   C     0.70914   0.83308   0.24938   0.00000  Uiso   1.00
C708   C     0.83336   0.83329   0.16437   0.00000  Uiso   1.00
C709   C     0.83329   0.83335   0.33563   0.00000  Uiso   1.00
C710   C     0.83840   0.68961   0.28879   0.00000  Uiso   1.00
C711   C     0.83919   0.97702   0.21135   0.00000  Uiso   1.00
C712   C     0.82859   0.68949   0.21112   0.00000  Uiso   1.00
C713   C     0.82773   0.97716   0.28864   0.00000  Uiso   1.00
C714   C     0.68703   0.79340   0.25705   0.00000  Uiso   1.00
H715   H     0.89553   0.86021   0.03011   0.00000  Uiso   1.00
H716   H     0.84926   0.94344   0.09562   0.00000  Uiso   1.00
H717   H     0.74299   0.74368   0.15423   0.00000  Uiso   1.00
H718   H     0.81826   0.94331   0.40414   0.00000  Uiso   1.00
H719   H     0.74883   0.69544   0.27918   0.00000  Uiso   1.00
H720   H     0.95111   0.96824   0.23658   0.00000  Uiso   1.00
H721   H     0.90617   0.74606   0.17041   0.00000  Uiso   1.00
H722   H     0.74837   0.97042   0.21693   0.00000  Uiso   1.00
H723   H     0.89539   0.80636   0.47028   0.00000  Uiso   1.00
H724   H     0.77114   0.86030   0.46999   0.00000  Uiso   1.00
H725   H     0.77114   0.80631   0.02966   0.00000  Uiso   1.00
H726   H     0.89589   0.85857   0.11223   0.00000  Uiso   1.00
H727   H     0.89573   0.80826   0.38827   0.00000  Uiso   1.00
H728   H     0.77084   0.85882   0.38784   0.00000  Uiso   1.00
H729   H     0.77087   0.80803   0.11170   0.00000  Uiso   1.00
H730   H     0.92380   0.74508   0.34592   0.00000  Uiso   1.00
N731   N     0.83333   0.95240   0.25000   0.00000  Uiso   1.00
N732   N     0.83333   0.71427   0.25000   0.00000  Uiso   1.00
O733   O     0.77226   0.87154   0.24999   0.00000  Uiso   1.00
O734   O     0.89003   0.66996   0.35611   0.00000  Uiso   1.00
O735   O     0.90154   0.74766   0.32311   0.00000  Uiso   1.00
O736   O     0.89188   0.99562   0.14485   0.00000  Uiso   1.00
O737   O     0.89796   0.92210   0.17702   0.00000  Uiso   1.00
O738   O     0.83497   0.93846   0.12458   0.00000  Uiso   1.00
O739   O     0.83038   0.72664   0.12881   0.00000  Uiso   1.00
O740   O     0.77816   0.67000   0.14226   0.00000  Uiso   1.00
O741   O     0.76553   0.74701   0.17663   0.00000  Uiso   1.00
O742   O     0.77581   0.99605   0.35588   0.00000  Uiso   1.00
O743   O     0.76857   0.92289   0.32269   0.00000  Uiso   1.00
O744   O     0.89441   0.79513   0.25000   0.00000  Uiso   1.00
O745   O     0.83217   0.93817   0.37498   0.00000  Uiso   1.00
O746   O     0.73290   0.76603   0.32730   0.00000  Uiso   1.00
O747   O     0.67006   0.72362   0.31053   0.00000  Uiso   1.00
O748   O     0.73292   0.71377   0.25775   0.00000  Uiso   1.00
O749   O     0.93835   0.90144   0.32659   0.00000  Uiso   1.00
O750   O     0.99920   0.94441   0.30514   0.00000  Uiso   1.00
O751   O     0.93226   0.95336   0.25787   0.00000  Uiso   1.00
O752   O     0.99627   0.72027   0.19455   0.00000  Uiso   1.00
O753   O     0.93547   0.71711   0.24306   0.00000  Uiso   1.00
O754   O     0.93141   0.76468   0.17002   0.00000  Uiso   1.00
O755   O     0.89441   0.87154   0.25000   0.00000  Uiso   1.00
O756   O     0.73496   0.89777   0.17146   0.00000  Uiso   1.00
O757   O     0.67072   0.93892   0.18289   0.00000  Uiso   1.00
O758   O     0.73139   0.95323   0.23833   0.00000  Uiso   1.00
O759   O     0.77226   0.79513   0.24999   0.00000  Uiso   1.00
O760   O     0.83333   0.87155   0.18453   0.00000  Uiso   1.00
O761   O     0.83334   0.79511   0.31547   0.00000  Uiso   1.00
O762   O     0.83334   0.87155   0.31547   0.00000  Uiso   1.00
O763   O     0.83333   0.79511   0.18453   0.00000  Uiso   1.00
O764   O     0.83756   0.72596   0.37148   0.00000  Uiso   1.00
S765   S     0.86674   0.70852   0.33645   0.00000  Uiso   1.00
S766   S     0.86769   0.95760   0.16423   0.00000  Uiso   1.00
S767   S     0.80085   0.70847   0.16309   0.00000  Uiso   1.00
S768   S     0.79936   0.95790   0.33582   0.00000  Uiso   1.00
S769   S     0.70568   0.74855   0.29016   0.00000  Uiso   1.00
S770   S     0.96264   0.91885   0.28736   0.00000  Uiso   1.00
S771   S     0.96073   0.74659   0.21314   0.00000  Uiso   1.00
S772   S     0.70607   0.91621   0.20634   0.00000  Uiso   1.00
Zn773  Zn    0.83333   0.88437   0.25000   0.00000  Uiso   1.00
Zn774  Zn    0.83333   0.78229   0.25000   0.00000  Uiso   1.00
C775   C     0.08683   0.16660   0.74993   0.00000  Uiso   1.00
C776   C     0.31296   0.20683   0.75364   0.00000  Uiso   1.00
C777   C     0.31269   0.12636   0.74426   0.00000  Uiso   1.00
C778   C     0.02059   0.20598   0.74090   0.00000  Uiso   1.00
C779   C     0.20181   0.18138   0.54766   0.00000  Uiso   1.00
C780   C     0.20164   0.15177   0.95257   0.00000  Uiso   1.00
C781   C     0.13150   0.18149   0.95240   0.00000  Uiso   1.00
C782   C     0.13159   0.15168   0.54740   0.00000  Uiso   1.00
C783   C     0.20196   0.18090   0.59404   0.00000  Uiso   1.00
C784   C     0.20172   0.15223   0.90622   0.00000  Uiso   1.00
C785   C     0.13139   0.18109   0.90601   0.00000  Uiso   1.00
C786   C     0.24651   0.16667   0.74978   0.00000  Uiso   1.00
C787   C     0.13155   0.15206   0.59377   0.00000  Uiso   1.00
C788   C     0.16675   0.16650   0.61668   0.00000  Uiso   1.00
C789   C     0.16657   0.16667   0.88334   0.00000  Uiso   1.00
C790   C     0.16666   0.16658   0.52428   0.00000  Uiso   1.00
C791   C     0.16659   0.16662   0.97574   0.00000  Uiso   1.00
C792   C     0.29085   0.16664   0.74912   0.00000  Uiso   1.00
C793   C     0.04248   0.16641   0.74938   0.00000  Uiso   1.00
C794   C     0.16670   0.16663   0.66437   0.00000  Uiso   1.00
C795   C     0.16662   0.16668   0.83563   0.00000  Uiso   1.00
C796   C     0.17174   0.02294   0.78879   0.00000  Uiso   1.00
C797   C     0.17252   0.31036   0.71135   0.00000  Uiso   1.00
C798   C     0.16192   0.02283   0.71112   0.00000  Uiso   1.00
C799   C     0.16107   0.31049   0.78864   0.00000  Uiso   1.00
C800   C     0.02037   0.12673   0.75705   0.00000  Uiso   1.00
H801   H     0.22887   0.19354   0.53011   0.00000  Uiso   1.00
H802   H     0.18259   0.27677   0.59562   0.00000  Uiso   1.00
H803   H     0.07633   0.07702   0.65423   0.00000  Uiso   1.00
H804   H     0.15159   0.27664   0.90414   0.00000  Uiso   1.00
H805   H     0.08217   0.02878   0.77918   0.00000  Uiso   1.00
H806   H     0.28444   0.30158   0.73658   0.00000  Uiso   1.00
H807   H     0.23950   0.07940   0.67041   0.00000  Uiso   1.00
H808   H     0.08170   0.30376   0.71693   0.00000  Uiso   1.00
H809   H     0.22873   0.13969   0.97028   0.00000  Uiso   1.00
H810   H     0.10447   0.19363   0.96999   0.00000  Uiso   1.00
H811   H     0.10447   0.13964   0.52966   0.00000  Uiso   1.00
H812   H     0.22923   0.19190   0.61223   0.00000  Uiso   1.00
H813   H     0.22906   0.14159   0.88827   0.00000  Uiso   1.00
H814   H     0.10418   0.19215   0.88784   0.00000  Uiso   1.00
H815   H     0.10421   0.14136   0.61170   0.00000  Uiso   1.00
H816   H     0.25713   0.07842   0.84592   0.00000  Uiso   1.00
N817   N     0.16667   0.28573   0.75000   0.00000  Uiso   1.00
N818   N     0.16667   0.04760   0.75000   0.00000  Uiso   1.00
O819   O     0.10559   0.20487   0.74999   0.00000  Uiso   1.00
O820   O     0.22336   0.00330   0.85611   0.00000  Uiso   1.00
O821   O     0.23488   0.08100   0.82311   0.00000  Uiso   1.00
O822   O     0.22521   0.32895   0.64485   0.00000  Uiso   1.00
O823   O     0.23129   0.25543   0.67702   0.00000  Uiso   1.00
O824   O     0.16830   0.27179   0.62458   0.00000  Uiso   1.00
O825   O     0.16371   0.05997   0.62881   0.00000  Uiso   1.00
O826   O     0.11149   0.00333   0.64226   0.00000  Uiso   1.00
O827   O     0.09887   0.08034   0.67663   0.00000  Uiso   1.00
O828   O     0.10914   0.32938   0.85588   0.00000  Uiso   1.00
O829   O     0.10190   0.25622   0.82269   0.00000  Uiso   1.00
O830   O     0.22774   0.12846   0.75000   0.00000  Uiso   1.00
O831   O     0.16550   0.27150   0.87498   0.00000  Uiso   1.00
O832   O     0.06623   0.09936   0.82730   0.00000  Uiso   1.00
O833   O     0.00339   0.05695   0.81053   0.00000  Uiso   1.00
O834   O     0.06625   0.04711   0.75775   0.00000  Uiso   1.00
O835   O     0.27169   0.23477   0.82659   0.00000  Uiso   1.00
O836   O     0.33253   0.27774   0.80514   0.00000  Uiso   1.00
O837   O     0.26559   0.28669   0.75787   0.00000  Uiso   1.00
O838   O     0.32960   0.05360   0.69455   0.00000  Uiso   1.00
O839   O     0.26881   0.05044   0.74306   0.00000  Uiso   1.00
O840   O     0.26474   0.09801   0.67002   0.00000  Uiso   1.00
O841   O     0.22774   0.20487   0.75000   0.00000  Uiso   1.00
O842   O     0.06830   0.23110   0.67146   0.00000  Uiso   1.00
O843   O     0.00406   0.27225   0.68289   0.00000  Uiso   1.00
O844   O     0.06473   0.28656   0.73833   0.00000  Uiso   1.00
O845   O     0.10559   0.12846   0.74999   0.00000  Uiso   1.00
O846   O     0.16666   0.20489   0.68453   0.00000  Uiso   1.00
O847   O     0.16667   0.12845   0.81547   0.00000  Uiso   1.00
O848   O     0.16667   0.20489   0.81547   0.00000  Uiso   1.00
O849   O     0.16666   0.12845   0.68453   0.00000  Uiso   1.00
O850   O     0.17089   0.05930   0.87148   0.00000  Uiso   1.00
S851   S     0.20007   0.04186   0.83645   0.00000  Uiso   1.00
S852   S     0.20102   0.29093   0.66423   0.00000  Uiso   1.00
S853   S     0.13419   0.04181   0.66309   0.00000  Uiso   1.00
S854   S     0.13269   0.29123   0.83582   0.00000  Uiso   1.00
S855   S     0.03901   0.08188   0.79016   0.00000  Uiso   1.00
S856   S     0.29597   0.25218   0.78736   0.00000  Uiso   1.00
S857   S     0.29406   0.07993   0.71314   0.00000  Uiso   1.00
S858   S     0.03941   0.24954   0.70634   0.00000  Uiso   1.00
Zn859  Zn    0.16667   0.21771   0.75000   0.00000  Uiso   1.00
Zn860  Zn    0.16667   0.11563   0.75000   0.00000  Uiso   1.00
C861   C     0.42016   0.16660   0.74993   0.00000  Uiso   1.00
C862   C     0.64630   0.20683   0.75364   0.00000  Uiso   1.00
C863   C     0.64603   0.12636   0.74426   0.00000  Uiso   1.00
C864   C     0.35392   0.20598   0.74090   0.00000  Uiso   1.00
C865   C     0.53515   0.18138   0.54766   0.00000  Uiso   1.00
C866   C     0.53498   0.15177   0.95257   0.00000  Uiso   1.00
C867   C     0.46483   0.18149   0.95240   0.00000  Uiso   1.00
C868   C     0.46493   0.15168   0.54740   0.00000  Uiso   1.00
C869   C     0.53530   0.18090   0.59404   0.00000  Uiso   1.00
C870   C     0.53506   0.15223   0.90622   0.00000  Uiso   1.00
C871   C     0.46472   0.18109   0.90601   0.00000  Uiso   1.00
C872   C     0.57984   0.16667   0.74978   0.00000  Uiso   1.00
C873   C     0.46488   0.15206   0.59377   0.00000  Uiso   1.00
C874   C     0.50009   0.16650   0.61668   0.00000  Uiso   1.00
C875   C     0.49990   0.16667   0.88334   0.00000  Uiso   1.00
C876   C     0.50000   0.16658   0.52428   0.00000  Uiso   1.00
C877   C     0.49993   0.16662   0.97574   0.00000  Uiso   1.00
C878   C     0.62418   0.16664   0.74912   0.00000  Uiso   1.00
C879   C     0.37581   0.16641   0.74938   0.00000  Uiso   1.00
C880   C     0.50003   0.16663   0.66437   0.00000  Uiso   1.00
C881   C     0.49995   0.16668   0.83563   0.00000  Uiso   1.00
C882   C     0.50507   0.02294   0.78879   0.00000  Uiso   1.00
C883   C     0.50586   0.31036   0.71135   0.00000  Uiso   1.00
C884   C     0.49526   0.02283   0.71112   0.00000  Uiso   1.00
C885   C     0.49440   0.31049   0.78864   0.00000  Uiso   1.00
C886   C     0.35370   0.12673   0.75705   0.00000  Uiso   1.00
H887   H     0.56220   0.19354   0.53011   0.00000  Uiso   1.00
H888   H     0.51593   0.27677   0.59562   0.00000  Uiso   1.00
H889   H     0.40966   0.07702   0.65423   0.00000  Uiso   1.00
H890   H     0.48493   0.27664   0.90414   0.00000  Uiso   1.00
H891   H     0.41550   0.02878   0.77918   0.00000  Uiso   1.00
H892   H     0.61778   0.30158   0.73658   0.00000  Uiso   1.00
H893   H     0.57283   0.07940   0.67041   0.00000  Uiso   1.00
H894   H     0.41503   0.30376   0.71693   0.00000  Uiso   1.00
H895   H     0.56206   0.13969   0.97028   0.00000  Uiso   1.00
H896   H     0.43780   0.19363   0.96999   0.00000  Uiso   1.00
H897   H     0.43781   0.13964   0.52966   0.00000  Uiso   1.00
H898   H     0.56256   0.19190   0.61223   0.00000  Uiso   1.00
H899   H     0.56240   0.14159   0.88827   0.00000  Uiso   1.00
H900   H     0.43751   0.19215   0.88784   0.00000  Uiso   1.00
H901   H     0.43754   0.14136   0.61170   0.00000  Uiso   1.00
H902   H     0.59047   0.07842   0.84592   0.00000  Uiso   1.00
N903   N     0.50000   0.28573   0.75000   0.00000  Uiso   1.00
N904   N     0.50000   0.04760   0.75000   0.00000  Uiso   1.00
O905   O     0.43892   0.20487   0.74999   0.00000  Uiso   1.00
O906   O     0.55669   0.00330   0.85611   0.00000  Uiso   1.00
O907   O     0.56821   0.08100   0.82311   0.00000  Uiso   1.00
O908   O     0.55854   0.32895   0.64485   0.00000  Uiso   1.00
O909   O     0.56463   0.25543   0.67702   0.00000  Uiso   1.00
O910   O     0.50163   0.27179   0.62458   0.00000  Uiso   1.00
O911   O     0.49705   0.05997   0.62881   0.00000  Uiso   1.00
O912   O     0.44482   0.00333   0.64226   0.00000  Uiso   1.00
O913   O     0.43220   0.08034   0.67663   0.00000  Uiso   1.00
O914   O     0.44247   0.32938   0.85588   0.00000  Uiso   1.00
O915   O     0.43523   0.25622   0.82269   0.00000  Uiso   1.00
O916   O     0.56108   0.12846   0.75000   0.00000  Uiso   1.00
O917   O     0.49884   0.27150   0.87498   0.00000  Uiso   1.00
O918   O     0.39957   0.09936   0.82730   0.00000  Uiso   1.00
O919   O     0.33673   0.05695   0.81053   0.00000  Uiso   1.00
O920   O     0.39958   0.04711   0.75775   0.00000  Uiso   1.00
O921   O     0.60502   0.23477   0.82659   0.00000  Uiso   1.00
O922   O     0.66587   0.27774   0.80514   0.00000  Uiso   1.00
O923   O     0.59892   0.28669   0.75787   0.00000  Uiso   1.00
O924   O     0.66293   0.05360   0.69455   0.00000  Uiso   1.00
O925   O     0.60214   0.05044   0.74306   0.00000  Uiso   1.00
O926   O     0.59808   0.09801   0.67002   0.00000  Uiso   1.00
O927   O     0.56108   0.20487   0.75000   0.00000  Uiso   1.00
O928   O     0.40163   0.23110   0.67146   0.00000  Uiso   1.00
O929   O     0.33739   0.27225   0.68289   0.00000  Uiso   1.00
O930   O     0.39806   0.28656   0.73833   0.00000  Uiso   1.00
O931   O     0.43892   0.12846   0.74999   0.00000  Uiso   1.00
O932   O     0.50000   0.20489   0.68453   0.00000  Uiso   1.00
O933   O     0.50000   0.12845   0.81547   0.00000  Uiso   1.00
O934   O     0.50000   0.20489   0.81547   0.00000  Uiso   1.00
O935   O     0.50000   0.12845   0.68453   0.00000  Uiso   1.00
O936   O     0.50423   0.05930   0.87148   0.00000  Uiso   1.00
S937   S     0.53340   0.04186   0.83645   0.00000  Uiso   1.00
S938   S     0.53435   0.29093   0.66423   0.00000  Uiso   1.00
S939   S     0.46752   0.04181   0.66309   0.00000  Uiso   1.00
S940   S     0.46602   0.29123   0.83582   0.00000  Uiso   1.00
S941   S     0.37234   0.08188   0.79016   0.00000  Uiso   1.00
S942   S     0.62930   0.25218   0.78736   0.00000  Uiso   1.00
S943   S     0.62740   0.07993   0.71314   0.00000  Uiso   1.00
S944   S     0.37274   0.24954   0.70634   0.00000  Uiso   1.00
Zn945  Zn    0.50000   0.21771   0.75000   0.00000  Uiso   1.00
Zn946  Zn    0.50000   0.11563   0.75000   0.00000  Uiso   1.00
C947   C     0.75349   0.16660   0.74993   0.00000  Uiso   1.00
C948   C     0.97963   0.20683   0.75364   0.00000  Uiso   1.00
C949   C     0.97936   0.12636   0.74426   0.00000  Uiso   1.00
C950   C     0.68725   0.20598   0.74090   0.00000  Uiso   1.00
C951   C     0.86848   0.18138   0.54766   0.00000  Uiso   1.00
C952   C     0.86831   0.15177   0.95257   0.00000  Uiso   1.00
C953   C     0.79817   0.18149   0.95240   0.00000  Uiso   1.00
C954   C     0.79826   0.15168   0.54740   0.00000  Uiso   1.00
C955   C     0.86863   0.18090   0.59404   0.00000  Uiso   1.00
C956   C     0.86839   0.15223   0.90622   0.00000  Uiso   1.00
C957   C     0.79805   0.18109   0.90601   0.00000  Uiso   1.00
C958   C     0.91318   0.16667   0.74978   0.00000  Uiso   1.00
C959   C     0.79822   0.15206   0.59377   0.00000  Uiso   1.00
C960   C     0.83342   0.16650   0.61668   0.00000  Uiso   1.00
C961   C     0.83323   0.16667   0.88334   0.00000  Uiso   1.00
C962   C     0.83333   0.16658   0.52428   0.00000  Uiso   1.00
C963   C     0.83326   0.16662   0.97574   0.00000  Uiso   1.00
C964   C     0.95751   0.16664   0.74912   0.00000  Uiso   1.00
C965   C     0.70914   0.16641   0.74938   0.00000  Uiso   1.00
C966   C     0.83336   0.16663   0.66437   0.00000  Uiso   1.00
C967   C     0.83329   0.16668   0.83563   0.00000  Uiso   1.00
C968   C     0.83840   0.02294   0.78879   0.00000  Uiso   1.00
C969   C     0.83919   0.31036   0.71135   0.00000  Uiso   1.00
C970   C     0.82859   0.02283   0.71112   0.00000  Uiso   1.00
C971   C     0.82773   0.31049   0.78864   0.00000  Uiso   1.00
C972   C     0.68703   0.12673   0.75705   0.00000  Uiso   1.00
H973   H     0.89553   0.19354   0.53011   0.00000  Uiso   1.00
H974   H     0.84926   0.27677   0.59562   0.00000  Uiso   1.00
H975   H     0.74299   0.07702   0.65423   0.00000  Uiso   1.00
H976   H     0.81826   0.27664   0.90414   0.00000  Uiso   1.00
H977   H     0.74883   0.02878   0.77918   0.00000  Uiso   1.00
H978   H     0.95111   0.30158   0.73658   0.00000  Uiso   1.00
H979   H     0.90617   0.07940   0.67041   0.00000  Uiso   1.00
H980   H     0.74837   0.30376   0.71693   0.00000  Uiso   1.00
H981   H     0.89539   0.13969   0.97028   0.00000  Uiso   1.00
H982   H     0.77114   0.19363   0.96999   0.00000  Uiso   1.00
H983   H     0.77114   0.13964   0.52966   0.00000  Uiso   1.00
H984   H     0.89589   0.19190   0.61223   0.00000  Uiso   1.00
H985   H     0.89573   0.14159   0.88827   0.00000  Uiso   1.00
H986   H     0.77084   0.19215   0.88784   0.00000  Uiso   1.00
H987   H     0.77087   0.14136   0.61170   0.00000  Uiso   1.00
H988   H     0.92380   0.07842   0.84592   0.00000  Uiso   1.00
N989   N     0.83333   0.28573   0.75000   0.00000  Uiso   1.00
N990   N     0.83333   0.04760   0.75000   0.00000  Uiso   1.00
O991   O     0.77226   0.20487   0.74999   0.00000  Uiso   1.00
O992   O     0.89003   0.00330   0.85611   0.00000  Uiso   1.00
O993   O     0.90154   0.08100   0.82311   0.00000  Uiso   1.00
O994   O     0.89188   0.32895   0.64485   0.00000  Uiso   1.00
O995   O     0.89796   0.25543   0.67702   0.00000  Uiso   1.00
O996   O     0.83497   0.27179   0.62458   0.00000  Uiso   1.00
O997   O     0.83038   0.05997   0.62881   0.00000  Uiso   1.00
O998   O     0.77816   0.00333   0.64226   0.00000  Uiso   1.00
O999   O     0.76553   0.08034   0.67663   0.00000  Uiso   1.00
O1000  O     0.77581   0.32938   0.85588   0.00000  Uiso   1.00
O1001  O     0.76857   0.25622   0.82269   0.00000  Uiso   1.00
O1002  O     0.89441   0.12846   0.75000   0.00000  Uiso   1.00
O1003  O     0.83217   0.27150   0.87498   0.00000  Uiso   1.00
O1004  O     0.73290   0.09936   0.82730   0.00000  Uiso   1.00
O1005  O     0.67006   0.05695   0.81053   0.00000  Uiso   1.00
O1006  O     0.73292   0.04711   0.75775   0.00000  Uiso   1.00
O1007  O     0.93835   0.23477   0.82659   0.00000  Uiso   1.00
O1008  O     0.99920   0.27774   0.80514   0.00000  Uiso   1.00
O1009  O     0.93226   0.28669   0.75787   0.00000  Uiso   1.00
O1010  O     0.99627   0.05360   0.69455   0.00000  Uiso   1.00
O1011  O     0.93547   0.05044   0.74306   0.00000  Uiso   1.00
O1012  O     0.93141   0.09801   0.67002   0.00000  Uiso   1.00
O1013  O     0.89441   0.20487   0.75000   0.00000  Uiso   1.00
O1014  O     0.73496   0.23110   0.67146   0.00000  Uiso   1.00
O1015  O     0.67072   0.27225   0.68289   0.00000  Uiso   1.00
O1016  O     0.73139   0.28656   0.73833   0.00000  Uiso   1.00
O1017  O     0.77226   0.12846   0.74999   0.00000  Uiso   1.00
O1018  O     0.83333   0.20489   0.68453   0.00000  Uiso   1.00
O1019  O     0.83334   0.12845   0.81547   0.00000  Uiso   1.00
O1020  O     0.83334   0.20489   0.81547   0.00000  Uiso   1.00
O1021  O     0.83333   0.12845   0.68453   0.00000  Uiso   1.00
O1022  O     0.83756   0.05930   0.87148   0.00000  Uiso   1.00
S1023  S     0.86674   0.04186   0.83645   0.00000  Uiso   1.00
S1024  S     0.86769   0.29093   0.66423   0.00000  Uiso   1.00
S1025  S     0.80085   0.04181   0.66309   0.00000  Uiso   1.00
S1026  S     0.79936   0.29123   0.83582   0.00000  Uiso   1.00
S1027  S     0.70568   0.08188   0.79016   0.00000  Uiso   1.00
S1028  S     0.96264   0.25218   0.78736   0.00000  Uiso   1.00
S1029  S     0.96073   0.07993   0.71314   0.00000  Uiso   1.00
S1030  S     0.70607   0.24954   0.70634   0.00000  Uiso   1.00
Zn1031 Zn    0.83333   0.21771   0.75000   0.00000  Uiso   1.00
Zn1032 Zn    0.83333   0.11563   0.75000   0.00000  Uiso   1.00
C1033  C     0.08683   0.49993   0.74993   0.00000  Uiso   1.00
C1034  C     0.31296   0.54016   0.75364   0.00000  Uiso   1.00
C1035  C     0.31269   0.45969   0.74426   0.00000  Uiso   1.00
C1036  C     0.02059   0.53932   0.74090   0.00000  Uiso   1.00
C1037  C     0.20181   0.51471   0.54766   0.00000  Uiso   1.00
C1038  C     0.20164   0.48510   0.95257   0.00000  Uiso   1.00
C1039  C     0.13150   0.51482   0.95240   0.00000  Uiso   1.00
C1040  C     0.13159   0.48502   0.54740   0.00000  Uiso   1.00
C1041  C     0.20196   0.51424   0.59404   0.00000  Uiso   1.00
C1042  C     0.20172   0.48556   0.90622   0.00000  Uiso   1.00
C1043  C     0.13139   0.51443   0.90601   0.00000  Uiso   1.00
C1044  C     0.24651   0.50001   0.74978   0.00000  Uiso   1.00
C1045  C     0.13155   0.48539   0.59377   0.00000  Uiso   1.00
C1046  C     0.16675   0.49983   0.61668   0.00000  Uiso   1.00
C1047  C     0.16657   0.50000   0.88334   0.00000  Uiso   1.00
C1048  C     0.16666   0.49991   0.52428   0.00000  Uiso   1.00
C1049  C     0.16659   0.49995   0.97574   0.00000  Uiso   1.00
C1050  C     0.29085   0.49997   0.74912   0.00000  Uiso   1.00
C1051  C     0.04248   0.49975   0.74938   0.00000  Uiso   1.00
C1052  C     0.16670   0.49996   0.66437   0.00000  Uiso   1.00
C1053  C     0.16662   0.50002   0.83563   0.00000  Uiso   1.00
C1054  C     0.17174   0.35627   0.78879   0.00000  Uiso   1.00
C1055  C     0.17252   0.64369   0.71135   0.00000  Uiso   1.00
C1056  C     0.16192   0.35616   0.71112   0.00000  Uiso   1.00
C1057  C     0.16107   0.64383   0.78864   0.00000  Uiso   1.00
C1058  C     0.02037   0.46007   0.75705   0.00000  Uiso   1.00
H1059  H     0.22887   0.52687   0.53011   0.00000  Uiso   1.00
H1060  H     0.18259   0.61011   0.59562   0.00000  Uiso   1.00
H1061  H     0.07633   0.41035   0.65423   0.00000  Uiso   1.00
H1062  H     0.15159   0.60997   0.90414   0.00000  Uiso   1.00
H1063  H     0.08217   0.36211   0.77918   0.00000  Uiso   1.00
H1064  H     0.28444   0.63491   0.73658   0.00000  Uiso   1.00
H1065  H     0.23950   0.41273   0.67041   0.00000  Uiso   1.00
H1066  H     0.08170   0.63709   0.71693   0.00000  Uiso   1.00
H1067  H     0.22873   0.47302   0.97028   0.00000  Uiso   1.00
H1068  H     0.10447   0.52696   0.96999   0.00000  Uiso   1.00
H1069  H     0.10447   0.47297   0.52966   0.00000  Uiso   1.00
H1070  H     0.22923   0.52524   0.61223   0.00000  Uiso   1.00
H1071  H     0.22906   0.47492   0.88827   0.00000  Uiso   1.00
H1072  H     0.10418   0.52549   0.88784   0.00000  Uiso   1.00
H1073  H     0.10421   0.47470   0.61170   0.00000  Uiso   1.00
H1074  H     0.25713   0.41175   0.84592   0.00000  Uiso   1.00
N1075  N     0.16667   0.61907   0.75000   0.00000  Uiso   1.00
N1076  N     0.16667   0.38093   0.75000   0.00000  Uiso   1.00
O1077  O     0.10559   0.53821   0.74999   0.00000  Uiso   1.00
O1078  O     0.22336   0.33663   0.85611   0.00000  Uiso   1.00
O1079  O     0.23488   0.41433   0.82311   0.00000  Uiso   1.00
O1080  O     0.22521   0.66228   0.64485   0.00000  Uiso   1.00
O1081  O     0.23129   0.58876   0.67702   0.00000  Uiso   1.00
O1082  O     0.16830   0.60513   0.62458   0.00000  Uiso   1.00
O1083  O     0.16371   0.39331   0.62881   0.00000  Uiso   1.00
O1084  O     0.11149   0.33667   0.64226   0.00000  Uiso   1.00
O1085  O     0.09887   0.41368   0.67663   0.00000  Uiso   1.00
O1086  O     0.10914   0.66271   0.85588   0.00000  Uiso   1.00
O1087  O     0.10190   0.58956   0.82269   0.00000  Uiso   1.00
O1088  O     0.22774   0.46179   0.75000   0.00000  Uiso   1.00
O1089  O     0.16550   0.60483   0.87498   0.00000  Uiso   1.00
O1090  O     0.06623   0.43270   0.82730   0.00000  Uiso   1.00
O1091  O     0.00339   0.39028   0.81053   0.00000  Uiso   1.00
O1092  O     0.06625   0.38044   0.75775   0.00000  Uiso   1.00
O1093  O     0.27169   0.56811   0.82659   0.00000  Uiso   1.00
O1094  O     0.33253   0.61107   0.80514   0.00000  Uiso   1.00
O1095  O     0.26559   0.62003   0.75787   0.00000  Uiso   1.00
O1096  O     0.32960   0.38693   0.69455   0.00000  Uiso   1.00
O1097  O     0.26881   0.38377   0.74306   0.00000  Uiso   1.00
O1098  O     0.26474   0.43135   0.67002   0.00000  Uiso   1.00
O1099  O     0.22774   0.53821   0.75000   0.00000  Uiso   1.00
O1100  O     0.06830   0.56443   0.67146   0.00000  Uiso   1.00
O1101  O     0.00406   0.60559   0.68289   0.00000  Uiso   1.00
O1102  O     0.06473   0.61989   0.73833   0.00000  Uiso   1.00
O1103  O     0.10559   0.46179   0.74999   0.00000  Uiso   1.00
O1104  O     0.16666   0.53822   0.68453   0.00000  Uiso   1.00
O1105  O     0.16667   0.46178   0.81547   0.00000  Uiso   1.00
O1106  O     0.16667   0.53822   0.81547   0.00000  Uiso   1.00
O1107  O     0.16666   0.46178   0.68453   0.00000  Uiso   1.00
O1108  O     0.17089   0.39263   0.87148   0.00000  Uiso   1.00
S1109  S     0.20007   0.37519   0.83645   0.00000  Uiso   1.00
S1110  S     0.20102   0.62427   0.66423   0.00000  Uiso   1.00
S1111  S     0.13419   0.37514   0.66309   0.00000  Uiso   1.00
S1112  S     0.13269   0.62456   0.83582   0.00000  Uiso   1.00
S1113  S     0.03901   0.41522   0.79016   0.00000  Uiso   1.00
S1114  S     0.29597   0.58552   0.78736   0.00000  Uiso   1.00
S1115  S     0.29406   0.41326   0.71314   0.00000  Uiso   1.00
S1116  S     0.03941   0.58288   0.70634   0.00000  Uiso   1.00
Zn1117 Zn    0.16667   0.55104   0.75000   0.00000  Uiso   1.00
Zn1118 Zn    0.16667   0.44896   0.75000   0.00000  Uiso   1.00
C1119  C     0.42016   0.49993   0.74993   0.00000  Uiso   1.00
C1120  C     0.64630   0.54016   0.75364   0.00000  Uiso   1.00
C1121  C     0.64603   0.45969   0.74426   0.00000  Uiso   1.00
C1122  C     0.35392   0.53932   0.74090   0.00000  Uiso   1.00
C1123  C     0.53515   0.51471   0.54766   0.00000  Uiso   1.00
C1124  C     0.53498   0.48510   0.95257   0.00000  Uiso   1.00
C1125  C     0.46483   0.51482   0.95240   0.00000  Uiso   1.00
C1126  C     0.46493   0.48502   0.54740   0.00000  Uiso   1.00
C1127  C     0.53530   0.51424   0.59404   0.00000  Uiso   1.00
C1128  C     0.53506   0.48556   0.90622   0.00000  Uiso   1.00
C1129  C     0.46472   0.51443   0.90601   0.00000  Uiso   1.00
C1130  C     0.57984   0.50001   0.74978   0.00000  Uiso   1.00
C1131  C     0.46488   0.48539   0.59377   0.00000  Uiso   1.00
C1132  C     0.50009   0.49983   0.61668   0.00000  Uiso   1.00
C1133  C     0.49990   0.50000   0.88334   0.00000  Uiso   1.00
C1134  C     0.50000   0.49991   0.52428   0.00000  Uiso   1.00
C1135  C     0.49993   0.49995   0.97574   0.00000  Uiso   1.00
C1136  C     0.62418   0.49997   0.74912   0.00000  Uiso   1.00
C1137  C     0.37581   0.49975   0.74938   0.00000  Uiso   1.00
C1138  C     0.50003   0.49996   0.66437   0.00000  Uiso   1.00
C1139  C     0.49995   0.50002   0.83563   0.00000  Uiso   1.00
C1140  C     0.50507   0.35627   0.78879   0.00000  Uiso   1.00
C1141  C     0.50586   0.64369   0.71135   0.00000  Uiso   1.00
C1142  C     0.49526   0.35616   0.71112   0.00000  Uiso   1.00
C1143  C     0.49440   0.64383   0.78864   0.00000  Uiso   1.00
C1144  C     0.35370   0.46007   0.75705   0.00000  Uiso   1.00
H1145  H     0.56220   0.52687   0.53011   0.00000  Uiso   1.00
H1146  H     0.51593   0.61011   0.59562   0.00000  Uiso   1.00
H1147  H     0.40966   0.41035   0.65423   0.00000  Uiso   1.00
H1148  H     0.48493   0.60997   0.90414   0.00000  Uiso   1.00
H1149  H     0.41550   0.36211   0.77918   0.00000  Uiso   1.00
H1150  H     0.61778   0.63491   0.73658   0.00000  Uiso   1.00
H1151  H     0.57283   0.41273   0.67041   0.00000  Uiso   1.00
H1152  H     0.41503   0.63709   0.71693   0.00000  Uiso   1.00
H1153  H     0.56206   0.47302   0.97028   0.00000  Uiso   1.00
H1154  H     0.43780   0.52696   0.96999   0.00000  Uiso   1.00
H1155  H     0.43781   0.47297   0.52966   0.00000  Uiso   1.00
H1156  H     0.56256   0.52524   0.61223   0.00000  Uiso   1.00
H1157  H     0.56240   0.47492   0.88827   0.00000  Uiso   1.00
H1158  H     0.43751   0.52549   0.88784   0.00000  Uiso   1.00
H1159  H     0.43754   0.47470   0.61170   0.00000  Uiso   1.00
H1160  H     0.59047   0.41175   0.84592   0.00000  Uiso   1.00
N1161  N     0.50000   0.61907   0.75000   0.00000  Uiso   1.00
N1162  N     0.50000   0.38093   0.75000   0.00000  Uiso   1.00
O1163  O     0.43892   0.53821   0.74999   0.00000  Uiso   1.00
O1164  O     0.55669   0.33663   0.85611   0.00000  Uiso   1.00
O1165  O     0.56821   0.41433   0.82311   0.00000  Uiso   1.00
O1166  O     0.55854   0.66228   0.64485   0.00000  Uiso   1.00
O1167  O     0.56463   0.58876   0.67702   0.00000  Uiso   1.00
O1168  O     0.50163   0.60513   0.62458   0.00000  Uiso   1.00
O1169  O     0.49705   0.39331   0.62881   0.00000  Uiso   1.00
O1170  O     0.44482   0.33667   0.64226   0.00000  Uiso   1.00
O1171  O     0.43220   0.41368   0.67663   0.00000  Uiso   1.00
O1172  O     0.44247   0.66271   0.85588   0.00000  Uiso   1.00
O1173  O     0.43523   0.58956   0.82269   0.00000  Uiso   1.00
O1174  O     0.56108   0.46179   0.75000   0.00000  Uiso   1.00
O1175  O     0.49884   0.60483   0.87498   0.00000  Uiso   1.00
O1176  O     0.39957   0.43270   0.82730   0.00000  Uiso   1.00
O1177  O     0.33673   0.39028   0.81053   0.00000  Uiso   1.00
O1178  O     0.39958   0.38044   0.75775   0.00000  Uiso   1.00
O1179  O     0.60502   0.56811   0.82659   0.00000  Uiso   1.00
O1180  O     0.66587   0.61107   0.80514   0.00000  Uiso   1.00
O1181  O     0.59892   0.62003   0.75787   0.00000  Uiso   1.00
O1182  O     0.66293   0.38693   0.69455   0.00000  Uiso   1.00
O1183  O     0.60214   0.38377   0.74306   0.00000  Uiso   1.00
O1184  O     0.59808   0.43135   0.67002   0.00000  Uiso   1.00
O1185  O     0.56108   0.53821   0.75000   0.00000  Uiso   1.00
O1186  O     0.40163   0.56443   0.67146   0.00000  Uiso   1.00
O1187  O     0.33739   0.60559   0.68289   0.00000  Uiso   1.00
O1188  O     0.39806   0.61989   0.73833   0.00000  Uiso   1.00
O1189  O     0.43892   0.46179   0.74999   0.00000  Uiso   1.00
O1190  O     0.50000   0.53822   0.68453   0.00000  Uiso   1.00
O1191  O     0.50000   0.46178   0.81547   0.00000  Uiso   1.00
O1192  O     0.50000   0.53822   0.81547   0.00000  Uiso   1.00
O1193  O     0.50000   0.46178   0.68453   0.00000  Uiso   1.00
O1194  O     0.50423   0.39263   0.87148   0.00000  Uiso   1.00
S1195  S     0.53340   0.37519   0.83645   0.00000  Uiso   1.00
S1196  S     0.53435   0.62427   0.66423   0.00000  Uiso   1.00
S1197  S     0.46752   0.37514   0.66309   0.00000  Uiso   1.00
S1198  S     0.46602   0.62456   0.83582   0.00000  Uiso   1.00
S1199  S     0.37234   0.41522   0.79016   0.00000  Uiso   1.00
S1200  S     0.62930   0.58552   0.78736   0.00000  Uiso   1.00
S1201  S     0.62740   0.41326   0.71314   0.00000  Uiso   1.00
S1202  S     0.37274   0.58288   0.70634   0.00000  Uiso   1.00
Zn1203 Zn    0.50000   0.55104   0.75000   0.00000  Uiso   1.00
Zn1204 Zn    0.50000   0.44896   0.75000   0.00000  Uiso   1.00
C1205  C     0.75349   0.49993   0.74993   0.00000  Uiso   1.00
C1206  C     0.97963   0.54016   0.75364   0.00000  Uiso   1.00
C1207  C     0.97936   0.45969   0.74426   0.00000  Uiso   1.00
C1208  C     0.68725   0.53932   0.74090   0.00000  Uiso   1.00
C1209  C     0.86848   0.51471   0.54766   0.00000  Uiso   1.00
C1210  C     0.86831   0.48510   0.95257   0.00000  Uiso   1.00
C1211  C     0.79817   0.51482   0.95240   0.00000  Uiso   1.00
C1212  C     0.79826   0.48502   0.54740   0.00000  Uiso   1.00
C1213  C     0.86863   0.51424   0.59404   0.00000  Uiso   1.00
C1214  C     0.86839   0.48556   0.90622   0.00000  Uiso   1.00
C1215  C     0.79805   0.51443   0.90601   0.00000  Uiso   1.00
C1216  C     0.91318   0.50001   0.74978   0.00000  Uiso   1.00
C1217  C     0.79822   0.48539   0.59377   0.00000  Uiso   1.00
C1218  C     0.83342   0.49983   0.61668   0.00000  Uiso   1.00
C1219  C     0.83323   0.50000   0.88334   0.00000  Uiso   1.00
C1220  C     0.83333   0.49991   0.52428   0.00000  Uiso   1.00
C1221  C     0.83326   0.49995   0.97574   0.00000  Uiso   1.00
C1222  C     0.95751   0.49997   0.74912   0.00000  Uiso   1.00
C1223  C     0.70914   0.49975   0.74938   0.00000  Uiso   1.00
C1224  C     0.83336   0.49996   0.66437   0.00000  Uiso   1.00
C1225  C     0.83329   0.50002   0.83563   0.00000  Uiso   1.00
C1226  C     0.83840   0.35627   0.78879   0.00000  Uiso   1.00
C1227  C     0.83919   0.64369   0.71135   0.00000  Uiso   1.00
C1228  C     0.82859   0.35616   0.71112   0.00000  Uiso   1.00
C1229  C     0.82773   0.64383   0.78864   0.00000  Uiso   1.00
C1230  C     0.68703   0.46007   0.75705   0.00000  Uiso   1.00
H1231  H     0.89553   0.52687   0.53011   0.00000  Uiso   1.00
H1232  H     0.84926   0.61011   0.59562   0.00000  Uiso   1.00
H1233  H     0.74299   0.41035   0.65423   0.00000  Uiso   1.00
H1234  H     0.81826   0.60997   0.90414   0.00000  Uiso   1.00
H1235  H     0.74883   0.36211   0.77918   0.00000  Uiso   1.00
H1236  H     0.95111   0.63491   0.73658   0.00000  Uiso   1.00
H1237  H     0.90617   0.41273   0.67041   0.00000  Uiso   1.00
H1238  H     0.74837   0.63709   0.71693   0.00000  Uiso   1.00
H1239  H     0.89539   0.47302   0.97028   0.00000  Uiso   1.00
H1240  H     0.77114   0.52696   0.96999   0.00000  Uiso   1.00
H1241  H     0.77114   0.47297   0.52966   0.00000  Uiso   1.00
H1242  H     0.89589   0.52524   0.61223   0.00000  Uiso   1.00
H1243  H     0.89573   0.47492   0.88827   0.00000  Uiso   1.00
H1244  H     0.77084   0.52549   0.88784   0.00000  Uiso   1.00
H1245  H     0.77087   0.47470   0.61170   0.00000  Uiso   1.00
H1246  H     0.92380   0.41175   0.84592   0.00000  Uiso   1.00
N1247  N     0.83333   0.61907   0.75000   0.00000  Uiso   1.00
N1248  N     0.83333   0.38093   0.75000   0.00000  Uiso   1.00
O1249  O     0.77226   0.53821   0.74999   0.00000  Uiso   1.00
O1250  O     0.89003   0.33663   0.85611   0.00000  Uiso   1.00
O1251  O     0.90154   0.41433   0.82311   0.00000  Uiso   1.00
O1252  O     0.89188   0.66228   0.64485   0.00000  Uiso   1.00
O1253  O     0.89796   0.58876   0.67702   0.00000  Uiso   1.00
O1254  O     0.83497   0.60513   0.62458   0.00000  Uiso   1.00
O1255  O     0.83038   0.39331   0.62881   0.00000  Uiso   1.00
O1256  O     0.77816   0.33667   0.64226   0.00000  Uiso   1.00
O1257  O     0.76553   0.41368   0.67663   0.00000  Uiso   1.00
O1258  O     0.77581   0.66271   0.85588   0.00000  Uiso   1.00
O1259  O     0.76857   0.58956   0.82269   0.00000  Uiso   1.00
O1260  O     0.89441   0.46179   0.75000   0.00000  Uiso   1.00
O1261  O     0.83217   0.60483   0.87498   0.00000  Uiso   1.00
O1262  O     0.73290   0.43270   0.82730   0.00000  Uiso   1.00
O1263  O     0.67006   0.39028   0.81053   0.00000  Uiso   1.00
O1264  O     0.73292   0.38044   0.75775   0.00000  Uiso   1.00
O1265  O     0.93835   0.56811   0.82659   0.00000  Uiso   1.00
O1266  O     0.99920   0.61107   0.80514   0.00000  Uiso   1.00
O1267  O     0.93226   0.62003   0.75787   0.00000  Uiso   1.00
O1268  O     0.99627   0.38693   0.69455   0.00000  Uiso   1.00
O1269  O     0.93547   0.38377   0.74306   0.00000  Uiso   1.00
O1270  O     0.93141   0.43135   0.67002   0.00000  Uiso   1.00
O1271  O     0.89441   0.53821   0.75000   0.00000  Uiso   1.00
O1272  O     0.73496   0.56443   0.67146   0.00000  Uiso   1.00
O1273  O     0.67072   0.60559   0.68289   0.00000  Uiso   1.00
O1274  O     0.73139   0.61989   0.73833   0.00000  Uiso   1.00
O1275  O     0.77226   0.46179   0.74999   0.00000  Uiso   1.00
O1276  O     0.83333   0.53822   0.68453   0.00000  Uiso   1.00
O1277  O     0.83334   0.46178   0.81547   0.00000  Uiso   1.00
O1278  O     0.83334   0.53822   0.81547   0.00000  Uiso   1.00
O1279  O     0.83333   0.46178   0.68453   0.00000  Uiso   1.00
O1280  O     0.83756   0.39263   0.87148   0.00000  Uiso   1.00
S1281  S     0.86674   0.37519   0.83645   0.00000  Uiso   1.00
S1282  S     0.86769   0.62427   0.66423   0.00000  Uiso   1.00
S1283  S     0.80085   0.37514   0.66309   0.00000  Uiso   1.00
S1284  S     0.79936   0.62456   0.83582   0.00000  Uiso   1.00
S1285  S     0.70568   0.41522   0.79016   0.00000  Uiso   1.00
S1286  S     0.96264   0.58552   0.78736   0.00000  Uiso   1.00
S1287  S     0.96073   0.41326   0.71314   0.00000  Uiso   1.00
S1288  S     0.70607   0.58288   0.70634   0.00000  Uiso   1.00
Zn1289 Zn    0.83333   0.55104   0.75000   0.00000  Uiso   1.00
Zn1290 Zn    0.83333   0.44896   0.75000   0.00000  Uiso   1.00
C1291  C     0.08683   0.83327   0.74993   0.00000  Uiso   1.00
C1292  C     0.31296   0.87349   0.75364   0.00000  Uiso   1.00
C1293  C     0.31269   0.79303   0.74426   0.00000  Uiso   1.00
C1294  C     0.02059   0.87265   0.74090   0.00000  Uiso   1.00
C1295  C     0.20181   0.84805   0.54766   0.00000  Uiso   1.00
C1296  C     0.20164   0.81844   0.95257   0.00000  Uiso   1.00
C1297  C     0.13150   0.84815   0.95240   0.00000  Uiso   1.00
C1298  C     0.13159   0.81835   0.54740   0.00000  Uiso   1.00
C1299  C     0.20196   0.84757   0.59404   0.00000  Uiso   1.00
C1300  C     0.20172   0.81890   0.90622   0.00000  Uiso   1.00
C1301  C     0.13139   0.84776   0.90601   0.00000  Uiso   1.00
C1302  C     0.24651   0.83334   0.74978   0.00000  Uiso   1.00
C1303  C     0.13155   0.81872   0.59377   0.00000  Uiso   1.00
C1304  C     0.16675   0.83316   0.61668   0.00000  Uiso   1.00
C1305  C     0.16657   0.83334   0.88334   0.00000  Uiso   1.00
C1306  C     0.16666   0.83325   0.52428   0.00000  Uiso   1.00
C1307  C     0.16659   0.83329   0.97574   0.00000  Uiso   1.00
C1308  C     0.29085   0.83330   0.74912   0.00000  Uiso   1.00
C1309  C     0.04248   0.83308   0.74938   0.00000  Uiso   1.00
C1310  C     0.16670   0.83329   0.66437   0.00000  Uiso   1.00
C1311  C     0.16662   0.83335   0.83563   0.00000  Uiso   1.00
C1312  C     0.17174   0.68961   0.78879   0.00000  Uiso   1.00
C1313  C     0.17252   0.97702   0.71135   0.00000  Uiso   1.00
C1314  C     0.16192   0.68949   0.71112   0.00000  Uiso   1.00
C1315  C     0.16107   0.97716   0.78864   0.00000  Uiso   1.00
C1316  C     0.02037   0.79340   0.75705   0.00000  Uiso   1.00
H1317  H     0.22887   0.86021   0.53011   0.00000  Uiso   1.00
H1318  H     0.18259   0.94344   0.59562   0.00000  Uiso   1.00
H1319  H     0.07633   0.74368   0.65423   0.00000  Uiso   1.00
H1320  H     0.15159   0.94331   0.90414   0.00000  Uiso   1.00
H1321  H     0.08217   0.69544   0.77918   0.00000  Uiso   1.00
H1322  H     0.28444   0.96824   0.73658   0.00000  Uiso   1.00
H1323  H     0.23950   0.74606   0.67041   0.00000  Uiso   1.00
H1324  H     0.08170   0.97042   0.71693   0.00000  Uiso   1.00
H1325  H     0.22873   0.80636   0.97028   0.00000  Uiso   1.00
H1326  H     0.10447   0.86030   0.96999   0.00000  Uiso   1.00
H1327  H     0.10447   0.80631   0.52966   0.00000  Uiso   1.00
H1328  H     0.22923   0.85857   0.61223   0.00000  Uiso   1.00
H1329  H     0.22906   0.80826   0.88827   0.00000  Uiso   1.00
H1330  H     0.10418   0.85882   0.88784   0.00000  Uiso   1.00
H1331  H     0.10421   0.80803   0.61170   0.00000  Uiso   1.00
H1332  H     0.25713   0.74508   0.84592   0.00000  Uiso   1.00
N1333  N     0.16667   0.95240   0.75000   0.00000  Uiso   1.00
N1334  N     0.16667   0.71427   0.75000   0.00000  Uiso   1.00
O1335  O     0.10559   0.87154   0.74999   0.00000  Uiso   1.00
O1336  O     0.22336   0.66996   0.85611   0.00000  Uiso   1.00
O1337  O     0.23488   0.74766   0.82311   0.00000  Uiso   1.00
O1338  O     0.22521   0.99562   0.64485   0.00000  Uiso   1.00
O1339  O     0.23129   0.92210   0.67702   0.00000  Uiso   1.00
O1340  O     0.16830   0.93846   0.62458   0.00000  Uiso   1.00
O1341  O     0.16371   0.72664   0.62881   0.00000  Uiso   1.00
O1342  O     0.11149   0.67000   0.64226   0.00000  Uiso   1.00
O1343  O     0.09887   0.74701   0.67663   0.00000  Uiso   1.00
O1344  O     0.10914   0.99605   0.85588   0.00000  Uiso   1.00
O1345  O     0.10190   0.92289   0.82269   0.00000  Uiso   1.00
O1346  O     0.22774   0.79513   0.75000   0.00000  Uiso   1.00
O1347  O     0.16550   0.93817   0.87498   0.00000  Uiso   1.00
O1348  O     0.06623   0.76603   0.82730   0.00000  Uiso   1.00
O1349  O     0.00339   0.72362   0.81053   0.00000  Uiso   1.00
O1350  O     0.06625   0.71377   0.75775   0.00000  Uiso   1.00
O1351  O     0.27169   0.90144   0.82659   0.00000  Uiso   1.00
O1352  O     0.33253   0.94441   0.80514   0.00000  Uiso   1.00
O1353  O     0.26559   0.95336   0.75787   0.00000  Uiso   1.00
O1354  O     0.32960   0.72027   0.69455   0.00000  Uiso   1.00
O1355  O     0.26881   0.71711   0.74306   0.00000  Uiso   1.00
O1356  O     0.26474   0.76468   0.67002   0.00000  Uiso   1.00
O1357  O     0.22774   0.87154   0.75000   0.00000  Uiso   1.00
O1358  O     0.06830   0.89777   0.67146   0.00000  Uiso   1.00
O1359  O     0.00406   0.93892   0.68289   0.00000  Uiso   1.00
O1360  O     0.06473   0.95323   0.73833   0.00000  Uiso   1.00
O1361  O     0.10559   0.79513   0.74999   0.00000  Uiso   1.00
O1362  O     0.16666   0.87155   0.68453   0.00000  Uiso   1.00
O1363  O     0.16667   0.79511   0.81547   0.00000  Uiso   1.00
O1364  O     0.16667   0.87155   0.81547   0.00000  Uiso   1.00
O1365  O     0.16666   0.79511   0.68453   0.00000  Uiso   1.00
O1366  O     0.17089   0.72596   0.87148   0.00000  Uiso   1.00
S1367  S     0.20007   0.70852   0.83645   0.00000  Uiso   1.00
S1368  S     0.20102   0.95760   0.66423   0.00000  Uiso   1.00
S1369  S     0.13419   0.70847   0.66309   0.00000  Uiso   1.00
S1370  S     0.13269   0.95790   0.83582   0.00000  Uiso   1.00
S1371  S     0.03901   0.74855   0.79016   0.00000  Uiso   1.00
S1372  S     0.29597   0.91885   0.78736   0.00000  Uiso   1.00
S1373  S     0.29406   0.74659   0.71314   0.00000  Uiso   1.00
S1374  S     0.03941   0.91621   0.70634   0.00000  Uiso   1.00
Zn1375 Zn    0.16667   0.88437   0.75000   0.00000  Uiso   1.00
Zn1376 Zn    0.16667   0.78229   0.75000   0.00000  Uiso   1.00
C1377  C     0.42016   0.83327   0.74993   0.00000  Uiso   1.00
C1378  C     0.64630   0.87349   0.75364   0.00000  Uiso   1.00
C1379  C     0.64603   0.79303   0.74426   0.00000  Uiso   1.00
C1380  C     0.35392   0.87265   0.74090   0.00000  Uiso   1.00
C1381  C     0.53515   0.84805   0.54766   0.00000  Uiso   1.00
C1382  C     0.53498   0.81844   0.95257   0.00000  Uiso   1.00
C1383  C     0.46483   0.84815   0.95240   0.00000  Uiso   1.00
C1384  C     0.46493   0.81835   0.54740   0.00000  Uiso   1.00
C1385  C     0.53530   0.84757   0.59404   0.00000  Uiso   1.00
C1386  C     0.53506   0.81890   0.90622   0.00000  Uiso   1.00
C1387  C     0.46472   0.84776   0.90601   0.00000  Uiso   1.00
C1388  C     0.57984   0.83334   0.74978   0.00000  Uiso   1.00
C1389  C     0.46488   0.81872   0.59377   0.00000  Uiso   1.00
C1390  C     0.50009   0.83316   0.61668   0.00000  Uiso   1.00
C1391  C     0.49990   0.83334   0.88334   0.00000  Uiso   1.00
C1392  C     0.50000   0.83325   0.52428   0.00000  Uiso   1.00
C1393  C     0.49993   0.83329   0.97574   0.00000  Uiso   1.00
C1394  C     0.62418   0.83330   0.74912   0.00000  Uiso   1.00
C1395  C     0.37581   0.83308   0.74938   0.00000  Uiso   1.00
C1396  C     0.50003   0.83329   0.66437   0.00000  Uiso   1.00
C1397  C     0.49995   0.83335   0.83563   0.00000  Uiso   1.00
C1398  C     0.50507   0.68961   0.78879   0.00000  Uiso   1.00
C1399  C     0.50586   0.97702   0.71135   0.00000  Uiso   1.00
C1400  C     0.49526   0.68949   0.71112   0.00000  Uiso   1.00
C1401  C     0.49440   0.97716   0.78864   0.00000  Uiso   1.00
C1402  C     0.35370   0.79340   0.75705   0.00000  Uiso   1.00
H1403  H     0.56220   0.86021   0.53011   0.00000  Uiso   1.00
H1404  H     0.51593   0.94344   0.59562   0.00000  Uiso   1.00
H1405  H     0.40966   0.74368   0.65423   0.00000  Uiso   1.00
H1406  H     0.48493   0.94331   0.90414   0.00000  Uiso   1.00
H1407  H     0.41550   0.69544   0.77918   0.00000  Uiso   1.00
H1408  H     0.61778   0.96824   0.73658   0.00000  Uiso   1.00
H1409  H     0.57283   0.74606   0.67041   0.00000  Uiso   1.00
H1410  H     0.41503   0.97042   0.71693   0.00000  Uiso   1.00
H1411  H     0.56206   0.80636   0.97028   0.00000  Uiso   1.00
H1412  H     0.43780   0.86030   0.96999   0.00000  Uiso   1.00
H1413  H     0.43781   0.80631   0.52966   0.00000  Uiso   1.00
H1414  H     0.56256   0.85857   0.61223   0.00000  Uiso   1.00
H1415  H     0.56240   0.80826   0.88827   0.00000  Uiso   1.00
H1416  H     0.43751   0.85882   0.88784   0.00000  Uiso   1.00
H1417  H     0.43754   0.80803   0.61170   0.00000  Uiso   1.00
H1418  H     0.59047   0.74508   0.84592   0.00000  Uiso   1.00
N1419  N     0.50000   0.95240   0.75000   0.00000  Uiso   1.00
N1420  N     0.50000   0.71427   0.75000   0.00000  Uiso   1.00
O1421  O     0.43892   0.87154   0.74999   0.00000  Uiso   1.00
O1422  O     0.55669   0.66996   0.85611   0.00000  Uiso   1.00
O1423  O     0.56821   0.74766   0.82311   0.00000  Uiso   1.00
O1424  O     0.55854   0.99562   0.64485   0.00000  Uiso   1.00
O1425  O     0.56463   0.92210   0.67702   0.00000  Uiso   1.00
O1426  O     0.50163   0.93846   0.62458   0.00000  Uiso   1.00
O1427  O     0.49705   0.72664   0.62881   0.00000  Uiso   1.00
O1428  O     0.44482   0.67000   0.64226   0.00000  Uiso   1.00
O1429  O     0.43220   0.74701   0.67663   0.00000  Uiso   1.00
O1430  O     0.44247   0.99605   0.85588   0.00000  Uiso   1.00
O1431  O     0.43523   0.92289   0.82269   0.00000  Uiso   1.00
O1432  O     0.56108   0.79513   0.75000   0.00000  Uiso   1.00
O1433  O     0.49884   0.93817   0.87498   0.00000  Uiso   1.00
O1434  O     0.39957   0.76603   0.82730   0.00000  Uiso   1.00
O1435  O     0.33673   0.72362   0.81053   0.00000  Uiso   1.00
O1436  O     0.39958   0.71377   0.75775   0.00000  Uiso   1.00
O1437  O     0.60502   0.90144   0.82659   0.00000  Uiso   1.00
O1438  O     0.66587   0.94441   0.80514   0.00000  Uiso   1.00
O1439  O     0.59892   0.95336   0.75787   0.00000  Uiso   1.00
O1440  O     0.66293   0.72027   0.69455   0.00000  Uiso   1.00
O1441  O     0.60214   0.71711   0.74306   0.00000  Uiso   1.00
O1442  O     0.59808   0.76468   0.67002   0.00000  Uiso   1.00
O1443  O     0.56108   0.87154   0.75000   0.00000  Uiso   1.00
O1444  O     0.40163   0.89777   0.67146   0.00000  Uiso   1.00
O1445  O     0.33739   0.93892   0.68289   0.00000  Uiso   1.00
O1446  O     0.39806   0.95323   0.73833   0.00000  Uiso   1.00
O1447  O     0.43892   0.79513   0.74999   0.00000  Uiso   1.00
O1448  O     0.50000   0.87155   0.68453   0.00000  Uiso   1.00
O1449  O     0.50000   0.79511   0.81547   0.00000  Uiso   1.00
O1450  O     0.50000   0.87155   0.81547   0.00000  Uiso   1.00
O1451  O     0.50000   0.79511   0.68453   0.00000  Uiso   1.00
O1452  O     0.50423   0.72596   0.87148   0.00000  Uiso   1.00
S1453  S     0.53340   0.70852   0.83645   0.00000  Uiso   1.00
S1454  S     0.53435   0.95760   0.66423   0.00000  Uiso   1.00
S1455  S     0.46752   0.70847   0.66309   0.00000  Uiso   1.00
S1456  S     0.46602   0.95790   0.83582   0.00000  Uiso   1.00
S1457  S     0.37234   0.74855   0.79016   0.00000  Uiso   1.00
S1458  S     0.62930   0.91885   0.78736   0.00000  Uiso   1.00
S1459  S     0.62740   0.74659   0.71314   0.00000  Uiso   1.00
S1460  S     0.37274   0.91621   0.70634   0.00000  Uiso   1.00
Zn1461 Zn    0.50000   0.88437   0.75000   0.00000  Uiso   1.00
Zn1462 Zn    0.50000   0.78229   0.75000   0.00000  Uiso   1.00
C1463  C     0.75349   0.83327   0.74993   0.00000  Uiso   1.00
C1464  C     0.97963   0.87349   0.75364   0.00000  Uiso   1.00
C1465  C     0.97936   0.79303   0.74426   0.00000  Uiso   1.00
C1466  C     0.68725   0.87265   0.74090   0.00000  Uiso   1.00
C1467  C     0.86848   0.84805   0.54766   0.00000  Uiso   1.00
C1468  C     0.86831   0.81844   0.95257   0.00000  Uiso   1.00
C1469  C     0.79817   0.84815   0.95240   0.00000  Uiso   1.00
C1470  C     0.79826   0.81835   0.54740   0.00000  Uiso   1.00
C1471  C     0.86863   0.84757   0.59404   0.00000  Uiso   1.00
C1472  C     0.86839   0.81890   0.90622   0.00000  Uiso   1.00
C1473  C     0.79805   0.84776   0.90601   0.00000  Uiso   1.00
C1474  C     0.91318   0.83334   0.74978   0.00000  Uiso   1.00
C1475  C     0.79822   0.81872   0.59377   0.00000  Uiso   1.00
C1476  C     0.83342   0.83316   0.61668   0.00000  Uiso   1.00
C1477  C     0.83323   0.83334   0.88334   0.00000  Uiso   1.00
C1478  C     0.83333   0.83325   0.52428   0.00000  Uiso   1.00
C1479  C     0.83326   0.83329   0.97574   0.00000  Uiso   1.00
C1480  C     0.95751   0.83330   0.74912   0.00000  Uiso   1.00
C1481  C     0.70914   0.83308   0.74938   0.00000  Uiso   1.00
C1482  C     0.83336   0.83329   0.66437   0.00000  Uiso   1.00
C1483  C     0.83329   0.83335   0.83563   0.00000  Uiso   1.00
C1484  C     0.83840   0.68961   0.78879   0.00000  Uiso   1.00
C1485  C     0.83919   0.97702   0.71135   0.00000  Uiso   1.00
C1486  C     0.82859   0.68949   0.71112   0.00000  Uiso   1.00
C1487  C     0.82773   0.97716   0.78864   0.00000  Uiso   1.00
C1488  C     0.68703   0.79340   0.75705   0.00000  Uiso   1.00
H1489  H     0.89553   0.86021   0.53011   0.00000  Uiso   1.00
H1490  H     0.84926   0.94344   0.59562   0.00000  Uiso   1.00
H1491  H     0.74299   0.74368   0.65423   0.00000  Uiso   1.00
H1492  H     0.81826   0.94331   0.90414   0.00000  Uiso   1.00
H1493  H     0.74883   0.69544   0.77918   0.00000  Uiso   1.00
H1494  H     0.95111   0.96824   0.73658   0.00000  Uiso   1.00
H1495  H     0.90617   0.74606   0.67041   0.00000  Uiso   1.00
H1496  H     0.74837   0.97042   0.71693   0.00000  Uiso   1.00
H1497  H     0.89539   0.80636   0.97028   0.00000  Uiso   1.00
H1498  H     0.77114   0.86030   0.96999   0.00000  Uiso   1.00
H1499  H     0.77114   0.80631   0.52966   0.00000  Uiso   1.00
H1500  H     0.89589   0.85857   0.61223   0.00000  Uiso   1.00
H1501  H     0.89573   0.80826   0.88827   0.00000  Uiso   1.00
H1502  H     0.77084   0.85882   0.88784   0.00000  Uiso   1.00
H1503  H     0.77087   0.80803   0.61170   0.00000  Uiso   1.00
H1504  H     0.92380   0.74508   0.84592   0.00000  Uiso   1.00
N1505  N     0.83333   0.95240   0.75000   0.00000  Uiso   1.00
N1506  N     0.83333   0.71427   0.75000   0.00000  Uiso   1.00
O1507  O     0.77226   0.87154   0.74999   0.00000  Uiso   1.00
O1508  O     0.89003   0.66996   0.85611   0.00000  Uiso   1.00
O1509  O     0.90154   0.74766   0.82311   0.00000  Uiso   1.00
O1510  O     0.89188   0.99562   0.64485   0.00000  Uiso   1.00
O1511  O     0.89796   0.92210   0.67702   0.00000  Uiso   1.00
O1512  O     0.83497   0.93846   0.62458   0.00000  Uiso   1.00
O1513  O     0.83038   0.72664   0.62881   0.00000  Uiso   1.00
O1514  O     0.77816   0.67000   0.64226   0.00000  Uiso   1.00
O1515  O     0.76553   0.74701   0.67663   0.00000  Uiso   1.00
O1516  O     0.77581   0.99605   0.85588   0.00000  Uiso   1.00
O1517  O     0.76857   0.92289   0.82269   0.00000  Uiso   1.00
O1518  O     0.89441   0.79513   0.75000   0.00000  Uiso   1.00
O1519  O     0.83217   0.93817   0.87498   0.00000  Uiso   1.00
O1520  O     0.73290   0.76603   0.82730   0.00000  Uiso   1.00
O1521  O     0.67006   0.72362   0.81053   0.00000  Uiso   1.00
O1522  O     0.73292   0.71377   0.75775   0.00000  Uiso   1.00
O1523  O     0.93835   0.90144   0.82659   0.00000  Uiso   1.00
O1524  O     0.99920   0.94441   0.80514   0.00000  Uiso   1.00
O1525  O     0.93226   0.95336   0.75787   0.00000  Uiso   1.00
O1526  O     0.99627   0.72027   0.69455   0.00000  Uiso   1.00
O1527  O     0.93547   0.71711   0.74306   0.00000  Uiso   1.00
O1528  O     0.93141   0.76468   0.67002   0.00000  Uiso   1.00
O1529  O     0.89441   0.87154   0.75000   0.00000  Uiso   1.00
O1530  O     0.73496   0.89777   0.67146   0.00000  Uiso   1.00
O1531  O     0.67072   0.93892   0.68289   0.00000  Uiso   1.00
O1532  O     0.73139   0.95323   0.73833   0.00000  Uiso   1.00
O1533  O     0.77226   0.79513   0.74999   0.00000  Uiso   1.00
O1534  O     0.83333   0.87155   0.68453   0.00000  Uiso   1.00
O1535  O     0.83334   0.79511   0.81547   0.00000  Uiso   1.00
O1536  O     0.83334   0.87155   0.81547   0.00000  Uiso   1.00
O1537  O     0.83333   0.79511   0.68453   0.00000  Uiso   1.00
O1538  O     0.83756   0.72596   0.87148   0.00000  Uiso   1.00
S1539  S     0.86674   0.70852   0.83645   0.00000  Uiso   1.00
S1540  S     0.86769   0.95760   0.66423   0.00000  Uiso   1.00
S1541  S     0.80085   0.70847   0.66309   0.00000  Uiso   1.00
S1542  S     0.79936   0.95790   0.83582   0.00000  Uiso   1.00
S1543  S     0.70568   0.74855   0.79016   0.00000  Uiso   1.00
S1544  S     0.96264   0.91885   0.78736   0.00000  Uiso   1.00
S1545  S     0.96073   0.74659   0.71314   0.00000  Uiso   1.00
S1546  S     0.70607   0.91621   0.70634   0.00000  Uiso   1.00
Zn1547 Zn    0.83333   0.88437   0.75000   0.00000  Uiso   1.00
Zn1548 Zn    0.83333   0.78229   0.75000   0.00000  Uiso   1.00
loop_
_geom_bond_atom_site_label_1
_geom_bond_atom_site_label_2
_geom_bond_distance
_geom_bond_site_symmetry_2
_ccdc_geom_bond_type
C1     O71     1.301   .     A
C1     C19     1.432   .     S
C1     O45     1.303   .     A
C2     C18     1.412   .     A
C2     S82     1.783   .     S
C2     C90     1.377   .     S
C3     C18     1.413   .     A
C3     S83     1.781   .     S
C3     C112    1.377   .     S
C4     C19     1.410   .     A
C4     S84     1.777   .     S
C4     C174    1.377   1_455 S
C5     C16     1.402   .     A
C5     H27     1.083   .     S
C5     C9      1.380   .     A
C6     H35     1.083   .     S
C6     C17     1.401   .     A
C6     C10     1.379   .     A
C7     H36     1.083   .     S
C7     C11     1.380   .     A
C7     C17     1.402   .     A
C8     C13     1.380   .     A
C8     H37     1.083   .     S
C8     C16     1.401   .     A
C9     C14     1.393   .     A
C9     H38     1.083   .     S
C10    C15     1.393   .     A
C10    H39     1.082   .     S
C11    C15     1.393   .     A
C11    H40     1.083   .     S
C12    O67     1.302   .     A
C12    O56     1.301   .     A
C12    C18     1.432   .     S
C13    H41     1.082   .     S
C13    C14     1.393   .     A
C14    C20     1.419   .     S
C15    C21     1.419   .     S
C16    C791    1.444   1_554 S
C17    C790    1.444   .     S
C19    C26     1.412   .     A
C20    O75     1.299   .     A
C20    O72     1.300   .     A
C21    O73     1.299   .     A
C21    O74     1.300   .     A
C22    N44     1.383   .     A
C22    S77     1.778   .     S
C22    C541    1.423   1_545 S
C23    N43     1.383   .     A
C23    S78     1.778   .     S
C23    C282    1.423   .     S
C24    S79     1.780   .     S
C24    N44     1.384   .     A
C24    C539    1.423   1_545 S
C25    S80     1.777   .     S
C25    N43     1.383   .     A
C25    C280    1.423   .     S
C26    S81     1.779   .     S
C26    C175    1.377   1_455 S
H28    O50     0.990   .     S
H29    O53     0.990   .     S
H30    O57     0.990   .     S
H31    O60     0.988   .     S
H32    O63     0.988   .     S
H33    O66     0.989   .     S
H34    O70     0.989   .     S
H42    O47     0.990   .     S
N43    Zn85    2.051   .     S
N44    Zn86    2.051   .     S
O45    Zn85    2.009   .     S
O46    S77     1.504   .     D
O47    S77     1.678   .     S
O48    S78     1.503   .     D
O49    S78     1.499   .     D
O50    S78     1.682   .     S
O51    S79     1.502   .     D
O52    S79     1.503   .     D
O53    S79     1.679   .     S
O54    S80     1.504   .     D
O55    S80     1.500   .     D
O56    Zn86    2.009   .     S
O57    S80     1.682   .     S
O58    S81     1.504   .     D
O59    S81     1.503   .     D
O60    S81     1.676   .     S
O61    S82     1.503   .     D
O62    S82     1.504   .     D
O63    S82     1.678   .     S
O64    S83     1.503   .     D
O65    S83     1.501   .     D
O66    S83     1.684   .     S
O67    Zn85    2.010   .     S
O68    S84     1.504   .     D
O69    S84     1.502   .     D
O70    S84     1.676   .     S
O71    Zn86    2.010   .     S
O72    Zn85    1.986   .     S
O73    Zn86    1.986   .     S
O74    Zn85    1.987   .     S
O75    Zn86    1.987   .     S
O76    S77     1.502   .     D
C87    O157    1.301   .     A
C87    C105    1.432   .     S
C87    O131    1.303   .     A
C88    C104    1.412   .     A
C88    S168    1.783   .     S
C88    C176    1.377   .     S
C89    C104    1.413   .     A
C89    S169    1.781   .     S
C89    C198    1.377   .     S
C90    C105    1.410   .     A
C90    S170    1.777   .     S
C91    C102    1.402   .     A
C91    H113    1.083   .     S
C91    C95     1.380   .     A
C92    H121    1.083   .     S
C92    C103    1.401   .     A
C92    C96     1.379   .     A
C93    H122    1.083   .     S
C93    C97     1.380   .     A
C93    C103    1.402   .     A
C94    C99     1.380   .     A
C94    H123    1.083   .     S
C94    C102    1.401   .     A
C95    C100    1.393   .     A
C95    H124    1.083   .     S
C96    C101    1.393   .     A
C96    H125    1.082   .     S
C97    C101    1.393   .     A
C97    H126    1.083   .     S
C98    O153    1.302   .     A
C98    O142    1.301   .     A
C98    C104    1.432   .     S
C99    H127    1.082   .     S
C99    C100    1.393   .     A
C100   C106    1.419   .     S
C101   C107    1.419   .     S
C102   C877    1.444   1_554 S
C103   C876    1.444   .     S
C105   C112    1.412   .     A
C106   O161    1.299   .     A
C106   O158    1.300   .     A
C107   O159    1.299   .     A
C107   O160    1.300   .     A
C108   N130    1.383   .     A
C108   S163    1.778   .     S
C108   C627    1.423   1_545 S
C109   N129    1.383   .     A
C109   S164    1.778   .     S
C109   C368    1.423   .     S
C110   S165    1.780   .     S
C110   N130    1.384   .     A
C110   C625    1.423   1_545 S
C111   S166    1.777   .     S
C111   N129    1.383   .     A
C111   C366    1.423   .     S
C112   S167    1.779   .     S
H114   O136    0.990   .     S
H115   O139    0.990   .     S
H116   O143    0.990   .     S
H117   O146    0.988   .     S
H118   O149    0.988   .     S
H119   O152    0.989   .     S
H120   O156    0.989   .     S
H128   O133    0.990   .     S
N129   Zn171   2.051   .     S
N130   Zn172   2.051   .     S
O131   Zn171   2.009   .     S
O132   S163    1.504   .     D
O133   S163    1.678   .     S
O134   S164    1.503   .     D
O135   S164    1.499   .     D
O136   S164    1.682   .     S
O137   S165    1.502   .     D
O138   S165    1.503   .     D
O139   S165    1.679   .     S
O140   S166    1.504   .     D
O141   S166    1.500   .     D
O142   Zn172   2.009   .     S
O143   S166    1.682   .     S
O144   S167    1.504   .     D
O145   S167    1.503   .     D
O146   S167    1.676   .     S
O147   S168    1.503   .     D
O148   S168    1.504   .     D
O149   S168    1.678   .     S
O150   S169    1.503   .     D
O151   S169    1.501   .     D
O152   S169    1.684   .     S
O153   Zn171   2.010   .     S
O154   S170    1.504   .     D
O155   S170    1.502   .     D
O156   S170    1.676   .     S
O157   Zn172   2.010   .     S
O158   Zn171   1.986   .     S
O159   Zn172   1.986   .     S
O160   Zn171   1.987   .     S
O161   Zn172   1.987   .     S
O162   S163    1.502   .     D
C173   O243    1.301   .     A
C173   C191    1.432   .     S
C173   O217    1.303   .     A
C174   C190    1.412   .     A
C174   S254    1.783   .     S
C174   C4      1.377   1_655 S
C175   C190    1.413   .     A
C175   S255    1.781   .     S
C175   C26     1.377   1_655 S
C176   C191    1.410   .     A
C176   S256    1.777   .     S
C177   C188    1.402   .     A
C177   H199    1.083   .     S
C177   C181    1.380   .     A
C178   H207    1.083   .     S
C178   C189    1.401   .     A
C178   C182    1.379   .     A
C179   H208    1.083   .     S
C179   C183    1.380   .     A
C179   C189    1.402   .     A
C180   C185    1.380   .     A
C180   H209    1.083   .     S
C180   C188    1.401   .     A
C181   C186    1.393   .     A
C181   H210    1.083   .     S
C182   C187    1.393   .     A
C182   H211    1.082   .     S
C183   C187    1.393   .     A
C183   H212    1.083   .     S
C184   O239    1.302   .     A
C184   O228    1.301   .     A
C184   C190    1.432   .     S
C185   H213    1.082   .     S
C185   C186    1.393   .     A
C186   C192    1.419   .     S
C187   C193    1.419   .     S
C188   C963    1.444   1_554 S
C189   C962    1.444   .     S
C191   C198    1.412   .     A
C192   O247    1.299   .     A
C192   O244    1.300   .     A
C193   O245    1.299   .     A
C193   O246    1.300   .     A
C194   N216    1.383   .     A
C194   S249    1.778   .     S
C194   C713    1.423   1_545 S
C195   N215    1.383   .     A
C195   S250    1.778   .     S
C195   C454    1.423   .     S
C196   S251    1.780   .     S
C196   N216    1.384   .     A
C196   C711    1.423   1_545 S
C197   S252    1.777   .     S
C197   N215    1.383   .     A
C197   C452    1.423   .     S
C198   S253    1.779   .     S
H200   O222    0.990   .     S
H201   O225    0.990   .     S
H202   O229    0.990   .     S
H203   O232    0.988   .     S
H204   O235    0.988   .     S
H205   O238    0.989   .     S
H206   O242    0.989   .     S
H214   O219    0.990   .     S
N215   Zn257   2.051   .     S
N216   Zn258   2.051   .     S
O217   Zn257   2.009   .     S
O218   S249    1.504   .     D
O219   S249    1.678   .     S
O220   S250    1.503   .     D
O221   S250    1.499   .     D
O222   S250    1.682   .     S
O223   S251    1.502   .     D
O224   S251    1.503   .     D
O225   S251    1.679   .     S
O226   S252    1.504   .     D
O227   S252    1.500   .     D
O228   Zn258   2.009   .     S
O229   S252    1.682   .     S
O230   S253    1.504   .     D
O231   S253    1.503   .     D
O232   S253    1.676   .     S
O233   S254    1.503   .     D
O234   S254    1.504   .     D
O235   S254    1.678   .     S
O236   S255    1.503   .     D
O237   S255    1.501   .     D
O238   S255    1.684   .     S
O239   Zn257   2.010   .     S
O240   S256    1.504   .     D
O241   S256    1.502   .     D
O242   S256    1.676   .     S
O243   Zn258   2.010   .     S
O244   Zn257   1.986   .     S
O245   Zn258   1.986   .     S
O246   Zn257   1.987   .     S
O247   Zn258   1.987   .     S
O248   S249    1.502   .     D
C259   O329    1.301   .     A
C259   C277    1.432   .     S
C259   O303    1.303   .     A
C260   C276    1.412   .     A
C260   S340    1.783   .     S
C260   C348    1.377   .     S
C261   C276    1.413   .     A
C261   S341    1.781   .     S
C261   C370    1.377   .     S
C262   C277    1.410   .     A
C262   S342    1.777   .     S
C262   C432    1.377   1_455 S
C263   C274    1.402   .     A
C263   H285    1.083   .     S
C263   C267    1.380   .     A
C264   H293    1.083   .     S
C264   C275    1.401   .     A
C264   C268    1.379   .     A
C265   H294    1.083   .     S
C265   C269    1.380   .     A
C265   C275    1.402   .     A
C266   C271    1.380   .     A
C266   H295    1.083   .     S
C266   C274    1.401   .     A
C267   C272    1.393   .     A
C267   H296    1.083   .     S
C268   C273    1.393   .     A
C268   H297    1.082   .     S
C269   C273    1.393   .     A
C269   H298    1.083   .     S
C270   O325    1.302   .     A
C270   O314    1.301   .     A
C270   C276    1.432   .     S
C271   H299    1.082   .     S
C271   C272    1.393   .     A
C272   C278    1.419   .     S
C273   C279    1.419   .     S
C274   C1049   1.444   1_554 S
C275   C1048   1.444   .     S
C277   C284    1.412   .     A
C278   O333    1.299   .     A
C278   O330    1.300   .     A
C279   O331    1.299   .     A
C279   O332    1.300   .     A
C280   N302    1.383   .     A
C280   S335    1.778   .     S
C281   N301    1.383   .     A
C281   S336    1.778   .     S
C281   C540    1.423   .     S
C282   S337    1.780   .     S
C282   N302    1.384   .     A
C283   S338    1.777   .     S
C283   N301    1.383   .     A
C283   C538    1.423   .     S
C284   S339    1.779   .     S
C284   C433    1.377   1_455 S
H286   O308    0.990   .     S
H287   O311    0.990   .     S
H288   O315    0.990   .     S
H289   O318    0.988   .     S
H290   O321    0.988   .     S
H291   O324    0.989   .     S
H292   O328    0.989   .     S
H300   O305    0.990   .     S
N301   Zn343   2.051   .     S
N302   Zn344   2.051   .     S
O303   Zn343   2.009   .     S
O304   S335    1.504   .     D
O305   S335    1.678   .     S
O306   S336    1.503   .     D
O307   S336    1.499   .     D
O308   S336    1.682   .     S
O309   S337    1.502   .     D
O310   S337    1.503   .     D
O311   S337    1.679   .     S
O312   S338    1.504   .     D
O313   S338    1.500   .     D
O314   Zn344   2.009   .     S
O315   S338    1.682   .     S
O316   S339    1.504   .     D
O317   S339    1.503   .     D
O318   S339    1.676   .     S
O319   S340    1.503   .     D
O320   S340    1.504   .     D
O321   S340    1.678   .     S
O322   S341    1.503   .     D
O323   S341    1.501   .     D
O324   S341    1.684   .     S
O325   Zn343   2.010   .     S
O326   S342    1.504   .     D
O327   S342    1.502   .     D
O328   S342    1.676   .     S
O329   Zn344   2.010   .     S
O330   Zn343   1.986   .     S
O331   Zn344   1.986   .     S
O332   Zn343   1.987   .     S
O333   Zn344   1.987   .     S
O334   S335    1.502   .     D
C345   O415    1.301   .     A
C345   C363    1.432   .     S
C345   O389    1.303   .     A
C346   C362    1.412   .     A
C346   S426    1.783   .     S
C346   C434    1.377   .     S
C347   C362    1.413   .     A
C347   S427    1.781   .     S
C347   C456    1.377   .     S
C348   C363    1.410   .     A
C348   S428    1.777   .     S
C349   C360    1.402   .     A
C349   H371    1.083   .     S
C349   C353    1.380   .     A
C350   H379    1.083   .     S
C350   C361    1.401   .     A
C350   C354    1.379   .     A
C351   H380    1.083   .     S
C351   C355    1.380   .     A
C351   C361    1.402   .     A
C352   C357    1.380   .     A
C352   H381    1.083   .     S
C352   C360    1.401   .     A
C353   C358    1.393   .     A
C353   H382    1.083   .     S
C354   C359    1.393   .     A
C354   H383    1.082   .     S
C355   C359    1.393   .     A
C355   H384    1.083   .     S
C356   O411    1.302   .     A
C356   O400    1.301   .     A
C356   C362    1.432   .     S
C357   H385    1.082   .     S
C357   C358    1.393   .     A
C358   C364    1.419   .     S
C359   C365    1.419   .     S
C360   C1135   1.444   1_554 S
C361   C1134   1.444   .     S
C363   C370    1.412   .     A
C364   O419    1.299   .     A
C364   O416    1.300   .     A
C365   O417    1.299   .     A
C365   O418    1.300   .     A
C366   N388    1.383   .     A
C366   S421    1.778   .     S
C367   N387    1.383   .     A
C367   S422    1.778   .     S
C367   C626    1.423   .     S
C368   S423    1.780   .     S
C368   N388    1.384   .     A
C369   S424    1.777   .     S
C369   N387    1.383   .     A
C369   C624    1.423   .     S
C370   S425    1.779   .     S
H372   O394    0.990   .     S
H373   O397    0.990   .     S
H374   O401    0.990   .     S
H375   O404    0.988   .     S
H376   O407    0.988   .     S
H377   O410    0.989   .     S
H378   O414    0.989   .     S
H386   O391    0.990   .     S
N387   Zn429   2.051   .     S
N388   Zn430   2.051   .     S
O389   Zn429   2.009   .     S
O390   S421    1.504   .     D
O391   S421    1.678   .     S
O392   S422    1.503   .     D
O393   S422    1.499   .     D
O394   S422    1.682   .     S
O395   S423    1.502   .     D
O396   S423    1.503   .     D
O397   S423    1.679   .     S
O398   S424    1.504   .     D
O399   S424    1.500   .     D
O400   Zn430   2.009   .     S
O401   S424    1.682   .     S
O402   S425    1.504   .     D
O403   S425    1.503   .     D
O404   S425    1.676   .     S
O405   S426    1.503   .     D
O406   S426    1.504   .     D
O407   S426    1.678   .     S
O408   S427    1.503   .     D
O409   S427    1.501   .     D
O410   S427    1.684   .     S
O411   Zn429   2.010   .     S
O412   S428    1.504   .     D
O413   S428    1.502   .     D
O414   S428    1.676   .     S
O415   Zn430   2.010   .     S
O416   Zn429   1.986   .     S
O417   Zn430   1.986   .     S
O418   Zn429   1.987   .     S
O419   Zn430   1.987   .     S
O420   S421    1.502   .     D
C431   O501    1.301   .     A
C431   C449    1.432   .     S
C431   O475    1.303   .     A
C432   C448    1.412   .     A
C432   S512    1.783   .     S
C432   C262    1.377   1_655 S
C433   C448    1.413   .     A
C433   S513    1.781   .     S
C433   C284    1.377   1_655 S
C434   C449    1.410   .     A
C434   S514    1.777   .     S
C435   C446    1.402   .     A
C435   H457    1.083   .     S
C435   C439    1.380   .     A
C436   H465    1.083   .     S
C436   C447    1.401   .     A
C436   C440    1.379   .     A
C437   H466    1.083   .     S
C437   C441    1.380   .     A
C437   C447    1.402   .     A
C438   C443    1.380   .     A
C438   H467    1.083   .     S
C438   C446    1.401   .     A
C439   C444    1.393   .     A
C439   H468    1.083   .     S
C440   C445    1.393   .     A
C440   H469    1.082   .     S
C441   C445    1.393   .     A
C441   H470    1.083   .     S
C442   O497    1.302   .     A
C442   O486    1.301   .     A
C442   C448    1.432   .     S
C443   H471    1.082   .     S
C443   C444    1.393   .     A
C444   C450    1.419   .     S
C445   C451    1.419   .     S
C446   C1221   1.444   1_554 S
C447   C1220   1.444   .     S
C449   C456    1.412   .     A
C450   O505    1.299   .     A
C450   O502    1.300   .     A
C451   O503    1.299   .     A
C451   O504    1.300   .     A
C452   N474    1.383   .     A
C452   S507    1.778   .     S
C453   N473    1.383   .     A
C453   S508    1.778   .     S
C453   C712    1.423   .     S
C454   S509    1.780   .     S
C454   N474    1.384   .     A
C455   S510    1.777   .     S
C455   N473    1.383   .     A
C455   C710    1.423   .     S
C456   S511    1.779   .     S
H458   O480    0.990   .     S
H459   O483    0.990   .     S
H460   O487    0.990   .     S
H461   O490    0.988   .     S
H462   O493    0.988   .     S
H463   O496    0.989   .     S
H464   O500    0.989   .     S
H472   O477    0.990   .     S
N473   Zn515   2.051   .     S
N474   Zn516   2.051   .     S
O475   Zn515   2.009   .     S
O476   S507    1.504   .     D
O477   S507    1.678   .     S
O478   S508    1.503   .     D
O479   S508    1.499   .     D
O480   S508    1.682   .     S
O481   S509    1.502   .     D
O482   S509    1.503   .     D
O483   S509    1.679   .     S
O484   S510    1.504   .     D
O485   S510    1.500   .     D
O486   Zn516   2.009   .     S
O487   S510    1.682   .     S
O488   S511    1.504   .     D
O489   S511    1.503   .     D
O490   S511    1.676   .     S
O491   S512    1.503   .     D
O492   S512    1.504   .     D
O493   S512    1.678   .     S
O494   S513    1.503   .     D
O495   S513    1.501   .     D
O496   S513    1.684   .     S
O497   Zn515   2.010   .     S
O498   S514    1.504   .     D
O499   S514    1.502   .     D
O500   S514    1.676   .     S
O501   Zn516   2.010   .     S
O502   Zn515   1.986   .     S
O503   Zn516   1.986   .     S
O504   Zn515   1.987   .     S
O505   Zn516   1.987   .     S
O506   S507    1.502   .     D
C517   O587    1.301   .     A
C517   C535    1.432   .     S
C517   O561    1.303   .     A
C518   C534    1.412   .     A
C518   S598    1.783   .     S
C518   C606    1.377   .     S
C519   C534    1.413   .     A
C519   S599    1.781   .     S
C519   C628    1.377   .     S
C520   C535    1.410   .     A
C520   S600    1.777   .     S
C520   C690    1.377   1_455 S
C521   C532    1.402   .     A
C521   H543    1.083   .     S
C521   C525    1.380   .     A
C522   H551    1.083   .     S
C522   C533    1.401   .     A
C522   C526    1.379   .     A
C523   H552    1.083   .     S
C523   C527    1.380   .     A
C523   C533    1.402   .     A
C524   C529    1.380   .     A
C524   H553    1.083   .     S
C524   C532    1.401   .     A
C525   C530    1.393   .     A
C525   H554    1.083   .     S
C526   C531    1.393   .     A
C526   H555    1.082   .     S
C527   C531    1.393   .     A
C527   H556    1.083   .     S
C528   O583    1.302   .     A
C528   O572    1.301   .     A
C528   C534    1.432   .     S
C529   H557    1.082   .     S
C529   C530    1.393   .     A
C530   C536    1.419   .     S
C531   C537    1.419   .     S
C532   C1307   1.444   1_554 S
C533   C1306   1.444   .     S
C535   C542    1.412   .     A
C536   O591    1.299   .     A
C536   O588    1.300   .     A
C537   O589    1.299   .     A
C537   O590    1.300   .     A
C538   N560    1.383   .     A
C538   S593    1.778   .     S
C539   N559    1.383   .     A
C539   S594    1.778   .     S
C539   C24     1.423   1_565 S
C540   S595    1.780   .     S
C540   N560    1.384   .     A
C541   S596    1.777   .     S
C541   N559    1.383   .     A
C541   C22     1.423   1_565 S
C542   S597    1.779   .     S
C542   C691    1.377   1_455 S
H544   O566    0.990   .     S
H545   O569    0.990   .     S
H546   O573    0.990   .     S
H547   O576    0.988   .     S
H548   O579    0.988   .     S
H549   O582    0.989   .     S
H550   O586    0.989   .     S
H558   O563    0.990   .     S
N559   Zn601   2.051   .     S
N560   Zn602   2.051   .     S
O561   Zn601   2.009   .     S
O562   S593    1.504   .     D
O563   S593    1.678   .     S
O564   S594    1.503   .     D
O565   S594    1.499   .     D
O566   S594    1.682   .     S
O567   S595    1.502   .     D
O568   S595    1.503   .     D
O569   S595    1.679   .     S
O570   S596    1.504   .     D
O571   S596    1.500   .     D
O572   Zn602   2.009   .     S
O573   S596    1.682   .     S
O574   S597    1.504   .     D
O575   S597    1.503   .     D
O576   S597    1.676   .     S
O577   S598    1.503   .     D
O578   S598    1.504   .     D
O579   S598    1.678   .     S
O580   S599    1.503   .     D
O581   S599    1.501   .     D
O582   S599    1.684   .     S
O583   Zn601   2.010   .     S
O584   S600    1.504   .     D
O585   S600    1.502   .     D
O586   S600    1.676   .     S
O587   Zn602   2.010   .     S
O588   Zn601   1.986   .     S
O589   Zn602   1.986   .     S
O590   Zn601   1.987   .     S
O591   Zn602   1.987   .     S
O592   S593    1.502   .     D
C603   O673    1.301   .     A
C603   C621    1.432   .     S
C603   O647    1.303   .     A
C604   C620    1.412   .     A
C604   S684    1.783   .     S
C604   C692    1.377   .     S
C605   C620    1.413   .     A
C605   S685    1.781   .     S
C605   C714    1.377   .     S
C606   C621    1.410   .     A
C606   S686    1.777   .     S
C607   C618    1.402   .     A
C607   H629    1.083   .     S
C607   C611    1.380   .     A
C608   H637    1.083   .     S
C608   C619    1.401   .     A
C608   C612    1.379   .     A
C609   H638    1.083   .     S
C609   C613    1.380   .     A
C609   C619    1.402   .     A
C610   C615    1.380   .     A
C610   H639    1.083   .     S
C610   C618    1.401   .     A
C611   C616    1.393   .     A
C611   H640    1.083   .     S
C612   C617    1.393   .     A
C612   H641    1.082   .     S
C613   C617    1.393   .     A
C613   H642    1.083   .     S
C614   O669    1.302   .     A
C614   O658    1.301   .     A
C614   C620    1.432   .     S
C615   H643    1.082   .     S
C615   C616    1.393   .     A
C616   C622    1.419   .     S
C617   C623    1.419   .     S
C618   C1393   1.444   1_554 S
C619   C1392   1.444   .     S
C621   C628    1.412   .     A
C622   O677    1.299   .     A
C622   O674    1.300   .     A
C623   O675    1.299   .     A
C623   O676    1.300   .     A
C624   N646    1.383   .     A
C624   S679    1.778   .     S
C625   N645    1.383   .     A
C625   S680    1.778   .     S
C625   C110    1.423   1_565 S
C626   S681    1.780   .     S
C626   N646    1.384   .     A
C627   S682    1.777   .     S
C627   N645    1.383   .     A
C627   C108    1.423   1_565 S
C628   S683    1.779   .     S
H630   O652    0.990   .     S
H631   O655    0.990   .     S
H632   O659    0.990   .     S
H633   O662    0.988   .     S
H634   O665    0.988   .     S
H635   O668    0.989   .     S
H636   O672    0.989   .     S
H644   O649    0.990   .     S
N645   Zn687   2.051   .     S
N646   Zn688   2.051   .     S
O647   Zn687   2.009   .     S
O648   S679    1.504   .     D
O649   S679    1.678   .     S
O650   S680    1.503   .     D
O651   S680    1.499   .     D
O652   S680    1.682   .     S
O653   S681    1.502   .     D
O654   S681    1.503   .     D
O655   S681    1.679   .     S
O656   S682    1.504   .     D
O657   S682    1.500   .     D
O658   Zn688   2.009   .     S
O659   S682    1.682   .     S
O660   S683    1.504   .     D
O661   S683    1.503   .     D
O662   S683    1.676   .     S
O663   S684    1.503   .     D
O664   S684    1.504   .     D
O665   S684    1.678   .     S
O666   S685    1.503   .     D
O667   S685    1.501   .     D
O668   S685    1.684   .     S
O669   Zn687   2.010   .     S
O670   S686    1.504   .     D
O671   S686    1.502   .     D
O672   S686    1.676   .     S
O673   Zn688   2.010   .     S
O674   Zn687   1.986   .     S
O675   Zn688   1.986   .     S
O676   Zn687   1.987   .     S
O677   Zn688   1.987   .     S
O678   S679    1.502   .     D
C689   O759    1.301   .     A
C689   C707    1.432   .     S
C689   O733    1.303   .     A
C690   C706    1.412   .     A
C690   S770    1.783   .     S
C690   C520    1.377   1_655 S
C691   C706    1.413   .     A
C691   S771    1.781   .     S
C691   C542    1.377   1_655 S
C692   C707    1.410   .     A
C692   S772    1.777   .     S
C693   C704    1.402   .     A
C693   H715    1.083   .     S
C693   C697    1.380   .     A
C694   H723    1.083   .     S
C694   C705    1.401   .     A
C694   C698    1.379   .     A
C695   H724    1.083   .     S
C695   C699    1.380   .     A
C695   C705    1.402   .     A
C696   C701    1.380   .     A
C696   H725    1.083   .     S
C696   C704    1.401   .     A
C697   C702    1.393   .     A
C697   H726    1.083   .     S
C698   C703    1.393   .     A
C698   H727    1.082   .     S
C699   C703    1.393   .     A
C699   H728    1.083   .     S
C700   O755    1.302   .     A
C700   O744    1.301   .     A
C700   C706    1.432   .     S
C701   H729    1.082   .     S
C701   C702    1.393   .     A
C702   C708    1.419   .     S
C703   C709    1.419   .     S
C704   C1479   1.444   1_554 S
C705   C1478   1.444   .     S
C707   C714    1.412   .     A
C708   O763    1.299   .     A
C708   O760    1.300   .     A
C709   O761    1.299   .     A
C709   O762    1.300   .     A
C710   N732    1.383   .     A
C710   S765    1.778   .     S
C711   N731    1.383   .     A
C711   S766    1.778   .     S
C711   C196    1.423   1_565 S
C712   S767    1.780   .     S
C712   N732    1.384   .     A
C713   S768    1.777   .     S
C713   N731    1.383   .     A
C713   C194    1.423   1_565 S
C714   S769    1.779   .     S
H716   O738    0.990   .     S
H717   O741    0.990   .     S
H718   O745    0.990   .     S
H719   O748    0.988   .     S
H720   O751    0.988   .     S
H721   O754    0.989   .     S
H722   O758    0.989   .     S
H730   O735    0.990   .     S
N731   Zn773   2.051   .     S
N732   Zn774   2.051   .     S
O733   Zn773   2.009   .     S
O734   S765    1.504   .     D
O735   S765    1.678   .     S
O736   S766    1.503   .     D
O737   S766    1.499   .     D
O738   S766    1.682   .     S
O739   S767    1.502   .     D
O740   S767    1.503   .     D
O741   S767    1.679   .     S
O742   S768    1.504   .     D
O743   S768    1.500   .     D
O744   Zn774   2.009   .     S
O745   S768    1.682   .     S
O746   S769    1.504   .     D
O747   S769    1.503   .     D
O748   S769    1.676   .     S
O749   S770    1.503   .     D
O750   S770    1.504   .     D
O751   S770    1.678   .     S
O752   S771    1.503   .     D
O753   S771    1.501   .     D
O754   S771    1.684   .     S
O755   Zn773   2.010   .     S
O756   S772    1.504   .     D
O757   S772    1.502   .     D
O758   S772    1.676   .     S
O759   Zn774   2.010   .     S
O760   Zn773   1.986   .     S
O761   Zn774   1.986   .     S
O762   Zn773   1.987   .     S
O763   Zn774   1.987   .     S
O764   S765    1.502   .     D
C775   O845    1.301   .     A
C775   C793    1.432   .     S
C775   O819    1.303   .     A
C776   C792    1.412   .     A
C776   S856    1.783   .     S
C776   C864    1.377   .     S
C777   C792    1.413   .     A
C777   S857    1.781   .     S
C777   C886    1.377   .     S
C778   C793    1.410   .     A
C778   S858    1.777   .     S
C778   C948    1.377   1_455 S
C779   C790    1.402   .     A
C779   H801    1.083   .     S
C779   C783    1.380   .     A
C780   H809    1.083   .     S
C780   C791    1.401   .     A
C780   C784    1.379   .     A
C781   H810    1.083   .     S
C781   C785    1.380   .     A
C781   C791    1.402   .     A
C782   C787    1.380   .     A
C782   H811    1.083   .     S
C782   C790    1.401   .     A
C783   C788    1.393   .     A
C783   H812    1.083   .     S
C784   C789    1.393   .     A
C784   H813    1.082   .     S
C785   C789    1.393   .     A
C785   H814    1.083   .     S
C786   O841    1.302   .     A
C786   O830    1.301   .     A
C786   C792    1.432   .     S
C787   H815    1.082   .     S
C787   C788    1.393   .     A
C788   C794    1.419   .     S
C789   C795    1.419   .     S
C791   C16     1.444   1_556 S
C793   C800    1.412   .     A
C794   O849    1.299   .     A
C794   O846    1.300   .     A
C795   O847    1.299   .     A
C795   O848    1.300   .     A
C796   N818    1.383   .     A
C796   S851    1.778   .     S
C796   C1315   1.423   1_545 S
C797   N817    1.383   .     A
C797   S852    1.778   .     S
C797   C1056   1.423   .     S
C798   S853    1.780   .     S
C798   N818    1.384   .     A
C798   C1313   1.423   1_545 S
C799   S854    1.777   .     S
C799   N817    1.383   .     A
C799   C1054   1.423   .     S
C800   S855    1.779   .     S
C800   C949    1.377   1_455 S
H802   O824    0.990   .     S
H803   O827    0.990   .     S
H804   O831    0.990   .     S
H805   O834    0.988   .     S
H806   O837    0.988   .     S
H807   O840    0.989   .     S
H808   O844    0.989   .     S
H816   O821    0.990   .     S
N817   Zn859   2.051   .     S
N818   Zn860   2.051   .     S
O819   Zn859   2.009   .     S
O820   S851    1.504   .     D
O821   S851    1.678   .     S
O822   S852    1.503   .     D
O823   S852    1.499   .     D
O824   S852    1.682   .     S
O825   S853    1.502   .     D
O826   S853    1.503   .     D
O827   S853    1.679   .     S
O828   S854    1.504   .     D
O829   S854    1.500   .     D
O830   Zn860   2.009   .     S
O831   S854    1.682   .     S
O832   S855    1.504   .     D
O833   S855    1.503   .     D
O834   S855    1.676   .     S
O835   S856    1.503   .     D
O836   S856    1.504   .     D
O837   S856    1.678   .     S
O838   S857    1.503   .     D
O839   S857    1.501   .     D
O840   S857    1.684   .     S
O841   Zn859   2.010   .     S
O842   S858    1.504   .     D
O843   S858    1.502   .     D
O844   S858    1.676   .     S
O845   Zn860   2.010   .     S
O846   Zn859   1.986   .     S
O847   Zn860   1.986   .     S
O848   Zn859   1.987   .     S
O849   Zn860   1.987   .     S
O850   S851    1.502   .     D
C861   O931    1.301   .     A
C861   C879    1.432   .     S
C861   O905    1.303   .     A
C862   C878    1.412   .     A
C862   S942    1.783   .     S
C862   C950    1.377   .     S
C863   C878    1.413   .     A
C863   S943    1.781   .     S
C863   C972    1.377   .     S
C864   C879    1.410   .     A
C864   S944    1.777   .     S
C865   C876    1.402   .     A
C865   H887    1.083   .     S
C865   C869    1.380   .     A
C866   H895    1.083   .     S
C866   C877    1.401   .     A
C866   C870    1.379   .     A
C867   H896    1.083   .     S
C867   C871    1.380   .     A
C867   C877    1.402   .     A
C868   C873    1.380   .     A
C868   H897    1.083   .     S
C868   C876    1.401   .     A
C869   C874    1.393   .     A
C869   H898    1.083   .     S
C870   C875    1.393   .     A
C870   H899    1.082   .     S
C871   C875    1.393   .     A
C871   H900    1.083   .     S
C872   O927    1.302   .     A
C872   O916    1.301   .     A
C872   C878    1.432   .     S
C873   H901    1.082   .     S
C873   C874    1.393   .     A
C874   C880    1.419   .     S
C875   C881    1.419   .     S
C877   C102    1.444   1_556 S
C879   C886    1.412   .     A
C880   O935    1.299   .     A
C880   O932    1.300   .     A
C881   O933    1.299   .     A
C881   O934    1.300   .     A
C882   N904    1.383   .     A
C882   S937    1.778   .     S
C882   C1401   1.423   1_545 S
C883   N903    1.383   .     A
C883   S938    1.778   .     S
C883   C1142   1.423   .     S
C884   S939    1.780   .     S
C884   N904    1.384   .     A
C884   C1399   1.423   1_545 S
C885   S940    1.777   .     S
C885   N903    1.383   .     A
C885   C1140   1.423   .     S
C886   S941    1.779   .     S
H888   O910    0.990   .     S
H889   O913    0.990   .     S
H890   O917    0.990   .     S
H891   O920    0.988   .     S
H892   O923    0.988   .     S
H893   O926    0.989   .     S
H894   O930    0.989   .     S
H902   O907    0.990   .     S
N903   Zn945   2.051   .     S
N904   Zn946   2.051   .     S
O905   Zn945   2.009   .     S
O906   S937    1.504   .     D
O907   S937    1.678   .     S
O908   S938    1.503   .     D
O909   S938    1.499   .     D
O910   S938    1.682   .     S
O911   S939    1.502   .     D
O912   S939    1.503   .     D
O913   S939    1.679   .     S
O914   S940    1.504   .     D
O915   S940    1.500   .     D
O916   Zn946   2.009   .     S
O917   S940    1.682   .     S
O918   S941    1.504   .     D
O919   S941    1.503   .     D
O920   S941    1.676   .     S
O921   S942    1.503   .     D
O922   S942    1.504   .     D
O923   S942    1.678   .     S
O924   S943    1.503   .     D
O925   S943    1.501   .     D
O926   S943    1.684   .     S
O927   Zn945   2.010   .     S
O928   S944    1.504   .     D
O929   S944    1.502   .     D
O930   S944    1.676   .     S
O931   Zn946   2.010   .     S
O932   Zn945   1.986   .     S
O933   Zn946   1.986   .     S
O934   Zn945   1.987   .     S
O935   Zn946   1.987   .     S
O936   S937    1.502   .     D
C947   O1017   1.301   .     A
C947   C965    1.432   .     S
C947   O991    1.303   .     A
C948   C964    1.412   .     A
C948   S1028   1.783   .     S
C948   C778    1.377   1_655 S
C949   C964    1.413   .     A
C949   S1029   1.781   .     S
C949   C800    1.377   1_655 S
C950   C965    1.410   .     A
C950   S1030   1.777   .     S
C951   C962    1.402   .     A
C951   H973    1.083   .     S
C951   C955    1.380   .     A
C952   H981    1.083   .     S
C952   C963    1.401   .     A
C952   C956    1.379   .     A
C953   H982    1.083   .     S
C953   C957    1.380   .     A
C953   C963    1.402   .     A
C954   C959    1.380   .     A
C954   H983    1.083   .     S
C954   C962    1.401   .     A
C955   C960    1.393   .     A
C955   H984    1.083   .     S
C956   C961    1.393   .     A
C956   H985    1.082   .     S
C957   C961    1.393   .     A
C957   H986    1.083   .     S
C958   O1013   1.302   .     A
C958   O1002   1.301   .     A
C958   C964    1.432   .     S
C959   H987    1.082   .     S
C959   C960    1.393   .     A
C960   C966    1.419   .     S
C961   C967    1.419   .     S
C963   C188    1.444   1_556 S
C965   C972    1.412   .     A
C966   O1021   1.299   .     A
C966   O1018   1.300   .     A
C967   O1019   1.299   .     A
C967   O1020   1.300   .     A
C968   N990    1.383   .     A
C968   S1023   1.778   .     S
C968   C1487   1.423   1_545 S
C969   N989    1.383   .     A
C969   S1024   1.778   .     S
C969   C1228   1.423   .     S
C970   S1025   1.780   .     S
C970   N990    1.384   .     A
C970   C1485   1.423   1_545 S
C971   S1026   1.777   .     S
C971   N989    1.383   .     A
C971   C1226   1.423   .     S
C972   S1027   1.779   .     S
H974   O996    0.990   .     S
H975   O999    0.990   .     S
H976   O1003   0.990   .     S
H977   O1006   0.988   .     S
H978   O1009   0.988   .     S
H979   O1012   0.989   .     S
H980   O1016   0.989   .     S
H988   O993    0.990   .     S
N989   Zn1031  2.051   .     S
N990   Zn1032  2.051   .     S
O991   Zn1031  2.009   .     S
O992   S1023   1.504   .     D
O993   S1023   1.678   .     S
O994   S1024   1.503   .     D
O995   S1024   1.499   .     D
O996   S1024   1.682   .     S
O997   S1025   1.502   .     D
O998   S1025   1.503   .     D
O999   S1025   1.679   .     S
O1000  S1026   1.504   .     D
O1001  S1026   1.500   .     D
O1002  Zn1032  2.009   .     S
O1003  S1026   1.682   .     S
O1004  S1027   1.504   .     D
O1005  S1027   1.503   .     D
O1006  S1027   1.676   .     S
O1007  S1028   1.503   .     D
O1008  S1028   1.504   .     D
O1009  S1028   1.678   .     S
O1010  S1029   1.503   .     D
O1011  S1029   1.501   .     D
O1012  S1029   1.684   .     S
O1013  Zn1031  2.010   .     S
O1014  S1030   1.504   .     D
O1015  S1030   1.502   .     D
O1016  S1030   1.676   .     S
O1017  Zn1032  2.010   .     S
O1018  Zn1031  1.986   .     S
O1019  Zn1032  1.986   .     S
O1020  Zn1031  1.987   .     S
O1021  Zn1032  1.987   .     S
O1022  S1023   1.502   .     D
C1033  O1103   1.301   .     A
C1033  C1051   1.432   .     S
C1033  O1077   1.303   .     A
C1034  C1050   1.412   .     A
C1034  S1114   1.783   .     S
C1034  C1122   1.377   .     S
C1035  C1050   1.413   .     A
C1035  S1115   1.781   .     S
C1035  C1144   1.377   .     S
C1036  C1051   1.410   .     A
C1036  S1116   1.777   .     S
C1036  C1206   1.377   1_455 S
C1037  C1048   1.402   .     A
C1037  H1059   1.083   .     S
C1037  C1041   1.380   .     A
C1038  H1067   1.083   .     S
C1038  C1049   1.401   .     A
C1038  C1042   1.379   .     A
C1039  H1068   1.083   .     S
C1039  C1043   1.380   .     A
C1039  C1049   1.402   .     A
C1040  C1045   1.380   .     A
C1040  H1069   1.083   .     S
C1040  C1048   1.401   .     A
C1041  C1046   1.393   .     A
C1041  H1070   1.083   .     S
C1042  C1047   1.393   .     A
C1042  H1071   1.082   .     S
C1043  C1047   1.393   .     A
C1043  H1072   1.083   .     S
C1044  O1099   1.302   .     A
C1044  O1088   1.301   .     A
C1044  C1050   1.432   .     S
C1045  H1073   1.082   .     S
C1045  C1046   1.393   .     A
C1046  C1052   1.419   .     S
C1047  C1053   1.419   .     S
C1049  C274    1.444   1_556 S
C1051  C1058   1.412   .     A
C1052  O1107   1.299   .     A
C1052  O1104   1.300   .     A
C1053  O1105   1.299   .     A
C1053  O1106   1.300   .     A
C1054  N1076   1.383   .     A
C1054  S1109   1.778   .     S
C1055  N1075   1.383   .     A
C1055  S1110   1.778   .     S
C1055  C1314   1.423   .     S
C1056  S1111   1.780   .     S
C1056  N1076   1.384   .     A
C1057  S1112   1.777   .     S
C1057  N1075   1.383   .     A
C1057  C1312   1.423   .     S
C1058  S1113   1.779   .     S
C1058  C1207   1.377   1_455 S
H1060  O1082   0.990   .     S
H1061  O1085   0.990   .     S
H1062  O1089   0.990   .     S
H1063  O1092   0.988   .     S
H1064  O1095   0.988   .     S
H1065  O1098   0.989   .     S
H1066  O1102   0.989   .     S
H1074  O1079   0.990   .     S
N1075  Zn1117  2.051   .     S
N1076  Zn1118  2.051   .     S
O1077  Zn1117  2.009   .     S
O1078  S1109   1.504   .     D
O1079  S1109   1.678   .     S
O1080  S1110   1.503   .     D
O1081  S1110   1.499   .     D
O1082  S1110   1.682   .     S
O1083  S1111   1.502   .     D
O1084  S1111   1.503   .     D
O1085  S1111   1.679   .     S
O1086  S1112   1.504   .     D
O1087  S1112   1.500   .     D
O1088  Zn1118  2.009   .     S
O1089  S1112   1.682   .     S
O1090  S1113   1.504   .     D
O1091  S1113   1.503   .     D
O1092  S1113   1.676   .     S
O1093  S1114   1.503   .     D
O1094  S1114   1.504   .     D
O1095  S1114   1.678   .     S
O1096  S1115   1.503   .     D
O1097  S1115   1.501   .     D
O1098  S1115   1.684   .     S
O1099  Zn1117  2.010   .     S
O1100  S1116   1.504   .     D
O1101  S1116   1.502   .     D
O1102  S1116   1.676   .     S
O1103  Zn1118  2.010   .     S
O1104  Zn1117  1.986   .     S
O1105  Zn1118  1.986   .     S
O1106  Zn1117  1.987   .     S
O1107  Zn1118  1.987   .     S
O1108  S1109   1.502   .     D
C1119  O1189   1.301   .     A
C1119  C1137   1.432   .     S
C1119  O1163   1.303   .     A
C1120  C1136   1.412   .     A
C1120  S1200   1.783   .     S
C1120  C1208   1.377   .     S
C1121  C1136   1.413   .     A
C1121  S1201   1.781   .     S
C1121  C1230   1.377   .     S
C1122  C1137   1.410   .     A
C1122  S1202   1.777   .     S
C1123  C1134   1.402   .     A
C1123  H1145   1.083   .     S
C1123  C1127   1.380   .     A
C1124  H1153   1.083   .     S
C1124  C1135   1.401   .     A
C1124  C1128   1.379   .     A
C1125  H1154   1.083   .     S
C1125  C1129   1.380   .     A
C1125  C1135   1.402   .     A
C1126  C1131   1.380   .     A
C1126  H1155   1.083   .     S
C1126  C1134   1.401   .     A
C1127  C1132   1.393   .     A
C1127  H1156   1.083   .     S
C1128  C1133   1.393   .     A
C1128  H1157   1.082   .     S
C1129  C1133   1.393   .     A
C1129  H1158   1.083   .     S
C1130  O1185   1.302   .     A
C1130  O1174   1.301   .     A
C1130  C1136   1.432   .     S
C1131  H1159   1.082   .     S
C1131  C1132   1.393   .     A
C1132  C1138   1.419   .     S
C1133  C1139   1.419   .     S
C1135  C360    1.444   1_556 S
C1137  C1144   1.412   .     A
C1138  O1193   1.299   .     A
C1138  O1190   1.300   .     A
C1139  O1191   1.299   .     A
C1139  O1192   1.300   .     A
C1140  N1162   1.383   .     A
C1140  S1195   1.778   .     S
C1141  N1161   1.383   .     A
C1141  S1196   1.778   .     S
C1141  C1400   1.423   .     S
C1142  S1197   1.780   .     S
C1142  N1162   1.384   .     A
C1143  S1198   1.777   .     S
C1143  N1161   1.383   .     A
C1143  C1398   1.423   .     S
C1144  S1199   1.779   .     S
H1146  O1168   0.990   .     S
H1147  O1171   0.990   .     S
H1148  O1175   0.990   .     S
H1149  O1178   0.988   .     S
H1150  O1181   0.988   .     S
H1151  O1184   0.989   .     S
H1152  O1188   0.989   .     S
H1160  O1165   0.990   .     S
N1161  Zn1203  2.051   .     S
N1162  Zn1204  2.051   .     S
O1163  Zn1203  2.009   .     S
O1164  S1195   1.504   .     D
O1165  S1195   1.678   .     S
O1166  S1196   1.503   .     D
O1167  S1196   1.499   .     D
O1168  S1196   1.682   .     S
O1169  S1197   1.502   .     D
O1170  S1197   1.503   .     D
O1171  S1197   1.679   .     S
O1172  S1198   1.504   .     D
O1173  S1198   1.500   .     D
O1174  Zn1204  2.009   .     S
O1175  S1198   1.682   .     S
O1176  S1199   1.504   .     D
O1177  S1199   1.503   .     D
O1178  S1199   1.676   .     S
O1179  S1200   1.503   .     D
O1180  S1200   1.504   .     D
O1181  S1200   1.678   .     S
O1182  S1201   1.503   .     D
O1183  S1201   1.501   .     D
O1184  S1201   1.684   .     S
O1185  Zn1203  2.010   .     S
O1186  S1202   1.504   .     D
O1187  S1202   1.502   .     D
O1188  S1202   1.676   .     S
O1189  Zn1204  2.010   .     S
O1190  Zn1203  1.986   .     S
O1191  Zn1204  1.986   .     S
O1192  Zn1203  1.987   .     S
O1193  Zn1204  1.987   .     S
O1194  S1195   1.502   .     D
C1205  O1275   1.301   .     A
C1205  C1223   1.432   .     S
C1205  O1249   1.303   .     A
C1206  C1222   1.412   .     A
C1206  S1286   1.783   .     S
C1206  C1036   1.377   1_655 S
C1207  C1222   1.413   .     A
C1207  S1287   1.781   .     S
C1207  C1058   1.377   1_655 S
C1208  C1223   1.410   .     A
C1208  S1288   1.777   .     S
C1209  C1220   1.402   .     A
C1209  H1231   1.083   .     S
C1209  C1213   1.380   .     A
C1210  H1239   1.083   .     S
C1210  C1221   1.401   .     A
C1210  C1214   1.379   .     A
C1211  H1240   1.083   .     S
C1211  C1215   1.380   .     A
C1211  C1221   1.402   .     A
C1212  C1217   1.380   .     A
C1212  H1241   1.083   .     S
C1212  C1220   1.401   .     A
C1213  C1218   1.393   .     A
C1213  H1242   1.083   .     S
C1214  C1219   1.393   .     A
C1214  H1243   1.082   .     S
C1215  C1219   1.393   .     A
C1215  H1244   1.083   .     S
C1216  O1271   1.302   .     A
C1216  O1260   1.301   .     A
C1216  C1222   1.432   .     S
C1217  H1245   1.082   .     S
C1217  C1218   1.393   .     A
C1218  C1224   1.419   .     S
C1219  C1225   1.419   .     S
C1221  C446    1.444   1_556 S
C1223  C1230   1.412   .     A
C1224  O1279   1.299   .     A
C1224  O1276   1.300   .     A
C1225  O1277   1.299   .     A
C1225  O1278   1.300   .     A
C1226  N1248   1.383   .     A
C1226  S1281   1.778   .     S
C1227  N1247   1.383   .     A
C1227  S1282   1.778   .     S
C1227  C1486   1.423   .     S
C1228  S1283   1.780   .     S
C1228  N1248   1.384   .     A
C1229  S1284   1.777   .     S
C1229  N1247   1.383   .     A
C1229  C1484   1.423   .     S
C1230  S1285   1.779   .     S
H1232  O1254   0.990   .     S
H1233  O1257   0.990   .     S
H1234  O1261   0.990   .     S
H1235  O1264   0.988   .     S
H1236  O1267   0.988   .     S
H1237  O1270   0.989   .     S
H1238  O1274   0.989   .     S
H1246  O1251   0.990   .     S
N1247  Zn1289  2.051   .     S
N1248  Zn1290  2.051   .     S
O1249  Zn1289  2.009   .     S
O1250  S1281   1.504   .     D
O1251  S1281   1.678   .     S
O1252  S1282   1.503   .     D
O1253  S1282   1.499   .     D
O1254  S1282   1.682   .     S
O1255  S1283   1.502   .     D
O1256  S1283   1.503   .     D
O1257  S1283   1.679   .     S
O1258  S1284   1.504   .     D
O1259  S1284   1.500   .     D
O1260  Zn1290  2.009   .     S
O1261  S1284   1.682   .     S
O1262  S1285   1.504   .     D
O1263  S1285   1.503   .     D
O1264  S1285   1.676   .     S
O1265  S1286   1.503   .     D
O1266  S1286   1.504   .     D
O1267  S1286   1.678   .     S
O1268  S1287   1.503   .     D
O1269  S1287   1.501   .     D
O1270  S1287   1.684   .     S
O1271  Zn1289  2.010   .     S
O1272  S1288   1.504   .     D
O1273  S1288   1.502   .     D
O1274  S1288   1.676   .     S
O1275  Zn1290  2.010   .     S
O1276  Zn1289  1.986   .     S
O1277  Zn1290  1.986   .     S
O1278  Zn1289  1.987   .     S
O1279  Zn1290  1.987   .     S
O1280  S1281   1.502   .     D
C1291  O1361   1.301   .     A
C1291  C1309   1.432   .     S
C1291  O1335   1.303   .     A
C1292  C1308   1.412   .     A
C1292  S1372   1.783   .     S
C1292  C1380   1.377   .     S
C1293  C1308   1.413   .     A
C1293  S1373   1.781   .     S
C1293  C1402   1.377   .     S
C1294  C1309   1.410   .     A
C1294  S1374   1.777   .     S
C1294  C1464   1.377   1_455 S
C1295  C1306   1.402   .     A
C1295  H1317   1.083   .     S
C1295  C1299   1.380   .     A
C1296  H1325   1.083   .     S
C1296  C1307   1.401   .     A
C1296  C1300   1.379   .     A
C1297  H1326   1.083   .     S
C1297  C1301   1.380   .     A
C1297  C1307   1.402   .     A
C1298  C1303   1.380   .     A
C1298  H1327   1.083   .     S
C1298  C1306   1.401   .     A
C1299  C1304   1.393   .     A
C1299  H1328   1.083   .     S
C1300  C1305   1.393   .     A
C1300  H1329   1.082   .     S
C1301  C1305   1.393   .     A
C1301  H1330   1.083   .     S
C1302  O1357   1.302   .     A
C1302  O1346   1.301   .     A
C1302  C1308   1.432   .     S
C1303  H1331   1.082   .     S
C1303  C1304   1.393   .     A
C1304  C1310   1.419   .     S
C1305  C1311   1.419   .     S
C1307  C532    1.444   1_556 S
C1309  C1316   1.412   .     A
C1310  O1365   1.299   .     A
C1310  O1362   1.300   .     A
C1311  O1363   1.299   .     A
C1311  O1364   1.300   .     A
C1312  N1334   1.383   .     A
C1312  S1367   1.778   .     S
C1313  N1333   1.383   .     A
C1313  S1368   1.778   .     S
C1313  C798    1.423   1_565 S
C1314  S1369   1.780   .     S
C1314  N1334   1.384   .     A
C1315  S1370   1.777   .     S
C1315  N1333   1.383   .     A
C1315  C796    1.423   1_565 S
C1316  S1371   1.779   .     S
C1316  C1465   1.377   1_455 S
H1318  O1340   0.990   .     S
H1319  O1343   0.990   .     S
H1320  O1347   0.990   .     S
H1321  O1350   0.988   .     S
H1322  O1353   0.988   .     S
H1323  O1356   0.989   .     S
H1324  O1360   0.989   .     S
H1332  O1337   0.990   .     S
N1333  Zn1375  2.051   .     S
N1334  Zn1376  2.051   .     S
O1335  Zn1375  2.009   .     S
O1336  S1367   1.504   .     D
O1337  S1367   1.678   .     S
O1338  S1368   1.503   .     D
O1339  S1368   1.499   .     D
O1340  S1368   1.682   .     S
O1341  S1369   1.502   .     D
O1342  S1369   1.503   .     D
O1343  S1369   1.679   .     S
O1344  S1370   1.504   .     D
O1345  S1370   1.500   .     D
O1346  Zn1376  2.009   .     S
O1347  S1370   1.682   .     S
O1348  S1371   1.504   .     D
O1349  S1371   1.503   .     D
O1350  S1371   1.676   .     S
O1351  S1372   1.503   .     D
O1352  S1372   1.504   .     D
O1353  S1372   1.678   .     S
O1354  S1373   1.503   .     D
O1355  S1373   1.501   .     D
O1356  S1373   1.684   .     S
O1357  Zn1375  2.010   .     S
O1358  S1374   1.504   .     D
O1359  S1374   1.502   .     D
O1360  S1374   1.676   .     S
O1361  Zn1376  2.010   .     S
O1362  Zn1375  1.986   .     S
O1363  Zn1376  1.986   .     S
O1364  Zn1375  1.987   .     S
O1365  Zn1376  1.987   .     S
O1366  S1367   1.502   .     D
C1377  O1447   1.301   .     A
C1377  C1395   1.432   .     S
C1377  O1421   1.303   .     A
C1378  C1394   1.412   .     A
C1378  S1458   1.783   .     S
C1378  C1466   1.377   .     S
C1379  C1394   1.413   .     A
C1379  S1459   1.781   .     S
C1379  C1488   1.377   .     S
C1380  C1395   1.410   .     A
C1380  S1460   1.777   .     S
C1381  C1392   1.402   .     A
C1381  H1403   1.083   .     S
C1381  C1385   1.380   .     A
C1382  H1411   1.083   .     S
C1382  C1393   1.401   .     A
C1382  C1386   1.379   .     A
C1383  H1412   1.083   .     S
C1383  C1387   1.380   .     A
C1383  C1393   1.402   .     A
C1384  C1389   1.380   .     A
C1384  H1413   1.083   .     S
C1384  C1392   1.401   .     A
C1385  C1390   1.393   .     A
C1385  H1414   1.083   .     S
C1386  C1391   1.393   .     A
C1386  H1415   1.082   .     S
C1387  C1391   1.393   .     A
C1387  H1416   1.083   .     S
C1388  O1443   1.302   .     A
C1388  O1432   1.301   .     A
C1388  C1394   1.432   .     S
C1389  H1417   1.082   .     S
C1389  C1390   1.393   .     A
C1390  C1396   1.419   .     S
C1391  C1397   1.419   .     S
C1393  C618    1.444   1_556 S
C1395  C1402   1.412   .     A
C1396  O1451   1.299   .     A
C1396  O1448   1.300   .     A
C1397  O1449   1.299   .     A
C1397  O1450   1.300   .     A
C1398  N1420   1.383   .     A
C1398  S1453   1.778   .     S
C1399  N1419   1.383   .     A
C1399  S1454   1.778   .     S
C1399  C884    1.423   1_565 S
C1400  S1455   1.780   .     S
C1400  N1420   1.384   .     A
C1401  S1456   1.777   .     S
C1401  N1419   1.383   .     A
C1401  C882    1.423   1_565 S
C1402  S1457   1.779   .     S
H1404  O1426   0.990   .     S
H1405  O1429   0.990   .     S
H1406  O1433   0.990   .     S
H1407  O1436   0.988   .     S
H1408  O1439   0.988   .     S
H1409  O1442   0.989   .     S
H1410  O1446   0.989   .     S
H1418  O1423   0.990   .     S
N1419  Zn1461  2.051   .     S
N1420  Zn1462  2.051   .     S
O1421  Zn1461  2.009   .     S
O1422  S1453   1.504   .     D
O1423  S1453   1.678   .     S
O1424  S1454   1.503   .     D
O1425  S1454   1.499   .     D
O1426  S1454   1.682   .     S
O1427  S1455   1.502   .     D
O1428  S1455   1.503   .     D
O1429  S1455   1.679   .     S
O1430  S1456   1.504   .     D
O1431  S1456   1.500   .     D
O1432  Zn1462  2.009   .     S
O1433  S1456   1.682   .     S
O1434  S1457   1.504   .     D
O1435  S1457   1.503   .     D
O1436  S1457   1.676   .     S
O1437  S1458   1.503   .     D
O1438  S1458   1.504   .     D
O1439  S1458   1.678   .     S
O1440  S1459   1.503   .     D
O1441  S1459   1.501   .     D
O1442  S1459   1.684   .     S
O1443  Zn1461  2.010   .     S
O1444  S1460   1.504   .     D
O1445  S1460   1.502   .     D
O1446  S1460   1.676   .     S
O1447  Zn1462  2.010   .     S
O1448  Zn1461  1.986   .     S
O1449  Zn1462  1.986   .     S
O1450  Zn1461  1.987   .     S
O1451  Zn1462  1.987   .     S
O1452  S1453   1.502   .     D
C1463  O1533   1.301   .     A
C1463  C1481   1.432   .     S
C1463  O1507   1.303   .     A
C1464  C1480   1.412   .     A
C1464  S1544   1.783   .     S
C1464  C1294   1.377   1_655 S
C1465  C1480   1.413   .     A
C1465  S1545   1.781   .     S
C1465  C1316   1.377   1_655 S
C1466  C1481   1.410   .     A
C1466  S1546   1.777   .     S
C1467  C1478   1.402   .     A
C1467  H1489   1.083   .     S
C1467  C1471   1.380   .     A
C1468  H1497   1.083   .     S
C1468  C1479   1.401   .     A
C1468  C1472   1.379   .     A
C1469  H1498   1.083   .     S
C1469  C1473   1.380   .     A
C1469  C1479   1.402   .     A
C1470  C1475   1.380   .     A
C1470  H1499   1.083   .     S
C1470  C1478   1.401   .     A
C1471  C1476   1.393   .     A
C1471  H1500   1.083   .     S
C1472  C1477   1.393   .     A
C1472  H1501   1.082   .     S
C1473  C1477   1.393   .     A
C1473  H1502   1.083   .     S
C1474  O1529   1.302   .     A
C1474  O1518   1.301   .     A
C1474  C1480   1.432   .     S
C1475  H1503   1.082   .     S
C1475  C1476   1.393   .     A
C1476  C1482   1.419   .     S
C1477  C1483   1.419   .     S
C1479  C704    1.444   1_556 S
C1481  C1488   1.412   .     A
C1482  O1537   1.299   .     A
C1482  O1534   1.300   .     A
C1483  O1535   1.299   .     A
C1483  O1536   1.300   .     A
C1484  N1506   1.383   .     A
C1484  S1539   1.778   .     S
C1485  N1505   1.383   .     A
C1485  S1540   1.778   .     S
C1485  C970    1.423   1_565 S
C1486  S1541   1.780   .     S
C1486  N1506   1.384   .     A
C1487  S1542   1.777   .     S
C1487  N1505   1.383   .     A
C1487  C968    1.423   1_565 S
C1488  S1543   1.779   .     S
H1490  O1512   0.990   .     S
H1491  O1515   0.990   .     S
H1492  O1519   0.990   .     S
H1493  O1522   0.988   .     S
H1494  O1525   0.988   .     S
H1495  O1528   0.989   .     S
H1496  O1532   0.989   .     S
H1504  O1509   0.990   .     S
N1505  Zn1547  2.051   .     S
N1506  Zn1548  2.051   .     S
O1507  Zn1547  2.009   .     S
O1508  S1539   1.504   .     D
O1509  S1539   1.678   .     S
O1510  S1540   1.503   .     D
O1511  S1540   1.499   .     D
O1512  S1540   1.682   .     S
O1513  S1541   1.502   .     D
O1514  S1541   1.503   .     D
O1515  S1541   1.679   .     S
O1516  S1542   1.504   .     D
O1517  S1542   1.500   .     D
O1518  Zn1548  2.009   .     S
O1519  S1542   1.682   .     S
O1520  S1543   1.504   .     D
O1521  S1543   1.503   .     D
O1522  S1543   1.676   .     S
O1523  S1544   1.503   .     D
O1524  S1544   1.504   .     D
O1525  S1544   1.678   .     S
O1526  S1545   1.503   .     D
O1527  S1545   1.501   .     D
O1528  S1545   1.684   .     S
O1529  Zn1547  2.010   .     S
O1530  S1546   1.504   .     D
O1531  S1546   1.502   .     D
O1532  S1546   1.676   .     S
O1533  Zn1548  2.010   .     S
O1534  Zn1547  1.986   .     S
O1535  Zn1548  1.986   .     S
O1536  Zn1547  1.987   .     S
O1537  Zn1548  1.987   .     S
O1538  S1539   1.502   .     D
