data_str_m3_o1_o17_pcu_sym.22
_audit_creation_date              2020-01-03
_audit_creation_method            'Materials Studio'
_symmetry_space_group_name_H-M    'P1'
_symmetry_Int_Tables_number       1
_symmetry_cell_setting            triclinic
loop_
_symmetry_equiv_pos_as_xyz
  x,y,z
_cell_length_a                    32.3024
_cell_length_b                    29.5146
_cell_length_c                    29.8145
_cell_angle_alpha                 90.5385
_cell_angle_beta                  89.3616
_cell_angle_gamma                 89.5287
loop_
_atom_site_label
_atom_site_type_symbol
_atom_site_fract_x
_atom_site_fract_y
_atom_site_fract_z
_atom_site_U_iso_or_equiv
_atom_site_adp_type
_atom_site_occupancy
C1     C     0.08660   0.16701   0.24858   0.00000  Uiso   1.00
C2     C     0.04257   0.16783   0.24303   0.00000  Uiso   1.00
C3     C     0.17222   0.02424   0.28885   0.00000  Uiso   1.00
C4     C     0.16115   0.30908   0.21113   0.00000  Uiso   1.00
C5     C     0.16131   0.02363   0.21110   0.00000  Uiso   1.00
C6     C     0.17229   0.30968   0.28884   0.00000  Uiso   1.00
C7     C     0.16705   0.16654   0.16355   0.00000  Uiso   1.00
C8     C     0.16672   0.16685   0.33654   0.00000  Uiso   1.00
C9     C     0.20298   0.15289   0.40593   0.00000  Uiso   1.00
C10    C     0.13371   0.18642   0.09448   0.00000  Uiso   1.00
C11    C     0.16759   0.16769   0.38432   0.00000  Uiso   1.00
C12    C     0.24679   0.16630   0.24771   0.00000  Uiso   1.00
C13    C     0.16723   0.16693   0.11591   0.00000  Uiso   1.00
C14    C     0.13375   0.18547   0.40746   0.00000  Uiso   1.00
C15    C     0.20220   0.15172   0.09297   0.00000  Uiso   1.00
C16    C     0.13455   0.18879   0.45391   0.00000  Uiso   1.00
C17    C     0.20403   0.15539   0.04653   0.00000  Uiso   1.00
C18    C     0.17014   0.17362   0.47679   0.00000  Uiso   1.00
C19    C     0.16953   0.17363   0.02367   0.00000  Uiso   1.00
C20    C     0.20572   0.15720   0.45268   0.00000  Uiso   1.00
C21    C     0.13412   0.19068   0.04775   0.00000  Uiso   1.00
C22    C     0.10052   0.20735   0.47747   0.00000  Uiso   1.00
C23    C     0.10052   0.21046   0.02418   0.00000  Uiso   1.00
C24    C     0.23998   0.14200   0.02291   0.00000  Uiso   1.00
C25    C     0.24210   0.14507   0.47626   0.00000  Uiso   1.00
C26    C     0.02254   0.12755   0.23016   0.00000  Uiso   1.00
C27    C     0.31166   0.20723   0.23642   0.00000  Uiso   1.00
C28    C     0.31418   0.12440   0.24068   0.00000  Uiso   1.00
C29    C     0.01929   0.20837   0.24908   0.00000  Uiso   1.00
C30    C     0.29102   0.16559   0.24146   0.00000  Uiso   1.00
F31    F     0.23310   0.13260   0.38064   0.00000  Uiso   1.00
F32    F     0.10052   0.19857   0.12028   0.00000  Uiso   1.00
F33    F     0.09956   0.19756   0.38426   0.00000  Uiso   1.00
F34    F     0.23446   0.13448   0.11654   0.00000  Uiso   1.00
F35    F     0.06706   0.22253   0.45469   0.00000  Uiso   1.00
F36    F     0.27323   0.12587   0.04544   0.00000  Uiso   1.00
H37    H     0.17677   0.04242   0.32002   0.00000  Uiso   1.00
H38    H     0.08219   0.27475   0.32713   0.00000  Uiso   1.00
H39    H     0.15654   0.29089   0.17998   0.00000  Uiso   1.00
H40    H     0.15684   0.04136   0.17996   0.00000  Uiso   1.00
H41    H     0.17688   0.29195   0.31997   0.00000  Uiso   1.00
H42    H     0.00687   0.28290   0.03225   0.00000  Uiso   1.00
H43    H     0.33200   0.17232   0.49413   0.00000  Uiso   1.00
H44    H     0.09164   0.08758   0.13983   0.00000  Uiso   1.00
H45    H     0.24339   0.26256   0.15630   0.00000  Uiso   1.00
H46    H     0.26071   0.04405   0.31378   0.00000  Uiso   1.00
N47    N     0.16667   0.28573   0.25000   0.00000  Uiso   1.00
N48    N     0.16667   0.04760   0.25000   0.00000  Uiso   1.00
O49    O     0.10559   0.20487   0.24999   0.00000  Uiso   1.00
O50    O     0.07567   0.27372   0.08465   0.00000  Uiso   1.00
O51    O     0.03008   0.26983   0.01424   0.00000  Uiso   1.00
O52    O     0.29244   0.08975   0.42838   0.00000  Uiso   1.00
O53    O     0.29820   0.17102   0.41384   0.00000  Uiso   1.00
O54    O     0.33037   0.13972   0.48625   0.00000  Uiso   1.00
O55    O     0.06902   0.05164   0.21964   0.00000  Uiso   1.00
O56    O     0.01320   0.06341   0.16596   0.00000  Uiso   1.00
O57    O     0.07897   0.11235   0.15809   0.00000  Uiso   1.00
O58    O     0.26741   0.28522   0.23877   0.00000  Uiso   1.00
O59    O     0.32429   0.28012   0.18389   0.00000  Uiso   1.00
O60    O     0.22774   0.12846   0.25000   0.00000  Uiso   1.00
O61    O     0.25760   0.23511   0.16749   0.00000  Uiso   1.00
O62    O     0.26753   0.05179   0.22085   0.00000  Uiso   1.00
O63    O     0.32982   0.03776   0.26475   0.00000  Uiso   1.00
O64    O     0.26764   0.07549   0.30533   0.00000  Uiso   1.00
O65    O     0.05932   0.28765   0.24313   0.00000  Uiso   1.00
O66    O     0.00119   0.28415   0.29665   0.00000  Uiso   1.00
O67    O     0.06957   0.24556   0.31833   0.00000  Uiso   1.00
O68    O     0.22774   0.20487   0.25000   0.00000  Uiso   1.00
O69    O     0.10559   0.12846   0.24999   0.00000  Uiso   1.00
O70    O     0.16666   0.20489   0.18392   0.00000  Uiso   1.00
O71    O     0.16667   0.12844   0.31607   0.00000  Uiso   1.00
O72    O     0.16667   0.20489   0.31607   0.00000  Uiso   1.00
O73    O     0.16666   0.12844   0.18392   0.00000  Uiso   1.00
O74    O     0.03114   0.20743   0.07469   0.00000  Uiso   1.00
S75    S     0.05871   0.24060   0.05106   0.00000  Uiso   1.00
S76    S     0.29130   0.13615   0.44957   0.00000  Uiso   1.00
S77    S     0.04587   0.08654   0.19320   0.00000  Uiso   1.00
S78    S     0.29038   0.25414   0.20675   0.00000  Uiso   1.00
S79    S     0.29481   0.07037   0.25705   0.00000  Uiso   1.00
S80    S     0.03724   0.25838   0.27655   0.00000  Uiso   1.00
Zn81   Zn    0.16667   0.21771   0.25000   0.00000  Uiso   1.00
Zn82   Zn    0.16667   0.11563   0.25000   0.00000  Uiso   1.00
C83    C     0.41993   0.16701   0.24858   0.00000  Uiso   1.00
C84    C     0.37590   0.16783   0.24303   0.00000  Uiso   1.00
C85    C     0.50555   0.02424   0.28885   0.00000  Uiso   1.00
C86    C     0.49448   0.30908   0.21113   0.00000  Uiso   1.00
C87    C     0.49464   0.02363   0.21110   0.00000  Uiso   1.00
C88    C     0.50562   0.30968   0.28884   0.00000  Uiso   1.00
C89    C     0.50039   0.16654   0.16355   0.00000  Uiso   1.00
C90    C     0.50006   0.16685   0.33654   0.00000  Uiso   1.00
C91    C     0.53631   0.15289   0.40593   0.00000  Uiso   1.00
C92    C     0.46704   0.18642   0.09448   0.00000  Uiso   1.00
C93    C     0.50093   0.16769   0.38432   0.00000  Uiso   1.00
C94    C     0.58012   0.16630   0.24771   0.00000  Uiso   1.00
C95    C     0.50057   0.16693   0.11591   0.00000  Uiso   1.00
C96    C     0.46709   0.18547   0.40746   0.00000  Uiso   1.00
C97    C     0.53553   0.15172   0.09297   0.00000  Uiso   1.00
C98    C     0.46789   0.18879   0.45391   0.00000  Uiso   1.00
C99    C     0.53737   0.15539   0.04653   0.00000  Uiso   1.00
C100   C     0.50347   0.17362   0.47679   0.00000  Uiso   1.00
C101   C     0.50286   0.17363   0.02367   0.00000  Uiso   1.00
C102   C     0.53906   0.15720   0.45268   0.00000  Uiso   1.00
C103   C     0.46745   0.19068   0.04775   0.00000  Uiso   1.00
C104   C     0.43385   0.20735   0.47747   0.00000  Uiso   1.00
C105   C     0.43385   0.21046   0.02418   0.00000  Uiso   1.00
C106   C     0.57331   0.14200   0.02291   0.00000  Uiso   1.00
C107   C     0.57543   0.14507   0.47626   0.00000  Uiso   1.00
C108   C     0.35587   0.12755   0.23016   0.00000  Uiso   1.00
C109   C     0.64500   0.20723   0.23642   0.00000  Uiso   1.00
C110   C     0.64751   0.12440   0.24068   0.00000  Uiso   1.00
C111   C     0.35263   0.20837   0.24908   0.00000  Uiso   1.00
C112   C     0.62435   0.16559   0.24146   0.00000  Uiso   1.00
F113   F     0.56644   0.13260   0.38064   0.00000  Uiso   1.00
F114   F     0.43385   0.19857   0.12028   0.00000  Uiso   1.00
F115   F     0.43289   0.19756   0.38426   0.00000  Uiso   1.00
F116   F     0.56780   0.13448   0.11654   0.00000  Uiso   1.00
F117   F     0.40039   0.22253   0.45469   0.00000  Uiso   1.00
F118   F     0.60657   0.12587   0.04544   0.00000  Uiso   1.00
H119   H     0.51010   0.04242   0.32002   0.00000  Uiso   1.00
H120   H     0.41552   0.27475   0.32713   0.00000  Uiso   1.00
H121   H     0.48988   0.29089   0.17998   0.00000  Uiso   1.00
H122   H     0.49017   0.04136   0.17996   0.00000  Uiso   1.00
H123   H     0.51021   0.29195   0.31997   0.00000  Uiso   1.00
H124   H     0.34020   0.28290   0.03225   0.00000  Uiso   1.00
H125   H     0.66534   0.17232   0.49413   0.00000  Uiso   1.00
H126   H     0.42497   0.08758   0.13983   0.00000  Uiso   1.00
H127   H     0.57672   0.26256   0.15630   0.00000  Uiso   1.00
H128   H     0.59404   0.04405   0.31378   0.00000  Uiso   1.00
N129   N     0.50000   0.28573   0.25000   0.00000  Uiso   1.00
N130   N     0.50000   0.04760   0.25000   0.00000  Uiso   1.00
O131   O     0.43892   0.20487   0.24999   0.00000  Uiso   1.00
O132   O     0.40900   0.27372   0.08465   0.00000  Uiso   1.00
O133   O     0.36341   0.26983   0.01424   0.00000  Uiso   1.00
O134   O     0.62578   0.08975   0.42838   0.00000  Uiso   1.00
O135   O     0.63154   0.17102   0.41384   0.00000  Uiso   1.00
O136   O     0.66371   0.13972   0.48625   0.00000  Uiso   1.00
O137   O     0.40235   0.05164   0.21964   0.00000  Uiso   1.00
O138   O     0.34654   0.06341   0.16596   0.00000  Uiso   1.00
O139   O     0.41230   0.11235   0.15809   0.00000  Uiso   1.00
O140   O     0.60075   0.28522   0.23877   0.00000  Uiso   1.00
O141   O     0.65762   0.28012   0.18389   0.00000  Uiso   1.00
O142   O     0.56108   0.12846   0.25000   0.00000  Uiso   1.00
O143   O     0.59094   0.23511   0.16749   0.00000  Uiso   1.00
O144   O     0.60086   0.05179   0.22085   0.00000  Uiso   1.00
O145   O     0.66315   0.03776   0.26475   0.00000  Uiso   1.00
O146   O     0.60097   0.07549   0.30533   0.00000  Uiso   1.00
O147   O     0.39265   0.28765   0.24313   0.00000  Uiso   1.00
O148   O     0.33452   0.28415   0.29665   0.00000  Uiso   1.00
O149   O     0.40291   0.24556   0.31833   0.00000  Uiso   1.00
O150   O     0.56108   0.20487   0.25000   0.00000  Uiso   1.00
O151   O     0.43892   0.12846   0.24999   0.00000  Uiso   1.00
O152   O     0.49999   0.20489   0.18392   0.00000  Uiso   1.00
O153   O     0.50001   0.12844   0.31607   0.00000  Uiso   1.00
O154   O     0.50001   0.20489   0.31607   0.00000  Uiso   1.00
O155   O     0.49999   0.12844   0.18392   0.00000  Uiso   1.00
O156   O     0.36447   0.20743   0.07469   0.00000  Uiso   1.00
S157   S     0.39204   0.24060   0.05106   0.00000  Uiso   1.00
S158   S     0.62464   0.13615   0.44957   0.00000  Uiso   1.00
S159   S     0.37921   0.08654   0.19320   0.00000  Uiso   1.00
S160   S     0.62371   0.25414   0.20675   0.00000  Uiso   1.00
S161   S     0.62815   0.07037   0.25705   0.00000  Uiso   1.00
S162   S     0.37057   0.25838   0.27655   0.00000  Uiso   1.00
Zn163  Zn    0.50000   0.21771   0.25000   0.00000  Uiso   1.00
Zn164  Zn    0.50000   0.11563   0.25000   0.00000  Uiso   1.00
C165   C     0.75326   0.16701   0.24858   0.00000  Uiso   1.00
C166   C     0.70924   0.16783   0.24303   0.00000  Uiso   1.00
C167   C     0.83889   0.02424   0.28885   0.00000  Uiso   1.00
C168   C     0.82781   0.30908   0.21113   0.00000  Uiso   1.00
C169   C     0.82797   0.02363   0.21110   0.00000  Uiso   1.00
C170   C     0.83895   0.30968   0.28884   0.00000  Uiso   1.00
C171   C     0.83372   0.16654   0.16355   0.00000  Uiso   1.00
C172   C     0.83339   0.16685   0.33654   0.00000  Uiso   1.00
C173   C     0.86965   0.15289   0.40593   0.00000  Uiso   1.00
C174   C     0.80037   0.18642   0.09448   0.00000  Uiso   1.00
C175   C     0.83426   0.16769   0.38432   0.00000  Uiso   1.00
C176   C     0.91346   0.16630   0.24771   0.00000  Uiso   1.00
C177   C     0.83390   0.16693   0.11591   0.00000  Uiso   1.00
C178   C     0.80042   0.18547   0.40746   0.00000  Uiso   1.00
C179   C     0.86887   0.15172   0.09297   0.00000  Uiso   1.00
C180   C     0.80122   0.18879   0.45391   0.00000  Uiso   1.00
C181   C     0.87070   0.15539   0.04653   0.00000  Uiso   1.00
C182   C     0.83680   0.17362   0.47679   0.00000  Uiso   1.00
C183   C     0.83620   0.17363   0.02367   0.00000  Uiso   1.00
C184   C     0.87239   0.15720   0.45268   0.00000  Uiso   1.00
C185   C     0.80078   0.19068   0.04775   0.00000  Uiso   1.00
C186   C     0.76719   0.20735   0.47747   0.00000  Uiso   1.00
C187   C     0.76718   0.21046   0.02418   0.00000  Uiso   1.00
C188   C     0.90664   0.14200   0.02291   0.00000  Uiso   1.00
C189   C     0.90877   0.14507   0.47626   0.00000  Uiso   1.00
C190   C     0.68921   0.12755   0.23016   0.00000  Uiso   1.00
C191   C     0.97833   0.20723   0.23642   0.00000  Uiso   1.00
C192   C     0.98085   0.12440   0.24068   0.00000  Uiso   1.00
C193   C     0.68596   0.20837   0.24908   0.00000  Uiso   1.00
C194   C     0.95769   0.16559   0.24146   0.00000  Uiso   1.00
F195   F     0.89977   0.13260   0.38064   0.00000  Uiso   1.00
F196   F     0.76718   0.19857   0.12028   0.00000  Uiso   1.00
F197   F     0.76622   0.19756   0.38426   0.00000  Uiso   1.00
F198   F     0.90113   0.13448   0.11654   0.00000  Uiso   1.00
F199   F     0.73372   0.22253   0.45469   0.00000  Uiso   1.00
F200   F     0.93990   0.12587   0.04544   0.00000  Uiso   1.00
H201   H     0.84343   0.04242   0.32002   0.00000  Uiso   1.00
H202   H     0.74886   0.27475   0.32713   0.00000  Uiso   1.00
H203   H     0.82321   0.29089   0.17998   0.00000  Uiso   1.00
H204   H     0.82350   0.04136   0.17996   0.00000  Uiso   1.00
H205   H     0.84355   0.29195   0.31997   0.00000  Uiso   1.00
H206   H     0.67353   0.28290   0.03225   0.00000  Uiso   1.00
H207   H     0.99867   0.17232   0.49413   0.00000  Uiso   1.00
H208   H     0.75831   0.08758   0.13983   0.00000  Uiso   1.00
H209   H     0.91006   0.26256   0.15630   0.00000  Uiso   1.00
H210   H     0.92737   0.04405   0.31378   0.00000  Uiso   1.00
N211   N     0.83333   0.28573   0.25000   0.00000  Uiso   1.00
N212   N     0.83333   0.04760   0.25000   0.00000  Uiso   1.00
O213   O     0.77226   0.20487   0.24999   0.00000  Uiso   1.00
O214   O     0.74234   0.27372   0.08465   0.00000  Uiso   1.00
O215   O     0.69674   0.26983   0.01424   0.00000  Uiso   1.00
O216   O     0.95911   0.08975   0.42838   0.00000  Uiso   1.00
O217   O     0.96487   0.17102   0.41384   0.00000  Uiso   1.00
O218   O     0.99704   0.13972   0.48625   0.00000  Uiso   1.00
O219   O     0.73568   0.05164   0.21964   0.00000  Uiso   1.00
O220   O     0.67987   0.06341   0.16596   0.00000  Uiso   1.00
O221   O     0.74563   0.11235   0.15809   0.00000  Uiso   1.00
O222   O     0.93408   0.28522   0.23877   0.00000  Uiso   1.00
O223   O     0.99095   0.28012   0.18389   0.00000  Uiso   1.00
O224   O     0.89441   0.12846   0.25000   0.00000  Uiso   1.00
O225   O     0.92427   0.23511   0.16749   0.00000  Uiso   1.00
O226   O     0.93419   0.05179   0.22085   0.00000  Uiso   1.00
O227   O     0.99649   0.03776   0.26475   0.00000  Uiso   1.00
O228   O     0.93430   0.07549   0.30533   0.00000  Uiso   1.00
O229   O     0.72598   0.28765   0.24313   0.00000  Uiso   1.00
O230   O     0.66785   0.28415   0.29665   0.00000  Uiso   1.00
O231   O     0.73624   0.24556   0.31833   0.00000  Uiso   1.00
O232   O     0.89441   0.20487   0.25000   0.00000  Uiso   1.00
O233   O     0.77226   0.12846   0.24999   0.00000  Uiso   1.00
O234   O     0.83333   0.20489   0.18392   0.00000  Uiso   1.00
O235   O     0.83334   0.12844   0.31607   0.00000  Uiso   1.00
O236   O     0.83334   0.20489   0.31607   0.00000  Uiso   1.00
O237   O     0.83333   0.12844   0.18392   0.00000  Uiso   1.00
O238   O     0.69780   0.20743   0.07469   0.00000  Uiso   1.00
S239   S     0.72538   0.24060   0.05106   0.00000  Uiso   1.00
S240   S     0.95797   0.13615   0.44957   0.00000  Uiso   1.00
S241   S     0.71254   0.08654   0.19320   0.00000  Uiso   1.00
S242   S     0.95704   0.25414   0.20675   0.00000  Uiso   1.00
S243   S     0.96148   0.07037   0.25705   0.00000  Uiso   1.00
S244   S     0.70390   0.25838   0.27655   0.00000  Uiso   1.00
Zn245  Zn    0.83333   0.21771   0.25000   0.00000  Uiso   1.00
Zn246  Zn    0.83333   0.11563   0.25000   0.00000  Uiso   1.00
C247   C     0.08660   0.50034   0.24858   0.00000  Uiso   1.00
C248   C     0.04257   0.50116   0.24303   0.00000  Uiso   1.00
C249   C     0.17222   0.35758   0.28885   0.00000  Uiso   1.00
C250   C     0.16115   0.64241   0.21113   0.00000  Uiso   1.00
C251   C     0.16131   0.35697   0.21110   0.00000  Uiso   1.00
C252   C     0.17229   0.64302   0.28884   0.00000  Uiso   1.00
C253   C     0.16705   0.49987   0.16355   0.00000  Uiso   1.00
C254   C     0.16672   0.50019   0.33654   0.00000  Uiso   1.00
C255   C     0.20298   0.48623   0.40593   0.00000  Uiso   1.00
C256   C     0.13371   0.51976   0.09448   0.00000  Uiso   1.00
C257   C     0.16759   0.50103   0.38432   0.00000  Uiso   1.00
C258   C     0.24679   0.49963   0.24771   0.00000  Uiso   1.00
C259   C     0.16723   0.50027   0.11591   0.00000  Uiso   1.00
C260   C     0.13375   0.51880   0.40746   0.00000  Uiso   1.00
C261   C     0.20220   0.48505   0.09297   0.00000  Uiso   1.00
C262   C     0.13455   0.52213   0.45391   0.00000  Uiso   1.00
C263   C     0.20403   0.48873   0.04653   0.00000  Uiso   1.00
C264   C     0.17014   0.50695   0.47679   0.00000  Uiso   1.00
C265   C     0.16953   0.50696   0.02367   0.00000  Uiso   1.00
C266   C     0.20572   0.49053   0.45268   0.00000  Uiso   1.00
C267   C     0.13412   0.52402   0.04775   0.00000  Uiso   1.00
C268   C     0.10052   0.54068   0.47747   0.00000  Uiso   1.00
C269   C     0.10052   0.54379   0.02418   0.00000  Uiso   1.00
C270   C     0.23998   0.47534   0.02291   0.00000  Uiso   1.00
C271   C     0.24210   0.47840   0.47626   0.00000  Uiso   1.00
C272   C     0.02254   0.46089   0.23016   0.00000  Uiso   1.00
C273   C     0.31166   0.54056   0.23642   0.00000  Uiso   1.00
C274   C     0.31418   0.45773   0.24068   0.00000  Uiso   1.00
C275   C     0.01929   0.54170   0.24908   0.00000  Uiso   1.00
C276   C     0.29102   0.49892   0.24146   0.00000  Uiso   1.00
F277   F     0.23310   0.46593   0.38064   0.00000  Uiso   1.00
F278   F     0.10052   0.53190   0.12028   0.00000  Uiso   1.00
F279   F     0.09956   0.53089   0.38426   0.00000  Uiso   1.00
F280   F     0.23446   0.46781   0.11654   0.00000  Uiso   1.00
F281   F     0.06706   0.55586   0.45469   0.00000  Uiso   1.00
F282   F     0.27323   0.45921   0.04544   0.00000  Uiso   1.00
H283   H     0.17677   0.37575   0.32002   0.00000  Uiso   1.00
H284   H     0.08219   0.60809   0.32713   0.00000  Uiso   1.00
H285   H     0.15654   0.62423   0.17998   0.00000  Uiso   1.00
H286   H     0.15684   0.37470   0.17996   0.00000  Uiso   1.00
H287   H     0.17688   0.62528   0.31997   0.00000  Uiso   1.00
H288   H     0.00687   0.61623   0.03225   0.00000  Uiso   1.00
H289   H     0.33200   0.50566   0.49413   0.00000  Uiso   1.00
H290   H     0.09164   0.42092   0.13983   0.00000  Uiso   1.00
H291   H     0.24339   0.59590   0.15630   0.00000  Uiso   1.00
H292   H     0.26071   0.37738   0.31378   0.00000  Uiso   1.00
N293   N     0.16667   0.61907   0.25000   0.00000  Uiso   1.00
N294   N     0.16667   0.38093   0.25000   0.00000  Uiso   1.00
O295   O     0.10559   0.53821   0.24999   0.00000  Uiso   1.00
O296   O     0.07567   0.60706   0.08465   0.00000  Uiso   1.00
O297   O     0.03008   0.60316   0.01424   0.00000  Uiso   1.00
O298   O     0.29244   0.42308   0.42838   0.00000  Uiso   1.00
O299   O     0.29820   0.50435   0.41384   0.00000  Uiso   1.00
O300   O     0.33037   0.47305   0.48625   0.00000  Uiso   1.00
O301   O     0.06902   0.38498   0.21964   0.00000  Uiso   1.00
O302   O     0.01320   0.39674   0.16596   0.00000  Uiso   1.00
O303   O     0.07897   0.44569   0.15809   0.00000  Uiso   1.00
O304   O     0.26741   0.61855   0.23877   0.00000  Uiso   1.00
O305   O     0.32429   0.61345   0.18389   0.00000  Uiso   1.00
O306   O     0.22774   0.46179   0.25000   0.00000  Uiso   1.00
O307   O     0.25760   0.56844   0.16749   0.00000  Uiso   1.00
O308   O     0.26753   0.38512   0.22085   0.00000  Uiso   1.00
O309   O     0.32982   0.37110   0.26475   0.00000  Uiso   1.00
O310   O     0.26764   0.40882   0.30533   0.00000  Uiso   1.00
O311   O     0.05932   0.62098   0.24313   0.00000  Uiso   1.00
O312   O     0.00119   0.61749   0.29665   0.00000  Uiso   1.00
O313   O     0.06957   0.57889   0.31833   0.00000  Uiso   1.00
O314   O     0.22774   0.53821   0.25000   0.00000  Uiso   1.00
O315   O     0.10559   0.46179   0.24999   0.00000  Uiso   1.00
O316   O     0.16666   0.53823   0.18392   0.00000  Uiso   1.00
O317   O     0.16667   0.46177   0.31607   0.00000  Uiso   1.00
O318   O     0.16667   0.53823   0.31607   0.00000  Uiso   1.00
O319   O     0.16666   0.46177   0.18392   0.00000  Uiso   1.00
O320   O     0.03114   0.54076   0.07469   0.00000  Uiso   1.00
S321   S     0.05871   0.57393   0.05106   0.00000  Uiso   1.00
S322   S     0.29130   0.46949   0.44957   0.00000  Uiso   1.00
S323   S     0.04587   0.41987   0.19320   0.00000  Uiso   1.00
S324   S     0.29038   0.58748   0.20675   0.00000  Uiso   1.00
S325   S     0.29481   0.40371   0.25705   0.00000  Uiso   1.00
S326   S     0.03724   0.59171   0.27655   0.00000  Uiso   1.00
Zn327  Zn    0.16667   0.55104   0.25000   0.00000  Uiso   1.00
Zn328  Zn    0.16667   0.44896   0.25000   0.00000  Uiso   1.00
C329   C     0.41993   0.50034   0.24858   0.00000  Uiso   1.00
C330   C     0.37590   0.50116   0.24303   0.00000  Uiso   1.00
C331   C     0.50555   0.35758   0.28885   0.00000  Uiso   1.00
C332   C     0.49448   0.64241   0.21113   0.00000  Uiso   1.00
C333   C     0.49464   0.35697   0.21110   0.00000  Uiso   1.00
C334   C     0.50562   0.64302   0.28884   0.00000  Uiso   1.00
C335   C     0.50039   0.49987   0.16355   0.00000  Uiso   1.00
C336   C     0.50006   0.50019   0.33654   0.00000  Uiso   1.00
C337   C     0.53631   0.48623   0.40593   0.00000  Uiso   1.00
C338   C     0.46704   0.51976   0.09448   0.00000  Uiso   1.00
C339   C     0.50093   0.50103   0.38432   0.00000  Uiso   1.00
C340   C     0.58012   0.49963   0.24771   0.00000  Uiso   1.00
C341   C     0.50057   0.50027   0.11591   0.00000  Uiso   1.00
C342   C     0.46709   0.51880   0.40746   0.00000  Uiso   1.00
C343   C     0.53553   0.48505   0.09297   0.00000  Uiso   1.00
C344   C     0.46789   0.52213   0.45391   0.00000  Uiso   1.00
C345   C     0.53737   0.48873   0.04653   0.00000  Uiso   1.00
C346   C     0.50347   0.50695   0.47679   0.00000  Uiso   1.00
C347   C     0.50286   0.50696   0.02367   0.00000  Uiso   1.00
C348   C     0.53906   0.49053   0.45268   0.00000  Uiso   1.00
C349   C     0.46745   0.52402   0.04775   0.00000  Uiso   1.00
C350   C     0.43385   0.54068   0.47747   0.00000  Uiso   1.00
C351   C     0.43385   0.54379   0.02418   0.00000  Uiso   1.00
C352   C     0.57331   0.47534   0.02291   0.00000  Uiso   1.00
C353   C     0.57543   0.47840   0.47626   0.00000  Uiso   1.00
C354   C     0.35587   0.46089   0.23016   0.00000  Uiso   1.00
C355   C     0.64500   0.54056   0.23642   0.00000  Uiso   1.00
C356   C     0.64751   0.45773   0.24068   0.00000  Uiso   1.00
C357   C     0.35263   0.54170   0.24908   0.00000  Uiso   1.00
C358   C     0.62435   0.49892   0.24146   0.00000  Uiso   1.00
F359   F     0.56644   0.46593   0.38064   0.00000  Uiso   1.00
F360   F     0.43385   0.53190   0.12028   0.00000  Uiso   1.00
F361   F     0.43289   0.53089   0.38426   0.00000  Uiso   1.00
F362   F     0.56780   0.46781   0.11654   0.00000  Uiso   1.00
F363   F     0.40039   0.55586   0.45469   0.00000  Uiso   1.00
F364   F     0.60657   0.45921   0.04544   0.00000  Uiso   1.00
H365   H     0.51010   0.37575   0.32002   0.00000  Uiso   1.00
H366   H     0.41552   0.60809   0.32713   0.00000  Uiso   1.00
H367   H     0.48988   0.62423   0.17998   0.00000  Uiso   1.00
H368   H     0.49017   0.37470   0.17996   0.00000  Uiso   1.00
H369   H     0.51021   0.62528   0.31997   0.00000  Uiso   1.00
H370   H     0.34020   0.61623   0.03225   0.00000  Uiso   1.00
H371   H     0.66534   0.50566   0.49413   0.00000  Uiso   1.00
H372   H     0.42497   0.42092   0.13983   0.00000  Uiso   1.00
H373   H     0.57672   0.59590   0.15630   0.00000  Uiso   1.00
H374   H     0.59404   0.37738   0.31378   0.00000  Uiso   1.00
N375   N     0.50000   0.61907   0.25000   0.00000  Uiso   1.00
N376   N     0.50000   0.38093   0.25000   0.00000  Uiso   1.00
O377   O     0.43892   0.53821   0.24999   0.00000  Uiso   1.00
O378   O     0.40900   0.60706   0.08465   0.00000  Uiso   1.00
O379   O     0.36341   0.60316   0.01424   0.00000  Uiso   1.00
O380   O     0.62578   0.42308   0.42838   0.00000  Uiso   1.00
O381   O     0.63154   0.50435   0.41384   0.00000  Uiso   1.00
O382   O     0.66371   0.47305   0.48625   0.00000  Uiso   1.00
O383   O     0.40235   0.38498   0.21964   0.00000  Uiso   1.00
O384   O     0.34654   0.39674   0.16596   0.00000  Uiso   1.00
O385   O     0.41230   0.44569   0.15809   0.00000  Uiso   1.00
O386   O     0.60075   0.61855   0.23877   0.00000  Uiso   1.00
O387   O     0.65762   0.61345   0.18389   0.00000  Uiso   1.00
O388   O     0.56108   0.46179   0.25000   0.00000  Uiso   1.00
O389   O     0.59094   0.56844   0.16749   0.00000  Uiso   1.00
O390   O     0.60086   0.38512   0.22085   0.00000  Uiso   1.00
O391   O     0.66315   0.37110   0.26475   0.00000  Uiso   1.00
O392   O     0.60097   0.40882   0.30533   0.00000  Uiso   1.00
O393   O     0.39265   0.62098   0.24313   0.00000  Uiso   1.00
O394   O     0.33452   0.61749   0.29665   0.00000  Uiso   1.00
O395   O     0.40291   0.57889   0.31833   0.00000  Uiso   1.00
O396   O     0.56108   0.53821   0.25000   0.00000  Uiso   1.00
O397   O     0.43892   0.46179   0.24999   0.00000  Uiso   1.00
O398   O     0.49999   0.53823   0.18392   0.00000  Uiso   1.00
O399   O     0.50001   0.46177   0.31607   0.00000  Uiso   1.00
O400   O     0.50001   0.53823   0.31607   0.00000  Uiso   1.00
O401   O     0.49999   0.46177   0.18392   0.00000  Uiso   1.00
O402   O     0.36447   0.54076   0.07469   0.00000  Uiso   1.00
S403   S     0.39204   0.57393   0.05106   0.00000  Uiso   1.00
S404   S     0.62464   0.46949   0.44957   0.00000  Uiso   1.00
S405   S     0.37921   0.41987   0.19320   0.00000  Uiso   1.00
S406   S     0.62371   0.58748   0.20675   0.00000  Uiso   1.00
S407   S     0.62815   0.40371   0.25705   0.00000  Uiso   1.00
S408   S     0.37057   0.59171   0.27655   0.00000  Uiso   1.00
Zn409  Zn    0.50000   0.55104   0.25000   0.00000  Uiso   1.00
Zn410  Zn    0.50000   0.44896   0.25000   0.00000  Uiso   1.00
C411   C     0.75326   0.50034   0.24858   0.00000  Uiso   1.00
C412   C     0.70924   0.50116   0.24303   0.00000  Uiso   1.00
C413   C     0.83889   0.35758   0.28885   0.00000  Uiso   1.00
C414   C     0.82781   0.64241   0.21113   0.00000  Uiso   1.00
C415   C     0.82797   0.35697   0.21110   0.00000  Uiso   1.00
C416   C     0.83895   0.64302   0.28884   0.00000  Uiso   1.00
C417   C     0.83372   0.49987   0.16355   0.00000  Uiso   1.00
C418   C     0.83339   0.50019   0.33654   0.00000  Uiso   1.00
C419   C     0.86965   0.48623   0.40593   0.00000  Uiso   1.00
C420   C     0.80037   0.51976   0.09448   0.00000  Uiso   1.00
C421   C     0.83426   0.50103   0.38432   0.00000  Uiso   1.00
C422   C     0.91346   0.49963   0.24771   0.00000  Uiso   1.00
C423   C     0.83390   0.50027   0.11591   0.00000  Uiso   1.00
C424   C     0.80042   0.51880   0.40746   0.00000  Uiso   1.00
C425   C     0.86887   0.48505   0.09297   0.00000  Uiso   1.00
C426   C     0.80122   0.52213   0.45391   0.00000  Uiso   1.00
C427   C     0.87070   0.48873   0.04653   0.00000  Uiso   1.00
C428   C     0.83680   0.50695   0.47679   0.00000  Uiso   1.00
C429   C     0.83620   0.50696   0.02367   0.00000  Uiso   1.00
C430   C     0.87239   0.49053   0.45268   0.00000  Uiso   1.00
C431   C     0.80078   0.52402   0.04775   0.00000  Uiso   1.00
C432   C     0.76719   0.54068   0.47747   0.00000  Uiso   1.00
C433   C     0.76718   0.54379   0.02418   0.00000  Uiso   1.00
C434   C     0.90664   0.47534   0.02291   0.00000  Uiso   1.00
C435   C     0.90877   0.47840   0.47626   0.00000  Uiso   1.00
C436   C     0.68921   0.46089   0.23016   0.00000  Uiso   1.00
C437   C     0.97833   0.54056   0.23642   0.00000  Uiso   1.00
C438   C     0.98085   0.45773   0.24068   0.00000  Uiso   1.00
C439   C     0.68596   0.54170   0.24908   0.00000  Uiso   1.00
C440   C     0.95769   0.49892   0.24146   0.00000  Uiso   1.00
F441   F     0.89977   0.46593   0.38064   0.00000  Uiso   1.00
F442   F     0.76718   0.53190   0.12028   0.00000  Uiso   1.00
F443   F     0.76622   0.53089   0.38426   0.00000  Uiso   1.00
F444   F     0.90113   0.46781   0.11654   0.00000  Uiso   1.00
F445   F     0.73372   0.55586   0.45469   0.00000  Uiso   1.00
F446   F     0.93990   0.45921   0.04544   0.00000  Uiso   1.00
H447   H     0.84343   0.37575   0.32002   0.00000  Uiso   1.00
H448   H     0.74886   0.60809   0.32713   0.00000  Uiso   1.00
H449   H     0.82321   0.62423   0.17998   0.00000  Uiso   1.00
H450   H     0.82350   0.37470   0.17996   0.00000  Uiso   1.00
H451   H     0.84355   0.62528   0.31997   0.00000  Uiso   1.00
H452   H     0.67353   0.61623   0.03225   0.00000  Uiso   1.00
H453   H     0.99867   0.50566   0.49413   0.00000  Uiso   1.00
H454   H     0.75831   0.42092   0.13983   0.00000  Uiso   1.00
H455   H     0.91006   0.59590   0.15630   0.00000  Uiso   1.00
H456   H     0.92737   0.37738   0.31378   0.00000  Uiso   1.00
N457   N     0.83333   0.61907   0.25000   0.00000  Uiso   1.00
N458   N     0.83333   0.38093   0.25000   0.00000  Uiso   1.00
O459   O     0.77226   0.53821   0.24999   0.00000  Uiso   1.00
O460   O     0.74234   0.60706   0.08465   0.00000  Uiso   1.00
O461   O     0.69674   0.60316   0.01424   0.00000  Uiso   1.00
O462   O     0.95911   0.42308   0.42838   0.00000  Uiso   1.00
O463   O     0.96487   0.50435   0.41384   0.00000  Uiso   1.00
O464   O     0.99704   0.47305   0.48625   0.00000  Uiso   1.00
O465   O     0.73568   0.38498   0.21964   0.00000  Uiso   1.00
O466   O     0.67987   0.39674   0.16596   0.00000  Uiso   1.00
O467   O     0.74563   0.44569   0.15809   0.00000  Uiso   1.00
O468   O     0.93408   0.61855   0.23877   0.00000  Uiso   1.00
O469   O     0.99095   0.61345   0.18389   0.00000  Uiso   1.00
O470   O     0.89441   0.46179   0.25000   0.00000  Uiso   1.00
O471   O     0.92427   0.56844   0.16749   0.00000  Uiso   1.00
O472   O     0.93419   0.38512   0.22085   0.00000  Uiso   1.00
O473   O     0.99649   0.37110   0.26475   0.00000  Uiso   1.00
O474   O     0.93430   0.40882   0.30533   0.00000  Uiso   1.00
O475   O     0.72598   0.62098   0.24313   0.00000  Uiso   1.00
O476   O     0.66785   0.61749   0.29665   0.00000  Uiso   1.00
O477   O     0.73624   0.57889   0.31833   0.00000  Uiso   1.00
O478   O     0.89441   0.53821   0.25000   0.00000  Uiso   1.00
O479   O     0.77226   0.46179   0.24999   0.00000  Uiso   1.00
O480   O     0.83333   0.53823   0.18392   0.00000  Uiso   1.00
O481   O     0.83334   0.46177   0.31607   0.00000  Uiso   1.00
O482   O     0.83334   0.53823   0.31607   0.00000  Uiso   1.00
O483   O     0.83333   0.46177   0.18392   0.00000  Uiso   1.00
O484   O     0.69780   0.54076   0.07469   0.00000  Uiso   1.00
S485   S     0.72538   0.57393   0.05106   0.00000  Uiso   1.00
S486   S     0.95797   0.46949   0.44957   0.00000  Uiso   1.00
S487   S     0.71254   0.41987   0.19320   0.00000  Uiso   1.00
S488   S     0.95704   0.58748   0.20675   0.00000  Uiso   1.00
S489   S     0.96148   0.40371   0.25705   0.00000  Uiso   1.00
S490   S     0.70390   0.59171   0.27655   0.00000  Uiso   1.00
Zn491  Zn    0.83333   0.55104   0.25000   0.00000  Uiso   1.00
Zn492  Zn    0.83333   0.44896   0.25000   0.00000  Uiso   1.00
C493   C     0.08660   0.83368   0.24858   0.00000  Uiso   1.00
C494   C     0.04257   0.83450   0.24303   0.00000  Uiso   1.00
C495   C     0.17222   0.69091   0.28885   0.00000  Uiso   1.00
C496   C     0.16115   0.97574   0.21113   0.00000  Uiso   1.00
C497   C     0.16131   0.69030   0.21110   0.00000  Uiso   1.00
C498   C     0.17229   0.97635   0.28884   0.00000  Uiso   1.00
C499   C     0.16705   0.83320   0.16355   0.00000  Uiso   1.00
C500   C     0.16672   0.83352   0.33654   0.00000  Uiso   1.00
C501   C     0.20298   0.81956   0.40593   0.00000  Uiso   1.00
C502   C     0.13371   0.85309   0.09448   0.00000  Uiso   1.00
C503   C     0.16759   0.83436   0.38432   0.00000  Uiso   1.00
C504   C     0.24679   0.83296   0.24771   0.00000  Uiso   1.00
C505   C     0.16723   0.83360   0.11591   0.00000  Uiso   1.00
C506   C     0.13375   0.85214   0.40746   0.00000  Uiso   1.00
C507   C     0.20220   0.81839   0.09297   0.00000  Uiso   1.00
C508   C     0.13455   0.85546   0.45391   0.00000  Uiso   1.00
C509   C     0.20403   0.82206   0.04653   0.00000  Uiso   1.00
C510   C     0.17014   0.84028   0.47679   0.00000  Uiso   1.00
C511   C     0.16953   0.84029   0.02367   0.00000  Uiso   1.00
C512   C     0.20572   0.82387   0.45268   0.00000  Uiso   1.00
C513   C     0.13412   0.85735   0.04775   0.00000  Uiso   1.00
C514   C     0.10052   0.87402   0.47747   0.00000  Uiso   1.00
C515   C     0.10052   0.87713   0.02418   0.00000  Uiso   1.00
C516   C     0.23998   0.80867   0.02291   0.00000  Uiso   1.00
C517   C     0.24210   0.81173   0.47626   0.00000  Uiso   1.00
C518   C     0.02254   0.79422   0.23016   0.00000  Uiso   1.00
C519   C     0.31166   0.87389   0.23642   0.00000  Uiso   1.00
C520   C     0.31418   0.79107   0.24068   0.00000  Uiso   1.00
C521   C     0.01929   0.87503   0.24908   0.00000  Uiso   1.00
C522   C     0.29102   0.83225   0.24146   0.00000  Uiso   1.00
F523   F     0.23310   0.79926   0.38064   0.00000  Uiso   1.00
F524   F     0.10052   0.86524   0.12028   0.00000  Uiso   1.00
F525   F     0.09956   0.86423   0.38426   0.00000  Uiso   1.00
F526   F     0.23446   0.80114   0.11654   0.00000  Uiso   1.00
F527   F     0.06706   0.88920   0.45469   0.00000  Uiso   1.00
F528   F     0.27323   0.79254   0.04544   0.00000  Uiso   1.00
H529   H     0.17677   0.70909   0.32002   0.00000  Uiso   1.00
H530   H     0.08219   0.94142   0.32713   0.00000  Uiso   1.00
H531   H     0.15654   0.95756   0.17998   0.00000  Uiso   1.00
H532   H     0.15684   0.70803   0.17996   0.00000  Uiso   1.00
H533   H     0.17688   0.95861   0.31997   0.00000  Uiso   1.00
H534   H     0.00687   0.94957   0.03225   0.00000  Uiso   1.00
H535   H     0.33200   0.83899   0.49413   0.00000  Uiso   1.00
H536   H     0.09164   0.75425   0.13983   0.00000  Uiso   1.00
H537   H     0.24339   0.92923   0.15630   0.00000  Uiso   1.00
H538   H     0.26071   0.71072   0.31378   0.00000  Uiso   1.00
N539   N     0.16667   0.95240   0.25000   0.00000  Uiso   1.00
N540   N     0.16667   0.71427   0.25000   0.00000  Uiso   1.00
O541   O     0.10559   0.87154   0.24999   0.00000  Uiso   1.00
O542   O     0.07567   0.94039   0.08465   0.00000  Uiso   1.00
O543   O     0.03008   0.93649   0.01424   0.00000  Uiso   1.00
O544   O     0.29244   0.75642   0.42838   0.00000  Uiso   1.00
O545   O     0.29820   0.83769   0.41384   0.00000  Uiso   1.00
O546   O     0.33037   0.80638   0.48625   0.00000  Uiso   1.00
O547   O     0.06902   0.71831   0.21964   0.00000  Uiso   1.00
O548   O     0.01320   0.73008   0.16596   0.00000  Uiso   1.00
O549   O     0.07897   0.77902   0.15809   0.00000  Uiso   1.00
O550   O     0.26741   0.95188   0.23877   0.00000  Uiso   1.00
O551   O     0.32429   0.94679   0.18389   0.00000  Uiso   1.00
O552   O     0.22774   0.79513   0.25000   0.00000  Uiso   1.00
O553   O     0.25760   0.90177   0.16749   0.00000  Uiso   1.00
O554   O     0.26753   0.71846   0.22085   0.00000  Uiso   1.00
O555   O     0.32982   0.70443   0.26475   0.00000  Uiso   1.00
O556   O     0.26764   0.74216   0.30533   0.00000  Uiso   1.00
O557   O     0.05932   0.95432   0.24313   0.00000  Uiso   1.00
O558   O     0.00119   0.95082   0.29665   0.00000  Uiso   1.00
O559   O     0.06957   0.91222   0.31833   0.00000  Uiso   1.00
O560   O     0.22774   0.87154   0.25000   0.00000  Uiso   1.00
O561   O     0.10559   0.79513   0.24999   0.00000  Uiso   1.00
O562   O     0.16666   0.87156   0.18392   0.00000  Uiso   1.00
O563   O     0.16667   0.79511   0.31607   0.00000  Uiso   1.00
O564   O     0.16667   0.87156   0.31607   0.00000  Uiso   1.00
O565   O     0.16666   0.79511   0.18392   0.00000  Uiso   1.00
O566   O     0.03114   0.87410   0.07469   0.00000  Uiso   1.00
S567   S     0.05871   0.90727   0.05106   0.00000  Uiso   1.00
S568   S     0.29130   0.80282   0.44957   0.00000  Uiso   1.00
S569   S     0.04587   0.75321   0.19320   0.00000  Uiso   1.00
S570   S     0.29038   0.92081   0.20675   0.00000  Uiso   1.00
S571   S     0.29481   0.73704   0.25705   0.00000  Uiso   1.00
S572   S     0.03724   0.92504   0.27655   0.00000  Uiso   1.00
Zn573  Zn    0.16667   0.88437   0.25000   0.00000  Uiso   1.00
Zn574  Zn    0.16667   0.78229   0.25000   0.00000  Uiso   1.00
C575   C     0.41993   0.83368   0.24858   0.00000  Uiso   1.00
C576   C     0.37590   0.83450   0.24303   0.00000  Uiso   1.00
C577   C     0.50555   0.69091   0.28885   0.00000  Uiso   1.00
C578   C     0.49448   0.97574   0.21113   0.00000  Uiso   1.00
C579   C     0.49464   0.69030   0.21110   0.00000  Uiso   1.00
C580   C     0.50562   0.97635   0.28884   0.00000  Uiso   1.00
C581   C     0.50039   0.83320   0.16355   0.00000  Uiso   1.00
C582   C     0.50006   0.83352   0.33654   0.00000  Uiso   1.00
C583   C     0.53631   0.81956   0.40593   0.00000  Uiso   1.00
C584   C     0.46704   0.85309   0.09448   0.00000  Uiso   1.00
C585   C     0.50093   0.83436   0.38432   0.00000  Uiso   1.00
C586   C     0.58012   0.83296   0.24771   0.00000  Uiso   1.00
C587   C     0.50057   0.83360   0.11591   0.00000  Uiso   1.00
C588   C     0.46709   0.85214   0.40746   0.00000  Uiso   1.00
C589   C     0.53553   0.81839   0.09297   0.00000  Uiso   1.00
C590   C     0.46789   0.85546   0.45391   0.00000  Uiso   1.00
C591   C     0.53737   0.82206   0.04653   0.00000  Uiso   1.00
C592   C     0.50347   0.84028   0.47679   0.00000  Uiso   1.00
C593   C     0.50286   0.84029   0.02367   0.00000  Uiso   1.00
C594   C     0.53906   0.82387   0.45268   0.00000  Uiso   1.00
C595   C     0.46745   0.85735   0.04775   0.00000  Uiso   1.00
C596   C     0.43385   0.87402   0.47747   0.00000  Uiso   1.00
C597   C     0.43385   0.87713   0.02418   0.00000  Uiso   1.00
C598   C     0.57331   0.80867   0.02291   0.00000  Uiso   1.00
C599   C     0.57543   0.81173   0.47626   0.00000  Uiso   1.00
C600   C     0.35587   0.79422   0.23016   0.00000  Uiso   1.00
C601   C     0.64500   0.87389   0.23642   0.00000  Uiso   1.00
C602   C     0.64751   0.79107   0.24068   0.00000  Uiso   1.00
C603   C     0.35263   0.87503   0.24908   0.00000  Uiso   1.00
C604   C     0.62435   0.83225   0.24146   0.00000  Uiso   1.00
F605   F     0.56644   0.79926   0.38064   0.00000  Uiso   1.00
F606   F     0.43385   0.86524   0.12028   0.00000  Uiso   1.00
F607   F     0.43289   0.86423   0.38426   0.00000  Uiso   1.00
F608   F     0.56780   0.80114   0.11654   0.00000  Uiso   1.00
F609   F     0.40039   0.88920   0.45469   0.00000  Uiso   1.00
F610   F     0.60657   0.79254   0.04544   0.00000  Uiso   1.00
H611   H     0.51010   0.70909   0.32002   0.00000  Uiso   1.00
H612   H     0.41552   0.94142   0.32713   0.00000  Uiso   1.00
H613   H     0.48988   0.95756   0.17998   0.00000  Uiso   1.00
H614   H     0.49017   0.70803   0.17996   0.00000  Uiso   1.00
H615   H     0.51021   0.95861   0.31997   0.00000  Uiso   1.00
H616   H     0.34020   0.94957   0.03225   0.00000  Uiso   1.00
H617   H     0.66534   0.83899   0.49413   0.00000  Uiso   1.00
H618   H     0.42497   0.75425   0.13983   0.00000  Uiso   1.00
H619   H     0.57672   0.92923   0.15630   0.00000  Uiso   1.00
H620   H     0.59404   0.71072   0.31378   0.00000  Uiso   1.00
N621   N     0.50000   0.95240   0.25000   0.00000  Uiso   1.00
N622   N     0.50000   0.71427   0.25000   0.00000  Uiso   1.00
O623   O     0.43892   0.87154   0.24999   0.00000  Uiso   1.00
O624   O     0.40900   0.94039   0.08465   0.00000  Uiso   1.00
O625   O     0.36341   0.93649   0.01424   0.00000  Uiso   1.00
O626   O     0.62578   0.75642   0.42838   0.00000  Uiso   1.00
O627   O     0.63154   0.83769   0.41384   0.00000  Uiso   1.00
O628   O     0.66371   0.80638   0.48625   0.00000  Uiso   1.00
O629   O     0.40235   0.71831   0.21964   0.00000  Uiso   1.00
O630   O     0.34654   0.73008   0.16596   0.00000  Uiso   1.00
O631   O     0.41230   0.77902   0.15809   0.00000  Uiso   1.00
O632   O     0.60075   0.95188   0.23877   0.00000  Uiso   1.00
O633   O     0.65762   0.94679   0.18389   0.00000  Uiso   1.00
O634   O     0.56108   0.79513   0.25000   0.00000  Uiso   1.00
O635   O     0.59094   0.90177   0.16749   0.00000  Uiso   1.00
O636   O     0.60086   0.71846   0.22085   0.00000  Uiso   1.00
O637   O     0.66315   0.70443   0.26475   0.00000  Uiso   1.00
O638   O     0.60097   0.74216   0.30533   0.00000  Uiso   1.00
O639   O     0.39265   0.95432   0.24313   0.00000  Uiso   1.00
O640   O     0.33452   0.95082   0.29665   0.00000  Uiso   1.00
O641   O     0.40291   0.91222   0.31833   0.00000  Uiso   1.00
O642   O     0.56108   0.87154   0.25000   0.00000  Uiso   1.00
O643   O     0.43892   0.79513   0.24999   0.00000  Uiso   1.00
O644   O     0.49999   0.87156   0.18392   0.00000  Uiso   1.00
O645   O     0.50001   0.79511   0.31607   0.00000  Uiso   1.00
O646   O     0.50001   0.87156   0.31607   0.00000  Uiso   1.00
O647   O     0.49999   0.79511   0.18392   0.00000  Uiso   1.00
O648   O     0.36447   0.87410   0.07469   0.00000  Uiso   1.00
S649   S     0.39204   0.90727   0.05106   0.00000  Uiso   1.00
S650   S     0.62464   0.80282   0.44957   0.00000  Uiso   1.00
S651   S     0.37921   0.75321   0.19320   0.00000  Uiso   1.00
S652   S     0.62371   0.92081   0.20675   0.00000  Uiso   1.00
S653   S     0.62815   0.73704   0.25705   0.00000  Uiso   1.00
S654   S     0.37057   0.92504   0.27655   0.00000  Uiso   1.00
Zn655  Zn    0.50000   0.88437   0.25000   0.00000  Uiso   1.00
Zn656  Zn    0.50000   0.78229   0.25000   0.00000  Uiso   1.00
C657   C     0.75326   0.83368   0.24858   0.00000  Uiso   1.00
C658   C     0.70924   0.83450   0.24303   0.00000  Uiso   1.00
C659   C     0.83889   0.69091   0.28885   0.00000  Uiso   1.00
C660   C     0.82781   0.97574   0.21113   0.00000  Uiso   1.00
C661   C     0.82797   0.69030   0.21110   0.00000  Uiso   1.00
C662   C     0.83895   0.97635   0.28884   0.00000  Uiso   1.00
C663   C     0.83372   0.83320   0.16355   0.00000  Uiso   1.00
C664   C     0.83339   0.83352   0.33654   0.00000  Uiso   1.00
C665   C     0.86965   0.81956   0.40593   0.00000  Uiso   1.00
C666   C     0.80037   0.85309   0.09448   0.00000  Uiso   1.00
C667   C     0.83426   0.83436   0.38432   0.00000  Uiso   1.00
C668   C     0.91346   0.83296   0.24771   0.00000  Uiso   1.00
C669   C     0.83390   0.83360   0.11591   0.00000  Uiso   1.00
C670   C     0.80042   0.85214   0.40746   0.00000  Uiso   1.00
C671   C     0.86887   0.81839   0.09297   0.00000  Uiso   1.00
C672   C     0.80122   0.85546   0.45391   0.00000  Uiso   1.00
C673   C     0.87070   0.82206   0.04653   0.00000  Uiso   1.00
C674   C     0.83680   0.84028   0.47679   0.00000  Uiso   1.00
C675   C     0.83620   0.84029   0.02367   0.00000  Uiso   1.00
C676   C     0.87239   0.82387   0.45268   0.00000  Uiso   1.00
C677   C     0.80078   0.85735   0.04775   0.00000  Uiso   1.00
C678   C     0.76719   0.87402   0.47747   0.00000  Uiso   1.00
C679   C     0.76718   0.87713   0.02418   0.00000  Uiso   1.00
C680   C     0.90664   0.80867   0.02291   0.00000  Uiso   1.00
C681   C     0.90877   0.81173   0.47626   0.00000  Uiso   1.00
C682   C     0.68921   0.79422   0.23016   0.00000  Uiso   1.00
C683   C     0.97833   0.87389   0.23642   0.00000  Uiso   1.00
C684   C     0.98085   0.79107   0.24068   0.00000  Uiso   1.00
C685   C     0.68596   0.87503   0.24908   0.00000  Uiso   1.00
C686   C     0.95769   0.83225   0.24146   0.00000  Uiso   1.00
F687   F     0.89977   0.79926   0.38064   0.00000  Uiso   1.00
F688   F     0.76718   0.86524   0.12028   0.00000  Uiso   1.00
F689   F     0.76622   0.86423   0.38426   0.00000  Uiso   1.00
F690   F     0.90113   0.80114   0.11654   0.00000  Uiso   1.00
F691   F     0.73372   0.88920   0.45469   0.00000  Uiso   1.00
F692   F     0.93990   0.79254   0.04544   0.00000  Uiso   1.00
H693   H     0.84343   0.70909   0.32002   0.00000  Uiso   1.00
H694   H     0.74886   0.94142   0.32713   0.00000  Uiso   1.00
H695   H     0.82321   0.95756   0.17998   0.00000  Uiso   1.00
H696   H     0.82350   0.70803   0.17996   0.00000  Uiso   1.00
H697   H     0.84355   0.95861   0.31997   0.00000  Uiso   1.00
H698   H     0.67353   0.94957   0.03225   0.00000  Uiso   1.00
H699   H     0.99867   0.83899   0.49413   0.00000  Uiso   1.00
H700   H     0.75831   0.75425   0.13983   0.00000  Uiso   1.00
H701   H     0.91006   0.92923   0.15630   0.00000  Uiso   1.00
H702   H     0.92737   0.71072   0.31378   0.00000  Uiso   1.00
N703   N     0.83333   0.95240   0.25000   0.00000  Uiso   1.00
N704   N     0.83333   0.71427   0.25000   0.00000  Uiso   1.00
O705   O     0.77226   0.87154   0.24999   0.00000  Uiso   1.00
O706   O     0.74234   0.94039   0.08465   0.00000  Uiso   1.00
O707   O     0.69674   0.93649   0.01424   0.00000  Uiso   1.00
O708   O     0.95911   0.75642   0.42838   0.00000  Uiso   1.00
O709   O     0.96487   0.83769   0.41384   0.00000  Uiso   1.00
O710   O     0.99704   0.80638   0.48625   0.00000  Uiso   1.00
O711   O     0.73568   0.71831   0.21964   0.00000  Uiso   1.00
O712   O     0.67987   0.73008   0.16596   0.00000  Uiso   1.00
O713   O     0.74563   0.77902   0.15809   0.00000  Uiso   1.00
O714   O     0.93408   0.95188   0.23877   0.00000  Uiso   1.00
O715   O     0.99095   0.94679   0.18389   0.00000  Uiso   1.00
O716   O     0.89441   0.79513   0.25000   0.00000  Uiso   1.00
O717   O     0.92427   0.90177   0.16749   0.00000  Uiso   1.00
O718   O     0.93419   0.71846   0.22085   0.00000  Uiso   1.00
O719   O     0.99649   0.70443   0.26475   0.00000  Uiso   1.00
O720   O     0.93430   0.74216   0.30533   0.00000  Uiso   1.00
O721   O     0.72598   0.95432   0.24313   0.00000  Uiso   1.00
O722   O     0.66785   0.95082   0.29665   0.00000  Uiso   1.00
O723   O     0.73624   0.91222   0.31833   0.00000  Uiso   1.00
O724   O     0.89441   0.87154   0.25000   0.00000  Uiso   1.00
O725   O     0.77226   0.79513   0.24999   0.00000  Uiso   1.00
O726   O     0.83333   0.87156   0.18392   0.00000  Uiso   1.00
O727   O     0.83334   0.79511   0.31607   0.00000  Uiso   1.00
O728   O     0.83334   0.87156   0.31607   0.00000  Uiso   1.00
O729   O     0.83333   0.79511   0.18392   0.00000  Uiso   1.00
O730   O     0.69780   0.87410   0.07469   0.00000  Uiso   1.00
S731   S     0.72538   0.90727   0.05106   0.00000  Uiso   1.00
S732   S     0.95797   0.80282   0.44957   0.00000  Uiso   1.00
S733   S     0.71254   0.75321   0.19320   0.00000  Uiso   1.00
S734   S     0.95704   0.92081   0.20675   0.00000  Uiso   1.00
S735   S     0.96148   0.73704   0.25705   0.00000  Uiso   1.00
S736   S     0.70390   0.92504   0.27655   0.00000  Uiso   1.00
Zn737  Zn    0.83333   0.88437   0.25000   0.00000  Uiso   1.00
Zn738  Zn    0.83333   0.78229   0.25000   0.00000  Uiso   1.00
C739   C     0.08660   0.16701   0.74858   0.00000  Uiso   1.00
C740   C     0.04257   0.16783   0.74303   0.00000  Uiso   1.00
C741   C     0.17222   0.02424   0.78885   0.00000  Uiso   1.00
C742   C     0.16115   0.30908   0.71113   0.00000  Uiso   1.00
C743   C     0.16131   0.02363   0.71110   0.00000  Uiso   1.00
C744   C     0.17229   0.30968   0.78884   0.00000  Uiso   1.00
C745   C     0.16705   0.16654   0.66355   0.00000  Uiso   1.00
C746   C     0.16672   0.16685   0.83654   0.00000  Uiso   1.00
C747   C     0.20298   0.15289   0.90593   0.00000  Uiso   1.00
C748   C     0.13371   0.18642   0.59448   0.00000  Uiso   1.00
C749   C     0.16759   0.16769   0.88432   0.00000  Uiso   1.00
C750   C     0.24679   0.16630   0.74771   0.00000  Uiso   1.00
C751   C     0.16723   0.16693   0.61591   0.00000  Uiso   1.00
C752   C     0.13375   0.18547   0.90746   0.00000  Uiso   1.00
C753   C     0.20220   0.15172   0.59297   0.00000  Uiso   1.00
C754   C     0.13455   0.18879   0.95391   0.00000  Uiso   1.00
C755   C     0.20403   0.15539   0.54653   0.00000  Uiso   1.00
C756   C     0.17014   0.17362   0.97679   0.00000  Uiso   1.00
C757   C     0.16953   0.17363   0.52367   0.00000  Uiso   1.00
C758   C     0.20572   0.15720   0.95268   0.00000  Uiso   1.00
C759   C     0.13412   0.19068   0.54775   0.00000  Uiso   1.00
C760   C     0.10052   0.20735   0.97747   0.00000  Uiso   1.00
C761   C     0.10052   0.21046   0.52418   0.00000  Uiso   1.00
C762   C     0.23998   0.14200   0.52291   0.00000  Uiso   1.00
C763   C     0.24210   0.14507   0.97626   0.00000  Uiso   1.00
C764   C     0.02254   0.12755   0.73016   0.00000  Uiso   1.00
C765   C     0.31166   0.20723   0.73642   0.00000  Uiso   1.00
C766   C     0.31418   0.12440   0.74068   0.00000  Uiso   1.00
C767   C     0.01929   0.20837   0.74908   0.00000  Uiso   1.00
C768   C     0.29102   0.16559   0.74146   0.00000  Uiso   1.00
F769   F     0.23310   0.13260   0.88064   0.00000  Uiso   1.00
F770   F     0.10052   0.19857   0.62028   0.00000  Uiso   1.00
F771   F     0.09956   0.19756   0.88426   0.00000  Uiso   1.00
F772   F     0.23446   0.13448   0.61654   0.00000  Uiso   1.00
F773   F     0.06706   0.22253   0.95469   0.00000  Uiso   1.00
F774   F     0.27323   0.12587   0.54544   0.00000  Uiso   1.00
H775   H     0.17677   0.04242   0.82002   0.00000  Uiso   1.00
H776   H     0.08219   0.27475   0.82713   0.00000  Uiso   1.00
H777   H     0.15654   0.29089   0.67998   0.00000  Uiso   1.00
H778   H     0.15684   0.04136   0.67996   0.00000  Uiso   1.00
H779   H     0.17688   0.29195   0.81997   0.00000  Uiso   1.00
H780   H     0.00687   0.28290   0.53225   0.00000  Uiso   1.00
H781   H     0.33200   0.17232   0.99413   0.00000  Uiso   1.00
H782   H     0.09164   0.08758   0.63983   0.00000  Uiso   1.00
H783   H     0.24339   0.26256   0.65630   0.00000  Uiso   1.00
H784   H     0.26071   0.04405   0.81378   0.00000  Uiso   1.00
N785   N     0.16667   0.28573   0.75000   0.00000  Uiso   1.00
N786   N     0.16667   0.04760   0.75000   0.00000  Uiso   1.00
O787   O     0.10559   0.20487   0.74999   0.00000  Uiso   1.00
O788   O     0.07567   0.27372   0.58465   0.00000  Uiso   1.00
O789   O     0.03008   0.26983   0.51424   0.00000  Uiso   1.00
O790   O     0.29244   0.08975   0.92838   0.00000  Uiso   1.00
O791   O     0.29820   0.17102   0.91384   0.00000  Uiso   1.00
O792   O     0.33037   0.13972   0.98625   0.00000  Uiso   1.00
O793   O     0.06902   0.05164   0.71964   0.00000  Uiso   1.00
O794   O     0.01320   0.06341   0.66596   0.00000  Uiso   1.00
O795   O     0.07897   0.11235   0.65809   0.00000  Uiso   1.00
O796   O     0.26741   0.28522   0.73877   0.00000  Uiso   1.00
O797   O     0.32429   0.28012   0.68389   0.00000  Uiso   1.00
O798   O     0.22774   0.12846   0.75000   0.00000  Uiso   1.00
O799   O     0.25760   0.23511   0.66749   0.00000  Uiso   1.00
O800   O     0.26753   0.05179   0.72085   0.00000  Uiso   1.00
O801   O     0.32982   0.03776   0.76475   0.00000  Uiso   1.00
O802   O     0.26764   0.07549   0.80533   0.00000  Uiso   1.00
O803   O     0.05932   0.28765   0.74313   0.00000  Uiso   1.00
O804   O     0.00119   0.28415   0.79665   0.00000  Uiso   1.00
O805   O     0.06957   0.24556   0.81833   0.00000  Uiso   1.00
O806   O     0.22774   0.20487   0.75000   0.00000  Uiso   1.00
O807   O     0.10559   0.12846   0.74999   0.00000  Uiso   1.00
O808   O     0.16666   0.20489   0.68392   0.00000  Uiso   1.00
O809   O     0.16667   0.12844   0.81607   0.00000  Uiso   1.00
O810   O     0.16667   0.20489   0.81607   0.00000  Uiso   1.00
O811   O     0.16666   0.12844   0.68392   0.00000  Uiso   1.00
O812   O     0.03114   0.20743   0.57469   0.00000  Uiso   1.00
S813   S     0.05871   0.24060   0.55106   0.00000  Uiso   1.00
S814   S     0.29130   0.13615   0.94957   0.00000  Uiso   1.00
S815   S     0.04587   0.08654   0.69320   0.00000  Uiso   1.00
S816   S     0.29038   0.25414   0.70675   0.00000  Uiso   1.00
S817   S     0.29481   0.07037   0.75705   0.00000  Uiso   1.00
S818   S     0.03724   0.25838   0.77655   0.00000  Uiso   1.00
Zn819  Zn    0.16667   0.21771   0.75000   0.00000  Uiso   1.00
Zn820  Zn    0.16667   0.11563   0.75000   0.00000  Uiso   1.00
C821   C     0.41993   0.16701   0.74858   0.00000  Uiso   1.00
C822   C     0.37590   0.16783   0.74303   0.00000  Uiso   1.00
C823   C     0.50555   0.02424   0.78885   0.00000  Uiso   1.00
C824   C     0.49448   0.30908   0.71113   0.00000  Uiso   1.00
C825   C     0.49464   0.02363   0.71110   0.00000  Uiso   1.00
C826   C     0.50562   0.30968   0.78884   0.00000  Uiso   1.00
C827   C     0.50039   0.16654   0.66355   0.00000  Uiso   1.00
C828   C     0.50006   0.16685   0.83654   0.00000  Uiso   1.00
C829   C     0.53631   0.15289   0.90593   0.00000  Uiso   1.00
C830   C     0.46704   0.18642   0.59448   0.00000  Uiso   1.00
C831   C     0.50093   0.16769   0.88432   0.00000  Uiso   1.00
C832   C     0.58012   0.16630   0.74771   0.00000  Uiso   1.00
C833   C     0.50057   0.16693   0.61591   0.00000  Uiso   1.00
C834   C     0.46709   0.18547   0.90746   0.00000  Uiso   1.00
C835   C     0.53553   0.15172   0.59297   0.00000  Uiso   1.00
C836   C     0.46789   0.18879   0.95391   0.00000  Uiso   1.00
C837   C     0.53737   0.15539   0.54653   0.00000  Uiso   1.00
C838   C     0.50347   0.17362   0.97679   0.00000  Uiso   1.00
C839   C     0.50286   0.17363   0.52367   0.00000  Uiso   1.00
C840   C     0.53906   0.15720   0.95268   0.00000  Uiso   1.00
C841   C     0.46745   0.19068   0.54775   0.00000  Uiso   1.00
C842   C     0.43385   0.20735   0.97747   0.00000  Uiso   1.00
C843   C     0.43385   0.21046   0.52418   0.00000  Uiso   1.00
C844   C     0.57331   0.14200   0.52291   0.00000  Uiso   1.00
C845   C     0.57543   0.14507   0.97626   0.00000  Uiso   1.00
C846   C     0.35587   0.12755   0.73016   0.00000  Uiso   1.00
C847   C     0.64500   0.20723   0.73642   0.00000  Uiso   1.00
C848   C     0.64751   0.12440   0.74068   0.00000  Uiso   1.00
C849   C     0.35263   0.20837   0.74908   0.00000  Uiso   1.00
C850   C     0.62435   0.16559   0.74146   0.00000  Uiso   1.00
F851   F     0.56644   0.13260   0.88064   0.00000  Uiso   1.00
F852   F     0.43385   0.19857   0.62028   0.00000  Uiso   1.00
F853   F     0.43289   0.19756   0.88426   0.00000  Uiso   1.00
F854   F     0.56780   0.13448   0.61654   0.00000  Uiso   1.00
F855   F     0.40039   0.22253   0.95469   0.00000  Uiso   1.00
F856   F     0.60657   0.12587   0.54544   0.00000  Uiso   1.00
H857   H     0.51010   0.04242   0.82002   0.00000  Uiso   1.00
H858   H     0.41552   0.27475   0.82713   0.00000  Uiso   1.00
H859   H     0.48988   0.29089   0.67998   0.00000  Uiso   1.00
H860   H     0.49017   0.04136   0.67996   0.00000  Uiso   1.00
H861   H     0.51021   0.29195   0.81997   0.00000  Uiso   1.00
H862   H     0.34020   0.28290   0.53225   0.00000  Uiso   1.00
H863   H     0.66534   0.17232   0.99413   0.00000  Uiso   1.00
H864   H     0.42497   0.08758   0.63983   0.00000  Uiso   1.00
H865   H     0.57672   0.26256   0.65630   0.00000  Uiso   1.00
H866   H     0.59404   0.04405   0.81378   0.00000  Uiso   1.00
N867   N     0.50000   0.28573   0.75000   0.00000  Uiso   1.00
N868   N     0.50000   0.04760   0.75000   0.00000  Uiso   1.00
O869   O     0.43892   0.20487   0.74999   0.00000  Uiso   1.00
O870   O     0.40900   0.27372   0.58465   0.00000  Uiso   1.00
O871   O     0.36341   0.26983   0.51424   0.00000  Uiso   1.00
O872   O     0.62578   0.08975   0.92838   0.00000  Uiso   1.00
O873   O     0.63154   0.17102   0.91384   0.00000  Uiso   1.00
O874   O     0.66371   0.13972   0.98625   0.00000  Uiso   1.00
O875   O     0.40235   0.05164   0.71964   0.00000  Uiso   1.00
O876   O     0.34654   0.06341   0.66596   0.00000  Uiso   1.00
O877   O     0.41230   0.11235   0.65809   0.00000  Uiso   1.00
O878   O     0.60075   0.28522   0.73877   0.00000  Uiso   1.00
O879   O     0.65762   0.28012   0.68389   0.00000  Uiso   1.00
O880   O     0.56108   0.12846   0.75000   0.00000  Uiso   1.00
O881   O     0.59094   0.23511   0.66749   0.00000  Uiso   1.00
O882   O     0.60086   0.05179   0.72085   0.00000  Uiso   1.00
O883   O     0.66315   0.03776   0.76475   0.00000  Uiso   1.00
O884   O     0.60097   0.07549   0.80533   0.00000  Uiso   1.00
O885   O     0.39265   0.28765   0.74313   0.00000  Uiso   1.00
O886   O     0.33452   0.28415   0.79665   0.00000  Uiso   1.00
O887   O     0.40291   0.24556   0.81833   0.00000  Uiso   1.00
O888   O     0.56108   0.20487   0.75000   0.00000  Uiso   1.00
O889   O     0.43892   0.12846   0.74999   0.00000  Uiso   1.00
O890   O     0.49999   0.20489   0.68392   0.00000  Uiso   1.00
O891   O     0.50001   0.12844   0.81607   0.00000  Uiso   1.00
O892   O     0.50001   0.20489   0.81607   0.00000  Uiso   1.00
O893   O     0.49999   0.12844   0.68392   0.00000  Uiso   1.00
O894   O     0.36447   0.20743   0.57469   0.00000  Uiso   1.00
S895   S     0.39204   0.24060   0.55106   0.00000  Uiso   1.00
S896   S     0.62464   0.13615   0.94957   0.00000  Uiso   1.00
S897   S     0.37921   0.08654   0.69320   0.00000  Uiso   1.00
S898   S     0.62371   0.25414   0.70675   0.00000  Uiso   1.00
S899   S     0.62815   0.07037   0.75705   0.00000  Uiso   1.00
S900   S     0.37057   0.25838   0.77655   0.00000  Uiso   1.00
Zn901  Zn    0.50000   0.21771   0.75000   0.00000  Uiso   1.00
Zn902  Zn    0.50000   0.11563   0.75000   0.00000  Uiso   1.00
C903   C     0.75326   0.16701   0.74858   0.00000  Uiso   1.00
C904   C     0.70924   0.16783   0.74303   0.00000  Uiso   1.00
C905   C     0.83889   0.02424   0.78885   0.00000  Uiso   1.00
C906   C     0.82781   0.30908   0.71113   0.00000  Uiso   1.00
C907   C     0.82797   0.02363   0.71110   0.00000  Uiso   1.00
C908   C     0.83895   0.30968   0.78884   0.00000  Uiso   1.00
C909   C     0.83372   0.16654   0.66355   0.00000  Uiso   1.00
C910   C     0.83339   0.16685   0.83654   0.00000  Uiso   1.00
C911   C     0.86965   0.15289   0.90593   0.00000  Uiso   1.00
C912   C     0.80037   0.18642   0.59448   0.00000  Uiso   1.00
C913   C     0.83426   0.16769   0.88432   0.00000  Uiso   1.00
C914   C     0.91346   0.16630   0.74771   0.00000  Uiso   1.00
C915   C     0.83390   0.16693   0.61591   0.00000  Uiso   1.00
C916   C     0.80042   0.18547   0.90746   0.00000  Uiso   1.00
C917   C     0.86887   0.15172   0.59297   0.00000  Uiso   1.00
C918   C     0.80122   0.18879   0.95391   0.00000  Uiso   1.00
C919   C     0.87070   0.15539   0.54653   0.00000  Uiso   1.00
C920   C     0.83680   0.17362   0.97679   0.00000  Uiso   1.00
C921   C     0.83620   0.17363   0.52367   0.00000  Uiso   1.00
C922   C     0.87239   0.15720   0.95268   0.00000  Uiso   1.00
C923   C     0.80078   0.19068   0.54775   0.00000  Uiso   1.00
C924   C     0.76719   0.20735   0.97747   0.00000  Uiso   1.00
C925   C     0.76718   0.21046   0.52418   0.00000  Uiso   1.00
C926   C     0.90664   0.14200   0.52291   0.00000  Uiso   1.00
C927   C     0.90877   0.14507   0.97626   0.00000  Uiso   1.00
C928   C     0.68921   0.12755   0.73016   0.00000  Uiso   1.00
C929   C     0.97833   0.20723   0.73642   0.00000  Uiso   1.00
C930   C     0.98085   0.12440   0.74068   0.00000  Uiso   1.00
C931   C     0.68596   0.20837   0.74908   0.00000  Uiso   1.00
C932   C     0.95769   0.16559   0.74146   0.00000  Uiso   1.00
F933   F     0.89977   0.13260   0.88064   0.00000  Uiso   1.00
F934   F     0.76718   0.19857   0.62028   0.00000  Uiso   1.00
F935   F     0.76622   0.19756   0.88426   0.00000  Uiso   1.00
F936   F     0.90113   0.13448   0.61654   0.00000  Uiso   1.00
F937   F     0.73372   0.22253   0.95469   0.00000  Uiso   1.00
F938   F     0.93990   0.12587   0.54544   0.00000  Uiso   1.00
H939   H     0.84343   0.04242   0.82002   0.00000  Uiso   1.00
H940   H     0.74886   0.27475   0.82713   0.00000  Uiso   1.00
H941   H     0.82321   0.29089   0.67998   0.00000  Uiso   1.00
H942   H     0.82350   0.04136   0.67996   0.00000  Uiso   1.00
H943   H     0.84355   0.29195   0.81997   0.00000  Uiso   1.00
H944   H     0.67353   0.28290   0.53225   0.00000  Uiso   1.00
H945   H     0.99867   0.17232   0.99413   0.00000  Uiso   1.00
H946   H     0.75831   0.08758   0.63983   0.00000  Uiso   1.00
H947   H     0.91006   0.26256   0.65630   0.00000  Uiso   1.00
H948   H     0.92737   0.04405   0.81378   0.00000  Uiso   1.00
N949   N     0.83333   0.28573   0.75000   0.00000  Uiso   1.00
N950   N     0.83333   0.04760   0.75000   0.00000  Uiso   1.00
O951   O     0.77226   0.20487   0.74999   0.00000  Uiso   1.00
O952   O     0.74234   0.27372   0.58465   0.00000  Uiso   1.00
O953   O     0.69674   0.26983   0.51424   0.00000  Uiso   1.00
O954   O     0.95911   0.08975   0.92838   0.00000  Uiso   1.00
O955   O     0.96487   0.17102   0.91384   0.00000  Uiso   1.00
O956   O     0.99704   0.13972   0.98625   0.00000  Uiso   1.00
O957   O     0.73568   0.05164   0.71964   0.00000  Uiso   1.00
O958   O     0.67987   0.06341   0.66596   0.00000  Uiso   1.00
O959   O     0.74563   0.11235   0.65809   0.00000  Uiso   1.00
O960   O     0.93408   0.28522   0.73877   0.00000  Uiso   1.00
O961   O     0.99095   0.28012   0.68389   0.00000  Uiso   1.00
O962   O     0.89441   0.12846   0.75000   0.00000  Uiso   1.00
O963   O     0.92427   0.23511   0.66749   0.00000  Uiso   1.00
O964   O     0.93419   0.05179   0.72085   0.00000  Uiso   1.00
O965   O     0.99649   0.03776   0.76475   0.00000  Uiso   1.00
O966   O     0.93430   0.07549   0.80533   0.00000  Uiso   1.00
O967   O     0.72598   0.28765   0.74313   0.00000  Uiso   1.00
O968   O     0.66785   0.28415   0.79665   0.00000  Uiso   1.00
O969   O     0.73624   0.24556   0.81833   0.00000  Uiso   1.00
O970   O     0.89441   0.20487   0.75000   0.00000  Uiso   1.00
O971   O     0.77226   0.12846   0.74999   0.00000  Uiso   1.00
O972   O     0.83333   0.20489   0.68392   0.00000  Uiso   1.00
O973   O     0.83334   0.12844   0.81607   0.00000  Uiso   1.00
O974   O     0.83334   0.20489   0.81607   0.00000  Uiso   1.00
O975   O     0.83333   0.12844   0.68392   0.00000  Uiso   1.00
O976   O     0.69780   0.20743   0.57469   0.00000  Uiso   1.00
S977   S     0.72538   0.24060   0.55106   0.00000  Uiso   1.00
S978   S     0.95797   0.13615   0.94957   0.00000  Uiso   1.00
S979   S     0.71254   0.08654   0.69320   0.00000  Uiso   1.00
S980   S     0.95704   0.25414   0.70675   0.00000  Uiso   1.00
S981   S     0.96148   0.07037   0.75705   0.00000  Uiso   1.00
S982   S     0.70390   0.25838   0.77655   0.00000  Uiso   1.00
Zn983  Zn    0.83333   0.21771   0.75000   0.00000  Uiso   1.00
Zn984  Zn    0.83333   0.11563   0.75000   0.00000  Uiso   1.00
C985   C     0.08660   0.50034   0.74858   0.00000  Uiso   1.00
C986   C     0.04257   0.50116   0.74303   0.00000  Uiso   1.00
C987   C     0.17222   0.35758   0.78885   0.00000  Uiso   1.00
C988   C     0.16115   0.64241   0.71113   0.00000  Uiso   1.00
C989   C     0.16131   0.35697   0.71110   0.00000  Uiso   1.00
C990   C     0.17229   0.64302   0.78884   0.00000  Uiso   1.00
C991   C     0.16705   0.49987   0.66355   0.00000  Uiso   1.00
C992   C     0.16672   0.50019   0.83654   0.00000  Uiso   1.00
C993   C     0.20298   0.48623   0.90593   0.00000  Uiso   1.00
C994   C     0.13371   0.51976   0.59448   0.00000  Uiso   1.00
C995   C     0.16759   0.50103   0.88432   0.00000  Uiso   1.00
C996   C     0.24679   0.49963   0.74771   0.00000  Uiso   1.00
C997   C     0.16723   0.50027   0.61591   0.00000  Uiso   1.00
C998   C     0.13375   0.51880   0.90746   0.00000  Uiso   1.00
C999   C     0.20220   0.48505   0.59297   0.00000  Uiso   1.00
C1000  C     0.13455   0.52213   0.95391   0.00000  Uiso   1.00
C1001  C     0.20403   0.48873   0.54653   0.00000  Uiso   1.00
C1002  C     0.17014   0.50695   0.97679   0.00000  Uiso   1.00
C1003  C     0.16953   0.50696   0.52367   0.00000  Uiso   1.00
C1004  C     0.20572   0.49053   0.95268   0.00000  Uiso   1.00
C1005  C     0.13412   0.52402   0.54775   0.00000  Uiso   1.00
C1006  C     0.10052   0.54068   0.97747   0.00000  Uiso   1.00
C1007  C     0.10052   0.54379   0.52418   0.00000  Uiso   1.00
C1008  C     0.23998   0.47534   0.52291   0.00000  Uiso   1.00
C1009  C     0.24210   0.47840   0.97626   0.00000  Uiso   1.00
C1010  C     0.02254   0.46089   0.73016   0.00000  Uiso   1.00
C1011  C     0.31166   0.54056   0.73642   0.00000  Uiso   1.00
C1012  C     0.31418   0.45773   0.74068   0.00000  Uiso   1.00
C1013  C     0.01929   0.54170   0.74908   0.00000  Uiso   1.00
C1014  C     0.29102   0.49892   0.74146   0.00000  Uiso   1.00
F1015  F     0.23310   0.46593   0.88064   0.00000  Uiso   1.00
F1016  F     0.10052   0.53190   0.62028   0.00000  Uiso   1.00
F1017  F     0.09956   0.53089   0.88426   0.00000  Uiso   1.00
F1018  F     0.23446   0.46781   0.61654   0.00000  Uiso   1.00
F1019  F     0.06706   0.55586   0.95469   0.00000  Uiso   1.00
F1020  F     0.27323   0.45921   0.54544   0.00000  Uiso   1.00
H1021  H     0.17677   0.37575   0.82002   0.00000  Uiso   1.00
H1022  H     0.08219   0.60809   0.82713   0.00000  Uiso   1.00
H1023  H     0.15654   0.62423   0.67998   0.00000  Uiso   1.00
H1024  H     0.15684   0.37470   0.67996   0.00000  Uiso   1.00
H1025  H     0.17688   0.62528   0.81997   0.00000  Uiso   1.00
H1026  H     0.00687   0.61623   0.53225   0.00000  Uiso   1.00
H1027  H     0.33200   0.50566   0.99413   0.00000  Uiso   1.00
H1028  H     0.09164   0.42092   0.63983   0.00000  Uiso   1.00
H1029  H     0.24339   0.59590   0.65630   0.00000  Uiso   1.00
H1030  H     0.26071   0.37738   0.81378   0.00000  Uiso   1.00
N1031  N     0.16667   0.61907   0.75000   0.00000  Uiso   1.00
N1032  N     0.16667   0.38093   0.75000   0.00000  Uiso   1.00
O1033  O     0.10559   0.53821   0.74999   0.00000  Uiso   1.00
O1034  O     0.07567   0.60706   0.58465   0.00000  Uiso   1.00
O1035  O     0.03008   0.60316   0.51424   0.00000  Uiso   1.00
O1036  O     0.29244   0.42308   0.92838   0.00000  Uiso   1.00
O1037  O     0.29820   0.50435   0.91384   0.00000  Uiso   1.00
O1038  O     0.33037   0.47305   0.98625   0.00000  Uiso   1.00
O1039  O     0.06902   0.38498   0.71964   0.00000  Uiso   1.00
O1040  O     0.01320   0.39674   0.66596   0.00000  Uiso   1.00
O1041  O     0.07897   0.44569   0.65809   0.00000  Uiso   1.00
O1042  O     0.26741   0.61855   0.73877   0.00000  Uiso   1.00
O1043  O     0.32429   0.61345   0.68389   0.00000  Uiso   1.00
O1044  O     0.22774   0.46179   0.75000   0.00000  Uiso   1.00
O1045  O     0.25760   0.56844   0.66749   0.00000  Uiso   1.00
O1046  O     0.26753   0.38512   0.72085   0.00000  Uiso   1.00
O1047  O     0.32982   0.37110   0.76475   0.00000  Uiso   1.00
O1048  O     0.26764   0.40882   0.80533   0.00000  Uiso   1.00
O1049  O     0.05932   0.62098   0.74313   0.00000  Uiso   1.00
O1050  O     0.00119   0.61749   0.79665   0.00000  Uiso   1.00
O1051  O     0.06957   0.57889   0.81833   0.00000  Uiso   1.00
O1052  O     0.22774   0.53821   0.75000   0.00000  Uiso   1.00
O1053  O     0.10559   0.46179   0.74999   0.00000  Uiso   1.00
O1054  O     0.16666   0.53823   0.68392   0.00000  Uiso   1.00
O1055  O     0.16667   0.46177   0.81607   0.00000  Uiso   1.00
O1056  O     0.16667   0.53823   0.81607   0.00000  Uiso   1.00
O1057  O     0.16666   0.46177   0.68392   0.00000  Uiso   1.00
O1058  O     0.03114   0.54076   0.57469   0.00000  Uiso   1.00
S1059  S     0.05871   0.57393   0.55106   0.00000  Uiso   1.00
S1060  S     0.29130   0.46949   0.94957   0.00000  Uiso   1.00
S1061  S     0.04587   0.41987   0.69320   0.00000  Uiso   1.00
S1062  S     0.29038   0.58748   0.70675   0.00000  Uiso   1.00
S1063  S     0.29481   0.40371   0.75705   0.00000  Uiso   1.00
S1064  S     0.03724   0.59171   0.77655   0.00000  Uiso   1.00
Zn1065 Zn    0.16667   0.55104   0.75000   0.00000  Uiso   1.00
Zn1066 Zn    0.16667   0.44896   0.75000   0.00000  Uiso   1.00
C1067  C     0.41993   0.50034   0.74858   0.00000  Uiso   1.00
C1068  C     0.37590   0.50116   0.74303   0.00000  Uiso   1.00
C1069  C     0.50555   0.35758   0.78885   0.00000  Uiso   1.00
C1070  C     0.49448   0.64241   0.71113   0.00000  Uiso   1.00
C1071  C     0.49464   0.35697   0.71110   0.00000  Uiso   1.00
C1072  C     0.50562   0.64302   0.78884   0.00000  Uiso   1.00
C1073  C     0.50039   0.49987   0.66355   0.00000  Uiso   1.00
C1074  C     0.50006   0.50019   0.83654   0.00000  Uiso   1.00
C1075  C     0.53631   0.48623   0.90593   0.00000  Uiso   1.00
C1076  C     0.46704   0.51976   0.59448   0.00000  Uiso   1.00
C1077  C     0.50093   0.50103   0.88432   0.00000  Uiso   1.00
C1078  C     0.58012   0.49963   0.74771   0.00000  Uiso   1.00
C1079  C     0.50057   0.50027   0.61591   0.00000  Uiso   1.00
C1080  C     0.46709   0.51880   0.90746   0.00000  Uiso   1.00
C1081  C     0.53553   0.48505   0.59297   0.00000  Uiso   1.00
C1082  C     0.46789   0.52213   0.95391   0.00000  Uiso   1.00
C1083  C     0.53737   0.48873   0.54653   0.00000  Uiso   1.00
C1084  C     0.50347   0.50695   0.97679   0.00000  Uiso   1.00
C1085  C     0.50286   0.50696   0.52367   0.00000  Uiso   1.00
C1086  C     0.53906   0.49053   0.95268   0.00000  Uiso   1.00
C1087  C     0.46745   0.52402   0.54775   0.00000  Uiso   1.00
C1088  C     0.43385   0.54068   0.97747   0.00000  Uiso   1.00
C1089  C     0.43385   0.54379   0.52418   0.00000  Uiso   1.00
C1090  C     0.57331   0.47534   0.52291   0.00000  Uiso   1.00
C1091  C     0.57543   0.47840   0.97626   0.00000  Uiso   1.00
C1092  C     0.35587   0.46089   0.73016   0.00000  Uiso   1.00
C1093  C     0.64500   0.54056   0.73642   0.00000  Uiso   1.00
C1094  C     0.64751   0.45773   0.74068   0.00000  Uiso   1.00
C1095  C     0.35263   0.54170   0.74908   0.00000  Uiso   1.00
C1096  C     0.62435   0.49892   0.74146   0.00000  Uiso   1.00
F1097  F     0.56644   0.46593   0.88064   0.00000  Uiso   1.00
F1098  F     0.43385   0.53190   0.62028   0.00000  Uiso   1.00
F1099  F     0.43289   0.53089   0.88426   0.00000  Uiso   1.00
F1100  F     0.56780   0.46781   0.61654   0.00000  Uiso   1.00
F1101  F     0.40039   0.55586   0.95469   0.00000  Uiso   1.00
F1102  F     0.60657   0.45921   0.54544   0.00000  Uiso   1.00
H1103  H     0.51010   0.37575   0.82002   0.00000  Uiso   1.00
H1104  H     0.41552   0.60809   0.82713   0.00000  Uiso   1.00
H1105  H     0.48988   0.62423   0.67998   0.00000  Uiso   1.00
H1106  H     0.49017   0.37470   0.67996   0.00000  Uiso   1.00
H1107  H     0.51021   0.62528   0.81997   0.00000  Uiso   1.00
H1108  H     0.34020   0.61623   0.53225   0.00000  Uiso   1.00
H1109  H     0.66534   0.50566   0.99413   0.00000  Uiso   1.00
H1110  H     0.42497   0.42092   0.63983   0.00000  Uiso   1.00
H1111  H     0.57672   0.59590   0.65630   0.00000  Uiso   1.00
H1112  H     0.59404   0.37738   0.81378   0.00000  Uiso   1.00
N1113  N     0.50000   0.61907   0.75000   0.00000  Uiso   1.00
N1114  N     0.50000   0.38093   0.75000   0.00000  Uiso   1.00
O1115  O     0.43892   0.53821   0.74999   0.00000  Uiso   1.00
O1116  O     0.40900   0.60706   0.58465   0.00000  Uiso   1.00
O1117  O     0.36341   0.60316   0.51424   0.00000  Uiso   1.00
O1118  O     0.62578   0.42308   0.92838   0.00000  Uiso   1.00
O1119  O     0.63154   0.50435   0.91384   0.00000  Uiso   1.00
O1120  O     0.66371   0.47305   0.98625   0.00000  Uiso   1.00
O1121  O     0.40235   0.38498   0.71964   0.00000  Uiso   1.00
O1122  O     0.34654   0.39674   0.66596   0.00000  Uiso   1.00
O1123  O     0.41230   0.44569   0.65809   0.00000  Uiso   1.00
O1124  O     0.60075   0.61855   0.73877   0.00000  Uiso   1.00
O1125  O     0.65762   0.61345   0.68389   0.00000  Uiso   1.00
O1126  O     0.56108   0.46179   0.75000   0.00000  Uiso   1.00
O1127  O     0.59094   0.56844   0.66749   0.00000  Uiso   1.00
O1128  O     0.60086   0.38512   0.72085   0.00000  Uiso   1.00
O1129  O     0.66315   0.37110   0.76475   0.00000  Uiso   1.00
O1130  O     0.60097   0.40882   0.80533   0.00000  Uiso   1.00
O1131  O     0.39265   0.62098   0.74313   0.00000  Uiso   1.00
O1132  O     0.33452   0.61749   0.79665   0.00000  Uiso   1.00
O1133  O     0.40291   0.57889   0.81833   0.00000  Uiso   1.00
O1134  O     0.56108   0.53821   0.75000   0.00000  Uiso   1.00
O1135  O     0.43892   0.46179   0.74999   0.00000  Uiso   1.00
O1136  O     0.49999   0.53823   0.68392   0.00000  Uiso   1.00
O1137  O     0.50001   0.46177   0.81607   0.00000  Uiso   1.00
O1138  O     0.50001   0.53823   0.81607   0.00000  Uiso   1.00
O1139  O     0.49999   0.46177   0.68392   0.00000  Uiso   1.00
O1140  O     0.36447   0.54076   0.57469   0.00000  Uiso   1.00
S1141  S     0.39204   0.57393   0.55106   0.00000  Uiso   1.00
S1142  S     0.62464   0.46949   0.94957   0.00000  Uiso   1.00
S1143  S     0.37921   0.41987   0.69320   0.00000  Uiso   1.00
S1144  S     0.62371   0.58748   0.70675   0.00000  Uiso   1.00
S1145  S     0.62815   0.40371   0.75705   0.00000  Uiso   1.00
S1146  S     0.37057   0.59171   0.77655   0.00000  Uiso   1.00
Zn1147 Zn    0.50000   0.55104   0.75000   0.00000  Uiso   1.00
Zn1148 Zn    0.50000   0.44896   0.75000   0.00000  Uiso   1.00
C1149  C     0.75326   0.50034   0.74858   0.00000  Uiso   1.00
C1150  C     0.70924   0.50116   0.74303   0.00000  Uiso   1.00
C1151  C     0.83889   0.35758   0.78885   0.00000  Uiso   1.00
C1152  C     0.82781   0.64241   0.71113   0.00000  Uiso   1.00
C1153  C     0.82797   0.35697   0.71110   0.00000  Uiso   1.00
C1154  C     0.83895   0.64302   0.78884   0.00000  Uiso   1.00
C1155  C     0.83372   0.49987   0.66355   0.00000  Uiso   1.00
C1156  C     0.83339   0.50019   0.83654   0.00000  Uiso   1.00
C1157  C     0.86965   0.48623   0.90593   0.00000  Uiso   1.00
C1158  C     0.80037   0.51976   0.59448   0.00000  Uiso   1.00
C1159  C     0.83426   0.50103   0.88432   0.00000  Uiso   1.00
C1160  C     0.91346   0.49963   0.74771   0.00000  Uiso   1.00
C1161  C     0.83390   0.50027   0.61591   0.00000  Uiso   1.00
C1162  C     0.80042   0.51880   0.90746   0.00000  Uiso   1.00
C1163  C     0.86887   0.48505   0.59297   0.00000  Uiso   1.00
C1164  C     0.80122   0.52213   0.95391   0.00000  Uiso   1.00
C1165  C     0.87070   0.48873   0.54653   0.00000  Uiso   1.00
C1166  C     0.83680   0.50695   0.97679   0.00000  Uiso   1.00
C1167  C     0.83620   0.50696   0.52367   0.00000  Uiso   1.00
C1168  C     0.87239   0.49053   0.95268   0.00000  Uiso   1.00
C1169  C     0.80078   0.52402   0.54775   0.00000  Uiso   1.00
C1170  C     0.76719   0.54068   0.97747   0.00000  Uiso   1.00
C1171  C     0.76718   0.54379   0.52418   0.00000  Uiso   1.00
C1172  C     0.90664   0.47534   0.52291   0.00000  Uiso   1.00
C1173  C     0.90877   0.47840   0.97626   0.00000  Uiso   1.00
C1174  C     0.68921   0.46089   0.73016   0.00000  Uiso   1.00
C1175  C     0.97833   0.54056   0.73642   0.00000  Uiso   1.00
C1176  C     0.98085   0.45773   0.74068   0.00000  Uiso   1.00
C1177  C     0.68596   0.54170   0.74908   0.00000  Uiso   1.00
C1178  C     0.95769   0.49892   0.74146   0.00000  Uiso   1.00
F1179  F     0.89977   0.46593   0.88064   0.00000  Uiso   1.00
F1180  F     0.76718   0.53190   0.62028   0.00000  Uiso   1.00
F1181  F     0.76622   0.53089   0.88426   0.00000  Uiso   1.00
F1182  F     0.90113   0.46781   0.61654   0.00000  Uiso   1.00
F1183  F     0.73372   0.55586   0.95469   0.00000  Uiso   1.00
F1184  F     0.93990   0.45921   0.54544   0.00000  Uiso   1.00
H1185  H     0.84343   0.37575   0.82002   0.00000  Uiso   1.00
H1186  H     0.74886   0.60809   0.82713   0.00000  Uiso   1.00
H1187  H     0.82321   0.62423   0.67998   0.00000  Uiso   1.00
H1188  H     0.82350   0.37470   0.67996   0.00000  Uiso   1.00
H1189  H     0.84355   0.62528   0.81997   0.00000  Uiso   1.00
H1190  H     0.67353   0.61623   0.53225   0.00000  Uiso   1.00
H1191  H     0.99867   0.50566   0.99413   0.00000  Uiso   1.00
H1192  H     0.75831   0.42092   0.63983   0.00000  Uiso   1.00
H1193  H     0.91006   0.59590   0.65630   0.00000  Uiso   1.00
H1194  H     0.92737   0.37738   0.81378   0.00000  Uiso   1.00
N1195  N     0.83333   0.61907   0.75000   0.00000  Uiso   1.00
N1196  N     0.83333   0.38093   0.75000   0.00000  Uiso   1.00
O1197  O     0.77226   0.53821   0.74999   0.00000  Uiso   1.00
O1198  O     0.74234   0.60706   0.58465   0.00000  Uiso   1.00
O1199  O     0.69674   0.60316   0.51424   0.00000  Uiso   1.00
O1200  O     0.95911   0.42308   0.92838   0.00000  Uiso   1.00
O1201  O     0.96487   0.50435   0.91384   0.00000  Uiso   1.00
O1202  O     0.99704   0.47305   0.98625   0.00000  Uiso   1.00
O1203  O     0.73568   0.38498   0.71964   0.00000  Uiso   1.00
O1204  O     0.67987   0.39674   0.66596   0.00000  Uiso   1.00
O1205  O     0.74563   0.44569   0.65809   0.00000  Uiso   1.00
O1206  O     0.93408   0.61855   0.73877   0.00000  Uiso   1.00
O1207  O     0.99095   0.61345   0.68389   0.00000  Uiso   1.00
O1208  O     0.89441   0.46179   0.75000   0.00000  Uiso   1.00
O1209  O     0.92427   0.56844   0.66749   0.00000  Uiso   1.00
O1210  O     0.93419   0.38512   0.72085   0.00000  Uiso   1.00
O1211  O     0.99649   0.37110   0.76475   0.00000  Uiso   1.00
O1212  O     0.93430   0.40882   0.80533   0.00000  Uiso   1.00
O1213  O     0.72598   0.62098   0.74313   0.00000  Uiso   1.00
O1214  O     0.66785   0.61749   0.79665   0.00000  Uiso   1.00
O1215  O     0.73624   0.57889   0.81833   0.00000  Uiso   1.00
O1216  O     0.89441   0.53821   0.75000   0.00000  Uiso   1.00
O1217  O     0.77226   0.46179   0.74999   0.00000  Uiso   1.00
O1218  O     0.83333   0.53823   0.68392   0.00000  Uiso   1.00
O1219  O     0.83334   0.46177   0.81607   0.00000  Uiso   1.00
O1220  O     0.83334   0.53823   0.81607   0.00000  Uiso   1.00
O1221  O     0.83333   0.46177   0.68392   0.00000  Uiso   1.00
O1222  O     0.69780   0.54076   0.57469   0.00000  Uiso   1.00
S1223  S     0.72538   0.57393   0.55106   0.00000  Uiso   1.00
S1224  S     0.95797   0.46949   0.94957   0.00000  Uiso   1.00
S1225  S     0.71254   0.41987   0.69320   0.00000  Uiso   1.00
S1226  S     0.95704   0.58748   0.70675   0.00000  Uiso   1.00
S1227  S     0.96148   0.40371   0.75705   0.00000  Uiso   1.00
S1228  S     0.70390   0.59171   0.77655   0.00000  Uiso   1.00
Zn1229 Zn    0.83333   0.55104   0.75000   0.00000  Uiso   1.00
Zn1230 Zn    0.83333   0.44896   0.75000   0.00000  Uiso   1.00
C1231  C     0.08660   0.83368   0.74858   0.00000  Uiso   1.00
C1232  C     0.04257   0.83450   0.74303   0.00000  Uiso   1.00
C1233  C     0.17222   0.69091   0.78885   0.00000  Uiso   1.00
C1234  C     0.16115   0.97574   0.71113   0.00000  Uiso   1.00
C1235  C     0.16131   0.69030   0.71110   0.00000  Uiso   1.00
C1236  C     0.17229   0.97635   0.78884   0.00000  Uiso   1.00
C1237  C     0.16705   0.83320   0.66355   0.00000  Uiso   1.00
C1238  C     0.16672   0.83352   0.83654   0.00000  Uiso   1.00
C1239  C     0.20298   0.81956   0.90593   0.00000  Uiso   1.00
C1240  C     0.13371   0.85309   0.59448   0.00000  Uiso   1.00
C1241  C     0.16759   0.83436   0.88432   0.00000  Uiso   1.00
C1242  C     0.24679   0.83296   0.74771   0.00000  Uiso   1.00
C1243  C     0.16723   0.83360   0.61591   0.00000  Uiso   1.00
C1244  C     0.13375   0.85214   0.90746   0.00000  Uiso   1.00
C1245  C     0.20220   0.81839   0.59297   0.00000  Uiso   1.00
C1246  C     0.13455   0.85546   0.95391   0.00000  Uiso   1.00
C1247  C     0.20403   0.82206   0.54653   0.00000  Uiso   1.00
C1248  C     0.17014   0.84028   0.97679   0.00000  Uiso   1.00
C1249  C     0.16953   0.84029   0.52367   0.00000  Uiso   1.00
C1250  C     0.20572   0.82387   0.95268   0.00000  Uiso   1.00
C1251  C     0.13412   0.85735   0.54775   0.00000  Uiso   1.00
C1252  C     0.10052   0.87402   0.97747   0.00000  Uiso   1.00
C1253  C     0.10052   0.87713   0.52418   0.00000  Uiso   1.00
C1254  C     0.23998   0.80867   0.52291   0.00000  Uiso   1.00
C1255  C     0.24210   0.81173   0.97626   0.00000  Uiso   1.00
C1256  C     0.02254   0.79422   0.73016   0.00000  Uiso   1.00
C1257  C     0.31166   0.87389   0.73642   0.00000  Uiso   1.00
C1258  C     0.31418   0.79107   0.74068   0.00000  Uiso   1.00
C1259  C     0.01929   0.87503   0.74908   0.00000  Uiso   1.00
C1260  C     0.29102   0.83225   0.74146   0.00000  Uiso   1.00
F1261  F     0.23310   0.79926   0.88064   0.00000  Uiso   1.00
F1262  F     0.10052   0.86524   0.62028   0.00000  Uiso   1.00
F1263  F     0.09956   0.86423   0.88426   0.00000  Uiso   1.00
F1264  F     0.23446   0.80114   0.61654   0.00000  Uiso   1.00
F1265  F     0.06706   0.88920   0.95469   0.00000  Uiso   1.00
F1266  F     0.27323   0.79254   0.54544   0.00000  Uiso   1.00
H1267  H     0.17677   0.70909   0.82002   0.00000  Uiso   1.00
H1268  H     0.08219   0.94142   0.82713   0.00000  Uiso   1.00
H1269  H     0.15654   0.95756   0.67998   0.00000  Uiso   1.00
H1270  H     0.15684   0.70803   0.67996   0.00000  Uiso   1.00
H1271  H     0.17688   0.95861   0.81997   0.00000  Uiso   1.00
H1272  H     0.00687   0.94957   0.53225   0.00000  Uiso   1.00
H1273  H     0.33200   0.83899   0.99413   0.00000  Uiso   1.00
H1274  H     0.09164   0.75425   0.63983   0.00000  Uiso   1.00
H1275  H     0.24339   0.92923   0.65630   0.00000  Uiso   1.00
H1276  H     0.26071   0.71072   0.81378   0.00000  Uiso   1.00
N1277  N     0.16667   0.95240   0.75000   0.00000  Uiso   1.00
N1278  N     0.16667   0.71427   0.75000   0.00000  Uiso   1.00
O1279  O     0.10559   0.87154   0.74999   0.00000  Uiso   1.00
O1280  O     0.07567   0.94039   0.58465   0.00000  Uiso   1.00
O1281  O     0.03008   0.93649   0.51424   0.00000  Uiso   1.00
O1282  O     0.29244   0.75642   0.92838   0.00000  Uiso   1.00
O1283  O     0.29820   0.83769   0.91384   0.00000  Uiso   1.00
O1284  O     0.33037   0.80638   0.98625   0.00000  Uiso   1.00
O1285  O     0.06902   0.71831   0.71964   0.00000  Uiso   1.00
O1286  O     0.01320   0.73008   0.66596   0.00000  Uiso   1.00
O1287  O     0.07897   0.77902   0.65809   0.00000  Uiso   1.00
O1288  O     0.26741   0.95188   0.73877   0.00000  Uiso   1.00
O1289  O     0.32429   0.94679   0.68389   0.00000  Uiso   1.00
O1290  O     0.22774   0.79513   0.75000   0.00000  Uiso   1.00
O1291  O     0.25760   0.90177   0.66749   0.00000  Uiso   1.00
O1292  O     0.26753   0.71846   0.72085   0.00000  Uiso   1.00
O1293  O     0.32982   0.70443   0.76475   0.00000  Uiso   1.00
O1294  O     0.26764   0.74216   0.80533   0.00000  Uiso   1.00
O1295  O     0.05932   0.95432   0.74313   0.00000  Uiso   1.00
O1296  O     0.00119   0.95082   0.79665   0.00000  Uiso   1.00
O1297  O     0.06957   0.91222   0.81833   0.00000  Uiso   1.00
O1298  O     0.22774   0.87154   0.75000   0.00000  Uiso   1.00
O1299  O     0.10559   0.79513   0.74999   0.00000  Uiso   1.00
O1300  O     0.16666   0.87156   0.68392   0.00000  Uiso   1.00
O1301  O     0.16667   0.79511   0.81607   0.00000  Uiso   1.00
O1302  O     0.16667   0.87156   0.81607   0.00000  Uiso   1.00
O1303  O     0.16666   0.79511   0.68392   0.00000  Uiso   1.00
O1304  O     0.03114   0.87410   0.57469   0.00000  Uiso   1.00
S1305  S     0.05871   0.90727   0.55106   0.00000  Uiso   1.00
S1306  S     0.29130   0.80282   0.94957   0.00000  Uiso   1.00
S1307  S     0.04587   0.75321   0.69320   0.00000  Uiso   1.00
S1308  S     0.29038   0.92081   0.70675   0.00000  Uiso   1.00
S1309  S     0.29481   0.73704   0.75705   0.00000  Uiso   1.00
S1310  S     0.03724   0.92504   0.77655   0.00000  Uiso   1.00
Zn1311 Zn    0.16667   0.88437   0.75000   0.00000  Uiso   1.00
Zn1312 Zn    0.16667   0.78229   0.75000   0.00000  Uiso   1.00
C1313  C     0.41993   0.83368   0.74858   0.00000  Uiso   1.00
C1314  C     0.37590   0.83450   0.74303   0.00000  Uiso   1.00
C1315  C     0.50555   0.69091   0.78885   0.00000  Uiso   1.00
C1316  C     0.49448   0.97574   0.71113   0.00000  Uiso   1.00
C1317  C     0.49464   0.69030   0.71110   0.00000  Uiso   1.00
C1318  C     0.50562   0.97635   0.78884   0.00000  Uiso   1.00
C1319  C     0.50039   0.83320   0.66355   0.00000  Uiso   1.00
C1320  C     0.50006   0.83352   0.83654   0.00000  Uiso   1.00
C1321  C     0.53631   0.81956   0.90593   0.00000  Uiso   1.00
C1322  C     0.46704   0.85309   0.59448   0.00000  Uiso   1.00
C1323  C     0.50093   0.83436   0.88432   0.00000  Uiso   1.00
C1324  C     0.58012   0.83296   0.74771   0.00000  Uiso   1.00
C1325  C     0.50057   0.83360   0.61591   0.00000  Uiso   1.00
C1326  C     0.46709   0.85214   0.90746   0.00000  Uiso   1.00
C1327  C     0.53553   0.81839   0.59297   0.00000  Uiso   1.00
C1328  C     0.46789   0.85546   0.95391   0.00000  Uiso   1.00
C1329  C     0.53737   0.82206   0.54653   0.00000  Uiso   1.00
C1330  C     0.50347   0.84028   0.97679   0.00000  Uiso   1.00
C1331  C     0.50286   0.84029   0.52367   0.00000  Uiso   1.00
C1332  C     0.53906   0.82387   0.95268   0.00000  Uiso   1.00
C1333  C     0.46745   0.85735   0.54775   0.00000  Uiso   1.00
C1334  C     0.43385   0.87402   0.97747   0.00000  Uiso   1.00
C1335  C     0.43385   0.87713   0.52418   0.00000  Uiso   1.00
C1336  C     0.57331   0.80867   0.52291   0.00000  Uiso   1.00
C1337  C     0.57543   0.81173   0.97626   0.00000  Uiso   1.00
C1338  C     0.35587   0.79422   0.73016   0.00000  Uiso   1.00
C1339  C     0.64500   0.87389   0.73642   0.00000  Uiso   1.00
C1340  C     0.64751   0.79107   0.74068   0.00000  Uiso   1.00
C1341  C     0.35263   0.87503   0.74908   0.00000  Uiso   1.00
C1342  C     0.62435   0.83225   0.74146   0.00000  Uiso   1.00
F1343  F     0.56644   0.79926   0.88064   0.00000  Uiso   1.00
F1344  F     0.43385   0.86524   0.62028   0.00000  Uiso   1.00
F1345  F     0.43289   0.86423   0.88426   0.00000  Uiso   1.00
F1346  F     0.56780   0.80114   0.61654   0.00000  Uiso   1.00
F1347  F     0.40039   0.88920   0.95469   0.00000  Uiso   1.00
F1348  F     0.60657   0.79254   0.54544   0.00000  Uiso   1.00
H1349  H     0.51010   0.70909   0.82002   0.00000  Uiso   1.00
H1350  H     0.41552   0.94142   0.82713   0.00000  Uiso   1.00
H1351  H     0.48988   0.95756   0.67998   0.00000  Uiso   1.00
H1352  H     0.49017   0.70803   0.67996   0.00000  Uiso   1.00
H1353  H     0.51021   0.95861   0.81997   0.00000  Uiso   1.00
H1354  H     0.34020   0.94957   0.53225   0.00000  Uiso   1.00
H1355  H     0.66534   0.83899   0.99413   0.00000  Uiso   1.00
H1356  H     0.42497   0.75425   0.63983   0.00000  Uiso   1.00
H1357  H     0.57672   0.92923   0.65630   0.00000  Uiso   1.00
H1358  H     0.59404   0.71072   0.81378   0.00000  Uiso   1.00
N1359  N     0.50000   0.95240   0.75000   0.00000  Uiso   1.00
N1360  N     0.50000   0.71427   0.75000   0.00000  Uiso   1.00
O1361  O     0.43892   0.87154   0.74999   0.00000  Uiso   1.00
O1362  O     0.40900   0.94039   0.58465   0.00000  Uiso   1.00
O1363  O     0.36341   0.93649   0.51424   0.00000  Uiso   1.00
O1364  O     0.62578   0.75642   0.92838   0.00000  Uiso   1.00
O1365  O     0.63154   0.83769   0.91384   0.00000  Uiso   1.00
O1366  O     0.66371   0.80638   0.98625   0.00000  Uiso   1.00
O1367  O     0.40235   0.71831   0.71964   0.00000  Uiso   1.00
O1368  O     0.34654   0.73008   0.66596   0.00000  Uiso   1.00
O1369  O     0.41230   0.77902   0.65809   0.00000  Uiso   1.00
O1370  O     0.60075   0.95188   0.73877   0.00000  Uiso   1.00
O1371  O     0.65762   0.94679   0.68389   0.00000  Uiso   1.00
O1372  O     0.56108   0.79513   0.75000   0.00000  Uiso   1.00
O1373  O     0.59094   0.90177   0.66749   0.00000  Uiso   1.00
O1374  O     0.60086   0.71846   0.72085   0.00000  Uiso   1.00
O1375  O     0.66315   0.70443   0.76475   0.00000  Uiso   1.00
O1376  O     0.60097   0.74216   0.80533   0.00000  Uiso   1.00
O1377  O     0.39265   0.95432   0.74313   0.00000  Uiso   1.00
O1378  O     0.33452   0.95082   0.79665   0.00000  Uiso   1.00
O1379  O     0.40291   0.91222   0.81833   0.00000  Uiso   1.00
O1380  O     0.56108   0.87154   0.75000   0.00000  Uiso   1.00
O1381  O     0.43892   0.79513   0.74999   0.00000  Uiso   1.00
O1382  O     0.49999   0.87156   0.68392   0.00000  Uiso   1.00
O1383  O     0.50001   0.79511   0.81607   0.00000  Uiso   1.00
O1384  O     0.50001   0.87156   0.81607   0.00000  Uiso   1.00
O1385  O     0.49999   0.79511   0.68392   0.00000  Uiso   1.00
O1386  O     0.36447   0.87410   0.57469   0.00000  Uiso   1.00
S1387  S     0.39204   0.90727   0.55106   0.00000  Uiso   1.00
S1388  S     0.62464   0.80282   0.94957   0.00000  Uiso   1.00
S1389  S     0.37921   0.75321   0.69320   0.00000  Uiso   1.00
S1390  S     0.62371   0.92081   0.70675   0.00000  Uiso   1.00
S1391  S     0.62815   0.73704   0.75705   0.00000  Uiso   1.00
S1392  S     0.37057   0.92504   0.77655   0.00000  Uiso   1.00
Zn1393 Zn    0.50000   0.88437   0.75000   0.00000  Uiso   1.00
Zn1394 Zn    0.50000   0.78229   0.75000   0.00000  Uiso   1.00
C1395  C     0.75326   0.83368   0.74858   0.00000  Uiso   1.00
C1396  C     0.70924   0.83450   0.74303   0.00000  Uiso   1.00
C1397  C     0.83889   0.69091   0.78885   0.00000  Uiso   1.00
C1398  C     0.82781   0.97574   0.71113   0.00000  Uiso   1.00
C1399  C     0.82797   0.69030   0.71110   0.00000  Uiso   1.00
C1400  C     0.83895   0.97635   0.78884   0.00000  Uiso   1.00
C1401  C     0.83372   0.83320   0.66355   0.00000  Uiso   1.00
C1402  C     0.83339   0.83352   0.83654   0.00000  Uiso   1.00
C1403  C     0.86965   0.81956   0.90593   0.00000  Uiso   1.00
C1404  C     0.80037   0.85309   0.59448   0.00000  Uiso   1.00
C1405  C     0.83426   0.83436   0.88432   0.00000  Uiso   1.00
C1406  C     0.91346   0.83296   0.74771   0.00000  Uiso   1.00
C1407  C     0.83390   0.83360   0.61591   0.00000  Uiso   1.00
C1408  C     0.80042   0.85214   0.90746   0.00000  Uiso   1.00
C1409  C     0.86887   0.81839   0.59297   0.00000  Uiso   1.00
C1410  C     0.80122   0.85546   0.95391   0.00000  Uiso   1.00
C1411  C     0.87070   0.82206   0.54653   0.00000  Uiso   1.00
C1412  C     0.83680   0.84028   0.97679   0.00000  Uiso   1.00
C1413  C     0.83620   0.84029   0.52367   0.00000  Uiso   1.00
C1414  C     0.87239   0.82387   0.95268   0.00000  Uiso   1.00
C1415  C     0.80078   0.85735   0.54775   0.00000  Uiso   1.00
C1416  C     0.76719   0.87402   0.97747   0.00000  Uiso   1.00
C1417  C     0.76718   0.87713   0.52418   0.00000  Uiso   1.00
C1418  C     0.90664   0.80867   0.52291   0.00000  Uiso   1.00
C1419  C     0.90877   0.81173   0.97626   0.00000  Uiso   1.00
C1420  C     0.68921   0.79422   0.73016   0.00000  Uiso   1.00
C1421  C     0.97833   0.87389   0.73642   0.00000  Uiso   1.00
C1422  C     0.98085   0.79107   0.74068   0.00000  Uiso   1.00
C1423  C     0.68596   0.87503   0.74908   0.00000  Uiso   1.00
C1424  C     0.95769   0.83225   0.74146   0.00000  Uiso   1.00
F1425  F     0.89977   0.79926   0.88064   0.00000  Uiso   1.00
F1426  F     0.76718   0.86524   0.62028   0.00000  Uiso   1.00
F1427  F     0.76622   0.86423   0.88426   0.00000  Uiso   1.00
F1428  F     0.90113   0.80114   0.61654   0.00000  Uiso   1.00
F1429  F     0.73372   0.88920   0.95469   0.00000  Uiso   1.00
F1430  F     0.93990   0.79254   0.54544   0.00000  Uiso   1.00
H1431  H     0.84343   0.70909   0.82002   0.00000  Uiso   1.00
H1432  H     0.74886   0.94142   0.82713   0.00000  Uiso   1.00
H1433  H     0.82321   0.95756   0.67998   0.00000  Uiso   1.00
H1434  H     0.82350   0.70803   0.67996   0.00000  Uiso   1.00
H1435  H     0.84355   0.95861   0.81997   0.00000  Uiso   1.00
H1436  H     0.67353   0.94957   0.53225   0.00000  Uiso   1.00
H1437  H     0.99867   0.83899   0.99413   0.00000  Uiso   1.00
H1438  H     0.75831   0.75425   0.63983   0.00000  Uiso   1.00
H1439  H     0.91006   0.92923   0.65630   0.00000  Uiso   1.00
H1440  H     0.92737   0.71072   0.81378   0.00000  Uiso   1.00
N1441  N     0.83333   0.95240   0.75000   0.00000  Uiso   1.00
N1442  N     0.83333   0.71427   0.75000   0.00000  Uiso   1.00
O1443  O     0.77226   0.87154   0.74999   0.00000  Uiso   1.00
O1444  O     0.74234   0.94039   0.58465   0.00000  Uiso   1.00
O1445  O     0.69674   0.93649   0.51424   0.00000  Uiso   1.00
O1446  O     0.95911   0.75642   0.92838   0.00000  Uiso   1.00
O1447  O     0.96487   0.83769   0.91384   0.00000  Uiso   1.00
O1448  O     0.99704   0.80638   0.98625   0.00000  Uiso   1.00
O1449  O     0.73568   0.71831   0.71964   0.00000  Uiso   1.00
O1450  O     0.67987   0.73008   0.66596   0.00000  Uiso   1.00
O1451  O     0.74563   0.77902   0.65809   0.00000  Uiso   1.00
O1452  O     0.93408   0.95188   0.73877   0.00000  Uiso   1.00
O1453  O     0.99095   0.94679   0.68389   0.00000  Uiso   1.00
O1454  O     0.89441   0.79513   0.75000   0.00000  Uiso   1.00
O1455  O     0.92427   0.90177   0.66749   0.00000  Uiso   1.00
O1456  O     0.93419   0.71846   0.72085   0.00000  Uiso   1.00
O1457  O     0.99649   0.70443   0.76475   0.00000  Uiso   1.00
O1458  O     0.93430   0.74216   0.80533   0.00000  Uiso   1.00
O1459  O     0.72598   0.95432   0.74313   0.00000  Uiso   1.00
O1460  O     0.66785   0.95082   0.79665   0.00000  Uiso   1.00
O1461  O     0.73624   0.91222   0.81833   0.00000  Uiso   1.00
O1462  O     0.89441   0.87154   0.75000   0.00000  Uiso   1.00
O1463  O     0.77226   0.79513   0.74999   0.00000  Uiso   1.00
O1464  O     0.83333   0.87156   0.68392   0.00000  Uiso   1.00
O1465  O     0.83334   0.79511   0.81607   0.00000  Uiso   1.00
O1466  O     0.83334   0.87156   0.81607   0.00000  Uiso   1.00
O1467  O     0.83333   0.79511   0.68392   0.00000  Uiso   1.00
O1468  O     0.69780   0.87410   0.57469   0.00000  Uiso   1.00
S1469  S     0.72538   0.90727   0.55106   0.00000  Uiso   1.00
S1470  S     0.95797   0.80282   0.94957   0.00000  Uiso   1.00
S1471  S     0.71254   0.75321   0.69320   0.00000  Uiso   1.00
S1472  S     0.95704   0.92081   0.70675   0.00000  Uiso   1.00
S1473  S     0.96148   0.73704   0.75705   0.00000  Uiso   1.00
S1474  S     0.70390   0.92504   0.77655   0.00000  Uiso   1.00
Zn1475 Zn    0.83333   0.88437   0.75000   0.00000  Uiso   1.00
Zn1476 Zn    0.83333   0.78229   0.75000   0.00000  Uiso   1.00
loop_
_geom_bond_atom_site_label_1
_geom_bond_atom_site_label_2
_geom_bond_distance
_geom_bond_site_symmetry_2
_ccdc_geom_bond_type
C1     C2      1.434   .     S
C1     O69     1.289   .     A
C1     O49     1.280   .     A
C2     C29     1.417   .     A
C2     C26     1.410   .     A
C3     N48     1.366   .     A
C3     H37     1.081   .     S
C3     C498    1.414   1_545 S
C4     H39     1.081   .     S
C4     N47     1.366   .     A
C4     C251    1.414   .     S
C5     N48     1.366   .     A
C5     H40     1.081   .     S
C5     C496    1.414   1_545 S
C6     H41     1.081   .     S
C6     N47     1.366   .     A
C6     C249    1.414   .     S
C7     O73     1.283   .     A
C7     O70     1.280   .     A
C7     C13     1.420   .     S
C8     O72     1.283   .     A
C8     O71     1.282   .     A
C8     C11     1.425   .     S
C9     F31     1.356   .     S
C9     C20     1.402   .     A
C9     C11     1.388   .     A
C10    C21     1.400   .     A
C10    C13     1.387   .     A
C10    F32     1.356   .     S
C11    C14     1.383   .     A
C12    O68     1.291   .     A
C12    C30     1.439   .     S
C12    O60     1.281   .     A
C13    C15     1.383   .     A
C14    F33     1.357   .     S
C14    C16     1.388   .     A
C15    F34     1.361   .     S
C15    C17     1.390   .     A
C16    C22     1.403   .     A
C16    C18     1.415   .     A
C17    C24     1.403   .     A
C17    C19     1.418   .     A
C18    C20     1.428   .     A
C18    C757    1.398   .     S
C19    C21     1.429   .     A
C19    C756    1.398   1_554 S
C20    C25     1.421   .     A
C21    C23     1.424   .     A
C22    F35     1.358   .     S
C22    C761    1.395   .     S
C23    S75     1.789   .     S
C23    C760    1.395   1_554 S
C24    F36     1.359   .     S
C24    C763    1.396   1_554 S
C25    S76     1.786   .     S
C25    C762    1.396   .     S
C26    S77     1.786   .     S
C26    C192    1.383   1_455 S
C27    S78     1.787   .     S
C27    C30     1.411   .     A
C27    C111    1.381   .     S
C28    S79     1.788   .     S
C28    C30     1.422   .     A
C28    C108    1.383   .     S
C29    S80     1.785   .     S
C29    C191    1.381   1_455 S
H38    O67     0.991   .     S
H42    O51     0.991   .     S
H43    O54     0.990   .     S
H44    O57     0.991   .     S
H45    O61     0.991   .     S
H46    O64     0.991   .     S
N47    Zn81    2.008   .     S
N48    Zn82    2.008   .     S
O49    Zn81    2.012   .     S
O50    S75     1.504   .     D
O51    S75     1.683   .     S
O52    S76     1.503   .     D
O53    S76     1.504   .     D
O54    S76     1.682   .     S
O55    S77     1.502   .     D
O56    S77     1.503   .     D
O57    S77     1.680   .     S
O58    S78     1.503   .     D
O59    S78     1.503   .     D
O60    Zn82    2.012   .     S
O61    S78     1.683   .     S
O62    S79     1.503   .     D
O63    S79     1.500   .     D
O64    S79     1.683   .     S
O65    S80     1.503   .     D
O66    S80     1.502   .     D
O67    S80     1.678   .     S
O68    Zn81    2.006   .     S
O69    Zn82    2.006   .     S
O70    Zn81    2.002   .     S
O71    Zn82    2.002   .     S
O72    Zn81    2.009   .     S
O73    Zn82    2.009   .     S
O74    S75     1.504   .     D
C83    C84     1.434   .     S
C83    O151    1.289   .     A
C83    O131    1.280   .     A
C84    C111    1.417   .     A
C84    C108    1.410   .     A
C85    N130    1.366   .     A
C85    H119    1.081   .     S
C85    C580    1.414   1_545 S
C86    H121    1.081   .     S
C86    N129    1.366   .     A
C86    C333    1.414   .     S
C87    N130    1.366   .     A
C87    H122    1.081   .     S
C87    C578    1.414   1_545 S
C88    H123    1.081   .     S
C88    N129    1.366   .     A
C88    C331    1.414   .     S
C89    O155    1.283   .     A
C89    O152    1.280   .     A
C89    C95     1.420   .     S
C90    O154    1.283   .     A
C90    O153    1.282   .     A
C90    C93     1.425   .     S
C91    F113    1.356   .     S
C91    C102    1.402   .     A
C91    C93     1.388   .     A
C92    C103    1.400   .     A
C92    C95     1.387   .     A
C92    F114    1.356   .     S
C93    C96     1.383   .     A
C94    O150    1.291   .     A
C94    C112    1.439   .     S
C94    O142    1.281   .     A
C95    C97     1.383   .     A
C96    F115    1.357   .     S
C96    C98     1.388   .     A
C97    F116    1.361   .     S
C97    C99     1.390   .     A
C98    C104    1.403   .     A
C98    C100    1.415   .     A
C99    C106    1.403   .     A
C99    C101    1.418   .     A
C100   C102    1.428   .     A
C100   C839    1.398   .     S
C101   C103    1.429   .     A
C101   C838    1.398   1_554 S
C102   C107    1.421   .     A
C103   C105    1.424   .     A
C104   F117    1.358   .     S
C104   C843    1.395   .     S
C105   S157    1.789   .     S
C105   C842    1.395   1_554 S
C106   F118    1.359   .     S
C106   C845    1.396   1_554 S
C107   S158    1.786   .     S
C107   C844    1.396   .     S
C108   S159    1.786   .     S
C109   S160    1.787   .     S
C109   C112    1.411   .     A
C109   C193    1.381   .     S
C110   S161    1.788   .     S
C110   C112    1.422   .     A
C110   C190    1.383   .     S
C111   S162    1.785   .     S
H120   O149    0.991   .     S
H124   O133    0.991   .     S
H125   O136    0.990   .     S
H126   O139    0.991   .     S
H127   O143    0.991   .     S
H128   O146    0.991   .     S
N129   Zn163   2.008   .     S
N130   Zn164   2.008   .     S
O131   Zn163   2.012   .     S
O132   S157    1.504   .     D
O133   S157    1.683   .     S
O134   S158    1.503   .     D
O135   S158    1.504   .     D
O136   S158    1.682   .     S
O137   S159    1.502   .     D
O138   S159    1.503   .     D
O139   S159    1.680   .     S
O140   S160    1.503   .     D
O141   S160    1.503   .     D
O142   Zn164   2.012   .     S
O143   S160    1.683   .     S
O144   S161    1.503   .     D
O145   S161    1.500   .     D
O146   S161    1.683   .     S
O147   S162    1.503   .     D
O148   S162    1.502   .     D
O149   S162    1.678   .     S
O150   Zn163   2.006   .     S
O151   Zn164   2.006   .     S
O152   Zn163   2.002   .     S
O153   Zn164   2.002   .     S
O154   Zn163   2.009   .     S
O155   Zn164   2.009   .     S
O156   S157    1.504   .     D
C165   C166    1.434   .     S
C165   O233    1.289   .     A
C165   O213    1.280   .     A
C166   C193    1.417   .     A
C166   C190    1.410   .     A
C167   N212    1.366   .     A
C167   H201    1.081   .     S
C167   C662    1.414   1_545 S
C168   H203    1.081   .     S
C168   N211    1.366   .     A
C168   C415    1.414   .     S
C169   N212    1.366   .     A
C169   H204    1.081   .     S
C169   C660    1.414   1_545 S
C170   H205    1.081   .     S
C170   N211    1.366   .     A
C170   C413    1.414   .     S
C171   O237    1.283   .     A
C171   O234    1.280   .     A
C171   C177    1.420   .     S
C172   O236    1.283   .     A
C172   O235    1.282   .     A
C172   C175    1.425   .     S
C173   F195    1.356   .     S
C173   C184    1.402   .     A
C173   C175    1.388   .     A
C174   C185    1.400   .     A
C174   C177    1.387   .     A
C174   F196    1.356   .     S
C175   C178    1.383   .     A
C176   O232    1.291   .     A
C176   C194    1.439   .     S
C176   O224    1.281   .     A
C177   C179    1.383   .     A
C178   F197    1.357   .     S
C178   C180    1.388   .     A
C179   F198    1.361   .     S
C179   C181    1.390   .     A
C180   C186    1.403   .     A
C180   C182    1.415   .     A
C181   C188    1.403   .     A
C181   C183    1.418   .     A
C182   C184    1.428   .     A
C182   C921    1.398   .     S
C183   C185    1.429   .     A
C183   C920    1.398   1_554 S
C184   C189    1.421   .     A
C185   C187    1.424   .     A
C186   F199    1.358   .     S
C186   C925    1.395   .     S
C187   S239    1.789   .     S
C187   C924    1.395   1_554 S
C188   F200    1.359   .     S
C188   C927    1.396   1_554 S
C189   S240    1.786   .     S
C189   C926    1.396   .     S
C190   S241    1.786   .     S
C191   S242    1.787   .     S
C191   C194    1.411   .     A
C191   C29     1.381   1_655 S
C192   S243    1.788   .     S
C192   C194    1.422   .     A
C192   C26     1.383   1_655 S
C193   S244    1.785   .     S
H202   O231    0.991   .     S
H206   O215    0.991   .     S
H207   O218    0.990   .     S
H208   O221    0.991   .     S
H209   O225    0.991   .     S
H210   O228    0.991   .     S
N211   Zn245   2.008   .     S
N212   Zn246   2.008   .     S
O213   Zn245   2.012   .     S
O214   S239    1.504   .     D
O215   S239    1.683   .     S
O216   S240    1.503   .     D
O217   S240    1.504   .     D
O218   S240    1.682   .     S
O219   S241    1.502   .     D
O220   S241    1.503   .     D
O221   S241    1.680   .     S
O222   S242    1.503   .     D
O223   S242    1.503   .     D
O224   Zn246   2.012   .     S
O225   S242    1.683   .     S
O226   S243    1.503   .     D
O227   S243    1.500   .     D
O228   S243    1.683   .     S
O229   S244    1.503   .     D
O230   S244    1.502   .     D
O231   S244    1.678   .     S
O232   Zn245   2.006   .     S
O233   Zn246   2.006   .     S
O234   Zn245   2.002   .     S
O235   Zn246   2.002   .     S
O236   Zn245   2.009   .     S
O237   Zn246   2.009   .     S
O238   S239    1.504   .     D
C247   C248    1.434   .     S
C247   O315    1.289   .     A
C247   O295    1.280   .     A
C248   C275    1.417   .     A
C248   C272    1.410   .     A
C249   N294    1.366   .     A
C249   H283    1.081   .     S
C250   H285    1.081   .     S
C250   N293    1.366   .     A
C250   C497    1.414   .     S
C251   N294    1.366   .     A
C251   H286    1.081   .     S
C252   H287    1.081   .     S
C252   N293    1.366   .     A
C252   C495    1.414   .     S
C253   O319    1.283   .     A
C253   O316    1.280   .     A
C253   C259    1.420   .     S
C254   O318    1.283   .     A
C254   O317    1.282   .     A
C254   C257    1.425   .     S
C255   F277    1.356   .     S
C255   C266    1.402   .     A
C255   C257    1.388   .     A
C256   C267    1.400   .     A
C256   C259    1.387   .     A
C256   F278    1.356   .     S
C257   C260    1.383   .     A
C258   O314    1.291   .     A
C258   C276    1.439   .     S
C258   O306    1.281   .     A
C259   C261    1.383   .     A
C260   F279    1.357   .     S
C260   C262    1.388   .     A
C261   F280    1.361   .     S
C261   C263    1.390   .     A
C262   C268    1.403   .     A
C262   C264    1.415   .     A
C263   C270    1.403   .     A
C263   C265    1.418   .     A
C264   C266    1.428   .     A
C264   C1003   1.398   .     S
C265   C267    1.429   .     A
C265   C1002   1.398   1_554 S
C266   C271    1.421   .     A
C267   C269    1.424   .     A
C268   F281    1.358   .     S
C268   C1007   1.395   .     S
C269   S321    1.789   .     S
C269   C1006   1.395   1_554 S
C270   F282    1.359   .     S
C270   C1009   1.396   1_554 S
C271   S322    1.786   .     S
C271   C1008   1.396   .     S
C272   S323    1.786   .     S
C272   C438    1.383   1_455 S
C273   S324    1.787   .     S
C273   C276    1.411   .     A
C273   C357    1.381   .     S
C274   S325    1.788   .     S
C274   C276    1.422   .     A
C274   C354    1.383   .     S
C275   S326    1.785   .     S
C275   C437    1.381   1_455 S
H284   O313    0.991   .     S
H288   O297    0.991   .     S
H289   O300    0.990   .     S
H290   O303    0.991   .     S
H291   O307    0.991   .     S
H292   O310    0.991   .     S
N293   Zn327   2.008   .     S
N294   Zn328   2.008   .     S
O295   Zn327   2.012   .     S
O296   S321    1.504   .     D
O297   S321    1.683   .     S
O298   S322    1.503   .     D
O299   S322    1.504   .     D
O300   S322    1.682   .     S
O301   S323    1.502   .     D
O302   S323    1.503   .     D
O303   S323    1.680   .     S
O304   S324    1.503   .     D
O305   S324    1.503   .     D
O306   Zn328   2.012   .     S
O307   S324    1.683   .     S
O308   S325    1.503   .     D
O309   S325    1.500   .     D
O310   S325    1.683   .     S
O311   S326    1.503   .     D
O312   S326    1.502   .     D
O313   S326    1.678   .     S
O314   Zn327   2.006   .     S
O315   Zn328   2.006   .     S
O316   Zn327   2.002   .     S
O317   Zn328   2.002   .     S
O318   Zn327   2.009   .     S
O319   Zn328   2.009   .     S
O320   S321    1.504   .     D
C329   C330    1.434   .     S
C329   O397    1.289   .     A
C329   O377    1.280   .     A
C330   C357    1.417   .     A
C330   C354    1.410   .     A
C331   N376    1.366   .     A
C331   H365    1.081   .     S
C332   H367    1.081   .     S
C332   N375    1.366   .     A
C332   C579    1.414   .     S
C333   N376    1.366   .     A
C333   H368    1.081   .     S
C334   H369    1.081   .     S
C334   N375    1.366   .     A
C334   C577    1.414   .     S
C335   O401    1.283   .     A
C335   O398    1.280   .     A
C335   C341    1.420   .     S
C336   O400    1.283   .     A
C336   O399    1.282   .     A
C336   C339    1.425   .     S
C337   F359    1.356   .     S
C337   C348    1.402   .     A
C337   C339    1.388   .     A
C338   C349    1.400   .     A
C338   C341    1.387   .     A
C338   F360    1.356   .     S
C339   C342    1.383   .     A
C340   O396    1.291   .     A
C340   C358    1.439   .     S
C340   O388    1.281   .     A
C341   C343    1.383   .     A
C342   F361    1.357   .     S
C342   C344    1.388   .     A
C343   F362    1.361   .     S
C343   C345    1.390   .     A
C344   C350    1.403   .     A
C344   C346    1.415   .     A
C345   C352    1.403   .     A
C345   C347    1.418   .     A
C346   C348    1.428   .     A
C346   C1085   1.398   .     S
C347   C349    1.429   .     A
C347   C1084   1.398   1_554 S
C348   C353    1.421   .     A
C349   C351    1.424   .     A
C350   F363    1.358   .     S
C350   C1089   1.395   .     S
C351   S403    1.789   .     S
C351   C1088   1.395   1_554 S
C352   F364    1.359   .     S
C352   C1091   1.396   1_554 S
C353   S404    1.786   .     S
C353   C1090   1.396   .     S
C354   S405    1.786   .     S
C355   S406    1.787   .     S
C355   C358    1.411   .     A
C355   C439    1.381   .     S
C356   S407    1.788   .     S
C356   C358    1.422   .     A
C356   C436    1.383   .     S
C357   S408    1.785   .     S
H366   O395    0.991   .     S
H370   O379    0.991   .     S
H371   O382    0.990   .     S
H372   O385    0.991   .     S
H373   O389    0.991   .     S
H374   O392    0.991   .     S
N375   Zn409   2.008   .     S
N376   Zn410   2.008   .     S
O377   Zn409   2.012   .     S
O378   S403    1.504   .     D
O379   S403    1.683   .     S
O380   S404    1.503   .     D
O381   S404    1.504   .     D
O382   S404    1.682   .     S
O383   S405    1.502   .     D
O384   S405    1.503   .     D
O385   S405    1.680   .     S
O386   S406    1.503   .     D
O387   S406    1.503   .     D
O388   Zn410   2.012   .     S
O389   S406    1.683   .     S
O390   S407    1.503   .     D
O391   S407    1.500   .     D
O392   S407    1.683   .     S
O393   S408    1.503   .     D
O394   S408    1.502   .     D
O395   S408    1.678   .     S
O396   Zn409   2.006   .     S
O397   Zn410   2.006   .     S
O398   Zn409   2.002   .     S
O399   Zn410   2.002   .     S
O400   Zn409   2.009   .     S
O401   Zn410   2.009   .     S
O402   S403    1.504   .     D
C411   C412    1.434   .     S
C411   O479    1.289   .     A
C411   O459    1.280   .     A
C412   C439    1.417   .     A
C412   C436    1.410   .     A
C413   N458    1.366   .     A
C413   H447    1.081   .     S
C414   H449    1.081   .     S
C414   N457    1.366   .     A
C414   C661    1.414   .     S
C415   N458    1.366   .     A
C415   H450    1.081   .     S
C416   H451    1.081   .     S
C416   N457    1.366   .     A
C416   C659    1.414   .     S
C417   O483    1.283   .     A
C417   O480    1.280   .     A
C417   C423    1.420   .     S
C418   O482    1.283   .     A
C418   O481    1.282   .     A
C418   C421    1.425   .     S
C419   F441    1.356   .     S
C419   C430    1.402   .     A
C419   C421    1.388   .     A
C420   C431    1.400   .     A
C420   C423    1.387   .     A
C420   F442    1.356   .     S
C421   C424    1.383   .     A
C422   O478    1.291   .     A
C422   C440    1.439   .     S
C422   O470    1.281   .     A
C423   C425    1.383   .     A
C424   F443    1.357   .     S
C424   C426    1.388   .     A
C425   F444    1.361   .     S
C425   C427    1.390   .     A
C426   C432    1.403   .     A
C426   C428    1.415   .     A
C427   C434    1.403   .     A
C427   C429    1.418   .     A
C428   C430    1.428   .     A
C428   C1167   1.398   .     S
C429   C431    1.429   .     A
C429   C1166   1.398   1_554 S
C430   C435    1.421   .     A
C431   C433    1.424   .     A
C432   F445    1.358   .     S
C432   C1171   1.395   .     S
C433   S485    1.789   .     S
C433   C1170   1.395   1_554 S
C434   F446    1.359   .     S
C434   C1173   1.396   1_554 S
C435   S486    1.786   .     S
C435   C1172   1.396   .     S
C436   S487    1.786   .     S
C437   S488    1.787   .     S
C437   C440    1.411   .     A
C437   C275    1.381   1_655 S
C438   S489    1.788   .     S
C438   C440    1.422   .     A
C438   C272    1.383   1_655 S
C439   S490    1.785   .     S
H448   O477    0.991   .     S
H452   O461    0.991   .     S
H453   O464    0.990   .     S
H454   O467    0.991   .     S
H455   O471    0.991   .     S
H456   O474    0.991   .     S
N457   Zn491   2.008   .     S
N458   Zn492   2.008   .     S
O459   Zn491   2.012   .     S
O460   S485    1.504   .     D
O461   S485    1.683   .     S
O462   S486    1.503   .     D
O463   S486    1.504   .     D
O464   S486    1.682   .     S
O465   S487    1.502   .     D
O466   S487    1.503   .     D
O467   S487    1.680   .     S
O468   S488    1.503   .     D
O469   S488    1.503   .     D
O470   Zn492   2.012   .     S
O471   S488    1.683   .     S
O472   S489    1.503   .     D
O473   S489    1.500   .     D
O474   S489    1.683   .     S
O475   S490    1.503   .     D
O476   S490    1.502   .     D
O477   S490    1.678   .     S
O478   Zn491   2.006   .     S
O479   Zn492   2.006   .     S
O480   Zn491   2.002   .     S
O481   Zn492   2.002   .     S
O482   Zn491   2.009   .     S
O483   Zn492   2.009   .     S
O484   S485    1.504   .     D
C493   C494    1.434   .     S
C493   O561    1.289   .     A
C493   O541    1.280   .     A
C494   C521    1.417   .     A
C494   C518    1.410   .     A
C495   N540    1.366   .     A
C495   H529    1.081   .     S
C496   H531    1.081   .     S
C496   N539    1.366   .     A
C496   C5      1.414   1_565 S
C497   N540    1.366   .     A
C497   H532    1.081   .     S
C498   H533    1.081   .     S
C498   N539    1.366   .     A
C498   C3      1.414   1_565 S
C499   O565    1.283   .     A
C499   O562    1.280   .     A
C499   C505    1.420   .     S
C500   O564    1.283   .     A
C500   O563    1.282   .     A
C500   C503    1.425   .     S
C501   F523    1.356   .     S
C501   C512    1.402   .     A
C501   C503    1.388   .     A
C502   C513    1.400   .     A
C502   C505    1.387   .     A
C502   F524    1.356   .     S
C503   C506    1.383   .     A
C504   O560    1.291   .     A
C504   C522    1.439   .     S
C504   O552    1.281   .     A
C505   C507    1.383   .     A
C506   F525    1.357   .     S
C506   C508    1.388   .     A
C507   F526    1.361   .     S
C507   C509    1.390   .     A
C508   C514    1.403   .     A
C508   C510    1.415   .     A
C509   C516    1.403   .     A
C509   C511    1.418   .     A
C510   C512    1.428   .     A
C510   C1249   1.398   .     S
C511   C513    1.429   .     A
C511   C1248   1.398   1_554 S
C512   C517    1.421   .     A
C513   C515    1.424   .     A
C514   F527    1.358   .     S
C514   C1253   1.395   .     S
C515   S567    1.789   .     S
C515   C1252   1.395   1_554 S
C516   F528    1.359   .     S
C516   C1255   1.396   1_554 S
C517   S568    1.786   .     S
C517   C1254   1.396   .     S
C518   S569    1.786   .     S
C518   C684    1.383   1_455 S
C519   S570    1.787   .     S
C519   C522    1.411   .     A
C519   C603    1.381   .     S
C520   S571    1.788   .     S
C520   C522    1.422   .     A
C520   C600    1.383   .     S
C521   S572    1.785   .     S
C521   C683    1.381   1_455 S
H530   O559    0.991   .     S
H534   O543    0.991   .     S
H535   O546    0.990   .     S
H536   O549    0.991   .     S
H537   O553    0.991   .     S
H538   O556    0.991   .     S
N539   Zn573   2.008   .     S
N540   Zn574   2.008   .     S
O541   Zn573   2.012   .     S
O542   S567    1.504   .     D
O543   S567    1.683   .     S
O544   S568    1.503   .     D
O545   S568    1.504   .     D
O546   S568    1.682   .     S
O547   S569    1.502   .     D
O548   S569    1.503   .     D
O549   S569    1.680   .     S
O550   S570    1.503   .     D
O551   S570    1.503   .     D
O552   Zn574   2.012   .     S
O553   S570    1.683   .     S
O554   S571    1.503   .     D
O555   S571    1.500   .     D
O556   S571    1.683   .     S
O557   S572    1.503   .     D
O558   S572    1.502   .     D
O559   S572    1.678   .     S
O560   Zn573   2.006   .     S
O561   Zn574   2.006   .     S
O562   Zn573   2.002   .     S
O563   Zn574   2.002   .     S
O564   Zn573   2.009   .     S
O565   Zn574   2.009   .     S
O566   S567    1.504   .     D
C575   C576    1.434   .     S
C575   O643    1.289   .     A
C575   O623    1.280   .     A
C576   C603    1.417   .     A
C576   C600    1.410   .     A
C577   N622    1.366   .     A
C577   H611    1.081   .     S
C578   H613    1.081   .     S
C578   N621    1.366   .     A
C578   C87     1.414   1_565 S
C579   N622    1.366   .     A
C579   H614    1.081   .     S
C580   H615    1.081   .     S
C580   N621    1.366   .     A
C580   C85     1.414   1_565 S
C581   O647    1.283   .     A
C581   O644    1.280   .     A
C581   C587    1.420   .     S
C582   O646    1.283   .     A
C582   O645    1.282   .     A
C582   C585    1.425   .     S
C583   F605    1.356   .     S
C583   C594    1.402   .     A
C583   C585    1.388   .     A
C584   C595    1.400   .     A
C584   C587    1.387   .     A
C584   F606    1.356   .     S
C585   C588    1.383   .     A
C586   O642    1.291   .     A
C586   C604    1.439   .     S
C586   O634    1.281   .     A
C587   C589    1.383   .     A
C588   F607    1.357   .     S
C588   C590    1.388   .     A
C589   F608    1.361   .     S
C589   C591    1.390   .     A
C590   C596    1.403   .     A
C590   C592    1.415   .     A
C591   C598    1.403   .     A
C591   C593    1.418   .     A
C592   C594    1.428   .     A
C592   C1331   1.398   .     S
C593   C595    1.429   .     A
C593   C1330   1.398   1_554 S
C594   C599    1.421   .     A
C595   C597    1.424   .     A
C596   F609    1.358   .     S
C596   C1335   1.395   .     S
C597   S649    1.789   .     S
C597   C1334   1.395   1_554 S
C598   F610    1.359   .     S
C598   C1337   1.396   1_554 S
C599   S650    1.786   .     S
C599   C1336   1.396   .     S
C600   S651    1.786   .     S
C601   S652    1.787   .     S
C601   C604    1.411   .     A
C601   C685    1.381   .     S
C602   S653    1.788   .     S
C602   C604    1.422   .     A
C602   C682    1.383   .     S
C603   S654    1.785   .     S
H612   O641    0.991   .     S
H616   O625    0.991   .     S
H617   O628    0.990   .     S
H618   O631    0.991   .     S
H619   O635    0.991   .     S
H620   O638    0.991   .     S
N621   Zn655   2.008   .     S
N622   Zn656   2.008   .     S
O623   Zn655   2.012   .     S
O624   S649    1.504   .     D
O625   S649    1.683   .     S
O626   S650    1.503   .     D
O627   S650    1.504   .     D
O628   S650    1.682   .     S
O629   S651    1.502   .     D
O630   S651    1.503   .     D
O631   S651    1.680   .     S
O632   S652    1.503   .     D
O633   S652    1.503   .     D
O634   Zn656   2.012   .     S
O635   S652    1.683   .     S
O636   S653    1.503   .     D
O637   S653    1.500   .     D
O638   S653    1.683   .     S
O639   S654    1.503   .     D
O640   S654    1.502   .     D
O641   S654    1.678   .     S
O642   Zn655   2.006   .     S
O643   Zn656   2.006   .     S
O644   Zn655   2.002   .     S
O645   Zn656   2.002   .     S
O646   Zn655   2.009   .     S
O647   Zn656   2.009   .     S
O648   S649    1.504   .     D
C657   C658    1.434   .     S
C657   O725    1.289   .     A
C657   O705    1.280   .     A
C658   C685    1.417   .     A
C658   C682    1.410   .     A
C659   N704    1.366   .     A
C659   H693    1.081   .     S
C660   H695    1.081   .     S
C660   N703    1.366   .     A
C660   C169    1.414   1_565 S
C661   N704    1.366   .     A
C661   H696    1.081   .     S
C662   H697    1.081   .     S
C662   N703    1.366   .     A
C662   C167    1.414   1_565 S
C663   O729    1.283   .     A
C663   O726    1.280   .     A
C663   C669    1.420   .     S
C664   O728    1.283   .     A
C664   O727    1.282   .     A
C664   C667    1.425   .     S
C665   F687    1.356   .     S
C665   C676    1.402   .     A
C665   C667    1.388   .     A
C666   C677    1.400   .     A
C666   C669    1.387   .     A
C666   F688    1.356   .     S
C667   C670    1.383   .     A
C668   O724    1.291   .     A
C668   C686    1.439   .     S
C668   O716    1.281   .     A
C669   C671    1.383   .     A
C670   F689    1.357   .     S
C670   C672    1.388   .     A
C671   F690    1.361   .     S
C671   C673    1.390   .     A
C672   C678    1.403   .     A
C672   C674    1.415   .     A
C673   C680    1.403   .     A
C673   C675    1.418   .     A
C674   C676    1.428   .     A
C674   C1413   1.398   .     S
C675   C677    1.429   .     A
C675   C1412   1.398   1_554 S
C676   C681    1.421   .     A
C677   C679    1.424   .     A
C678   F691    1.358   .     S
C678   C1417   1.395   .     S
C679   S731    1.789   .     S
C679   C1416   1.395   1_554 S
C680   F692    1.359   .     S
C680   C1419   1.396   1_554 S
C681   S732    1.786   .     S
C681   C1418   1.396   .     S
C682   S733    1.786   .     S
C683   S734    1.787   .     S
C683   C686    1.411   .     A
C683   C521    1.381   1_655 S
C684   S735    1.788   .     S
C684   C686    1.422   .     A
C684   C518    1.383   1_655 S
C685   S736    1.785   .     S
H694   O723    0.991   .     S
H698   O707    0.991   .     S
H699   O710    0.990   .     S
H700   O713    0.991   .     S
H701   O717    0.991   .     S
H702   O720    0.991   .     S
N703   Zn737   2.008   .     S
N704   Zn738   2.008   .     S
O705   Zn737   2.012   .     S
O706   S731    1.504   .     D
O707   S731    1.683   .     S
O708   S732    1.503   .     D
O709   S732    1.504   .     D
O710   S732    1.682   .     S
O711   S733    1.502   .     D
O712   S733    1.503   .     D
O713   S733    1.680   .     S
O714   S734    1.503   .     D
O715   S734    1.503   .     D
O716   Zn738   2.012   .     S
O717   S734    1.683   .     S
O718   S735    1.503   .     D
O719   S735    1.500   .     D
O720   S735    1.683   .     S
O721   S736    1.503   .     D
O722   S736    1.502   .     D
O723   S736    1.678   .     S
O724   Zn737   2.006   .     S
O725   Zn738   2.006   .     S
O726   Zn737   2.002   .     S
O727   Zn738   2.002   .     S
O728   Zn737   2.009   .     S
O729   Zn738   2.009   .     S
O730   S731    1.504   .     D
C739   C740    1.434   .     S
C739   O807    1.289   .     A
C739   O787    1.280   .     A
C740   C767    1.417   .     A
C740   C764    1.410   .     A
C741   N786    1.366   .     A
C741   H775    1.081   .     S
C741   C1236   1.414   1_545 S
C742   H777    1.081   .     S
C742   N785    1.366   .     A
C742   C989    1.414   .     S
C743   N786    1.366   .     A
C743   H778    1.081   .     S
C743   C1234   1.414   1_545 S
C744   H779    1.081   .     S
C744   N785    1.366   .     A
C744   C987    1.414   .     S
C745   O811    1.283   .     A
C745   O808    1.280   .     A
C745   C751    1.420   .     S
C746   O810    1.283   .     A
C746   O809    1.282   .     A
C746   C749    1.425   .     S
C747   F769    1.356   .     S
C747   C758    1.402   .     A
C747   C749    1.388   .     A
C748   C759    1.400   .     A
C748   C751    1.387   .     A
C748   F770    1.356   .     S
C749   C752    1.383   .     A
C750   O806    1.291   .     A
C750   C768    1.439   .     S
C750   O798    1.281   .     A
C751   C753    1.383   .     A
C752   F771    1.357   .     S
C752   C754    1.388   .     A
C753   F772    1.361   .     S
C753   C755    1.390   .     A
C754   C760    1.403   .     A
C754   C756    1.415   .     A
C755   C762    1.403   .     A
C755   C757    1.418   .     A
C756   C758    1.428   .     A
C756   C19     1.398   1_556 S
C757   C759    1.429   .     A
C758   C763    1.421   .     A
C759   C761    1.424   .     A
C760   F773    1.358   .     S
C760   C23     1.395   1_556 S
C761   S813    1.789   .     S
C762   F774    1.359   .     S
C763   S814    1.786   .     S
C763   C24     1.396   1_556 S
C764   S815    1.786   .     S
C764   C930    1.383   1_455 S
C765   S816    1.787   .     S
C765   C768    1.411   .     A
C765   C849    1.381   .     S
C766   S817    1.788   .     S
C766   C768    1.422   .     A
C766   C846    1.383   .     S
C767   S818    1.785   .     S
C767   C929    1.381   1_455 S
H776   O805    0.991   .     S
H780   O789    0.991   .     S
H781   O792    0.990   .     S
H782   O795    0.991   .     S
H783   O799    0.991   .     S
H784   O802    0.991   .     S
N785   Zn819   2.008   .     S
N786   Zn820   2.008   .     S
O787   Zn819   2.012   .     S
O788   S813    1.504   .     D
O789   S813    1.683   .     S
O790   S814    1.503   .     D
O791   S814    1.504   .     D
O792   S814    1.682   .     S
O793   S815    1.502   .     D
O794   S815    1.503   .     D
O795   S815    1.680   .     S
O796   S816    1.503   .     D
O797   S816    1.503   .     D
O798   Zn820   2.012   .     S
O799   S816    1.683   .     S
O800   S817    1.503   .     D
O801   S817    1.500   .     D
O802   S817    1.683   .     S
O803   S818    1.503   .     D
O804   S818    1.502   .     D
O805   S818    1.678   .     S
O806   Zn819   2.006   .     S
O807   Zn820   2.006   .     S
O808   Zn819   2.002   .     S
O809   Zn820   2.002   .     S
O810   Zn819   2.009   .     S
O811   Zn820   2.009   .     S
O812   S813    1.504   .     D
C821   C822    1.434   .     S
C821   O889    1.289   .     A
C821   O869    1.280   .     A
C822   C849    1.417   .     A
C822   C846    1.410   .     A
C823   N868    1.366   .     A
C823   H857    1.081   .     S
C823   C1318   1.414   1_545 S
C824   H859    1.081   .     S
C824   N867    1.366   .     A
C824   C1071   1.414   .     S
C825   N868    1.366   .     A
C825   H860    1.081   .     S
C825   C1316   1.414   1_545 S
C826   H861    1.081   .     S
C826   N867    1.366   .     A
C826   C1069   1.414   .     S
C827   O893    1.283   .     A
C827   O890    1.280   .     A
C827   C833    1.420   .     S
C828   O892    1.283   .     A
C828   O891    1.282   .     A
C828   C831    1.425   .     S
C829   F851    1.356   .     S
C829   C840    1.402   .     A
C829   C831    1.388   .     A
C830   C841    1.400   .     A
C830   C833    1.387   .     A
C830   F852    1.356   .     S
C831   C834    1.383   .     A
C832   O888    1.291   .     A
C832   C850    1.439   .     S
C832   O880    1.281   .     A
C833   C835    1.383   .     A
C834   F853    1.357   .     S
C834   C836    1.388   .     A
C835   F854    1.361   .     S
C835   C837    1.390   .     A
C836   C842    1.403   .     A
C836   C838    1.415   .     A
C837   C844    1.403   .     A
C837   C839    1.418   .     A
C838   C840    1.428   .     A
C838   C101    1.398   1_556 S
C839   C841    1.429   .     A
C840   C845    1.421   .     A
C841   C843    1.424   .     A
C842   F855    1.358   .     S
C842   C105    1.395   1_556 S
C843   S895    1.789   .     S
C844   F856    1.359   .     S
C845   S896    1.786   .     S
C845   C106    1.396   1_556 S
C846   S897    1.786   .     S
C847   S898    1.787   .     S
C847   C850    1.411   .     A
C847   C931    1.381   .     S
C848   S899    1.788   .     S
C848   C850    1.422   .     A
C848   C928    1.383   .     S
C849   S900    1.785   .     S
H858   O887    0.991   .     S
H862   O871    0.991   .     S
H863   O874    0.990   .     S
H864   O877    0.991   .     S
H865   O881    0.991   .     S
H866   O884    0.991   .     S
N867   Zn901   2.008   .     S
N868   Zn902   2.008   .     S
O869   Zn901   2.012   .     S
O870   S895    1.504   .     D
O871   S895    1.683   .     S
O872   S896    1.503   .     D
O873   S896    1.504   .     D
O874   S896    1.682   .     S
O875   S897    1.502   .     D
O876   S897    1.503   .     D
O877   S897    1.680   .     S
O878   S898    1.503   .     D
O879   S898    1.503   .     D
O880   Zn902   2.012   .     S
O881   S898    1.683   .     S
O882   S899    1.503   .     D
O883   S899    1.500   .     D
O884   S899    1.683   .     S
O885   S900    1.503   .     D
O886   S900    1.502   .     D
O887   S900    1.678   .     S
O888   Zn901   2.006   .     S
O889   Zn902   2.006   .     S
O890   Zn901   2.002   .     S
O891   Zn902   2.002   .     S
O892   Zn901   2.009   .     S
O893   Zn902   2.009   .     S
O894   S895    1.504   .     D
C903   C904    1.434   .     S
C903   O971    1.289   .     A
C903   O951    1.280   .     A
C904   C931    1.417   .     A
C904   C928    1.410   .     A
C905   N950    1.366   .     A
C905   H939    1.081   .     S
C905   C1400   1.414   1_545 S
C906   H941    1.081   .     S
C906   N949    1.366   .     A
C906   C1153   1.414   .     S
C907   N950    1.366   .     A
C907   H942    1.081   .     S
C907   C1398   1.414   1_545 S
C908   H943    1.081   .     S
C908   N949    1.366   .     A
C908   C1151   1.414   .     S
C909   O975    1.283   .     A
C909   O972    1.280   .     A
C909   C915    1.420   .     S
C910   O974    1.283   .     A
C910   O973    1.282   .     A
C910   C913    1.425   .     S
C911   F933    1.356   .     S
C911   C922    1.402   .     A
C911   C913    1.388   .     A
C912   C923    1.400   .     A
C912   C915    1.387   .     A
C912   F934    1.356   .     S
C913   C916    1.383   .     A
C914   O970    1.291   .     A
C914   C932    1.439   .     S
C914   O962    1.281   .     A
C915   C917    1.383   .     A
C916   F935    1.357   .     S
C916   C918    1.388   .     A
C917   F936    1.361   .     S
C917   C919    1.390   .     A
C918   C924    1.403   .     A
C918   C920    1.415   .     A
C919   C926    1.403   .     A
C919   C921    1.418   .     A
C920   C922    1.428   .     A
C920   C183    1.398   1_556 S
C921   C923    1.429   .     A
C922   C927    1.421   .     A
C923   C925    1.424   .     A
C924   F937    1.358   .     S
C924   C187    1.395   1_556 S
C925   S977    1.789   .     S
C926   F938    1.359   .     S
C927   S978    1.786   .     S
C927   C188    1.396   1_556 S
C928   S979    1.786   .     S
C929   S980    1.787   .     S
C929   C932    1.411   .     A
C929   C767    1.381   1_655 S
C930   S981    1.788   .     S
C930   C932    1.422   .     A
C930   C764    1.383   1_655 S
C931   S982    1.785   .     S
H940   O969    0.991   .     S
H944   O953    0.991   .     S
H945   O956    0.990   .     S
H946   O959    0.991   .     S
H947   O963    0.991   .     S
H948   O966    0.991   .     S
N949   Zn983   2.008   .     S
N950   Zn984   2.008   .     S
O951   Zn983   2.012   .     S
O952   S977    1.504   .     D
O953   S977    1.683   .     S
O954   S978    1.503   .     D
O955   S978    1.504   .     D
O956   S978    1.682   .     S
O957   S979    1.502   .     D
O958   S979    1.503   .     D
O959   S979    1.680   .     S
O960   S980    1.503   .     D
O961   S980    1.503   .     D
O962   Zn984   2.012   .     S
O963   S980    1.683   .     S
O964   S981    1.503   .     D
O965   S981    1.500   .     D
O966   S981    1.683   .     S
O967   S982    1.503   .     D
O968   S982    1.502   .     D
O969   S982    1.678   .     S
O970   Zn983   2.006   .     S
O971   Zn984   2.006   .     S
O972   Zn983   2.002   .     S
O973   Zn984   2.002   .     S
O974   Zn983   2.009   .     S
O975   Zn984   2.009   .     S
O976   S977    1.504   .     D
C985   C986    1.434   .     S
C985   O1053   1.289   .     A
C985   O1033   1.280   .     A
C986   C1013   1.417   .     A
C986   C1010   1.410   .     A
C987   N1032   1.366   .     A
C987   H1021   1.081   .     S
C988   H1023   1.081   .     S
C988   N1031   1.366   .     A
C988   C1235   1.414   .     S
C989   N1032   1.366   .     A
C989   H1024   1.081   .     S
C990   H1025   1.081   .     S
C990   N1031   1.366   .     A
C990   C1233   1.414   .     S
C991   O1057   1.283   .     A
C991   O1054   1.280   .     A
C991   C997    1.420   .     S
C992   O1056   1.283   .     A
C992   O1055   1.282   .     A
C992   C995    1.425   .     S
C993   F1015   1.356   .     S
C993   C1004   1.402   .     A
C993   C995    1.388   .     A
C994   C1005   1.400   .     A
C994   C997    1.387   .     A
C994   F1016   1.356   .     S
C995   C998    1.383   .     A
C996   O1052   1.291   .     A
C996   C1014   1.439   .     S
C996   O1044   1.281   .     A
C997   C999    1.383   .     A
C998   F1017   1.357   .     S
C998   C1000   1.388   .     A
C999   F1018   1.361   .     S
C999   C1001   1.390   .     A
C1000  C1006   1.403   .     A
C1000  C1002   1.415   .     A
C1001  C1008   1.403   .     A
C1001  C1003   1.418   .     A
C1002  C1004   1.428   .     A
C1002  C265    1.398   1_556 S
C1003  C1005   1.429   .     A
C1004  C1009   1.421   .     A
C1005  C1007   1.424   .     A
C1006  F1019   1.358   .     S
C1006  C269    1.395   1_556 S
C1007  S1059   1.789   .     S
C1008  F1020   1.359   .     S
C1009  S1060   1.786   .     S
C1009  C270    1.396   1_556 S
C1010  S1061   1.786   .     S
C1010  C1176   1.383   1_455 S
C1011  S1062   1.787   .     S
C1011  C1014   1.411   .     A
C1011  C1095   1.381   .     S
C1012  S1063   1.788   .     S
C1012  C1014   1.422   .     A
C1012  C1092   1.383   .     S
C1013  S1064   1.785   .     S
C1013  C1175   1.381   1_455 S
H1022  O1051   0.991   .     S
H1026  O1035   0.991   .     S
H1027  O1038   0.990   .     S
H1028  O1041   0.991   .     S
H1029  O1045   0.991   .     S
H1030  O1048   0.991   .     S
N1031  Zn1065  2.008   .     S
N1032  Zn1066  2.008   .     S
O1033  Zn1065  2.012   .     S
O1034  S1059   1.504   .     D
O1035  S1059   1.683   .     S
O1036  S1060   1.503   .     D
O1037  S1060   1.504   .     D
O1038  S1060   1.682   .     S
O1039  S1061   1.502   .     D
O1040  S1061   1.503   .     D
O1041  S1061   1.680   .     S
O1042  S1062   1.503   .     D
O1043  S1062   1.503   .     D
O1044  Zn1066  2.012   .     S
O1045  S1062   1.683   .     S
O1046  S1063   1.503   .     D
O1047  S1063   1.500   .     D
O1048  S1063   1.683   .     S
O1049  S1064   1.503   .     D
O1050  S1064   1.502   .     D
O1051  S1064   1.678   .     S
O1052  Zn1065  2.006   .     S
O1053  Zn1066  2.006   .     S
O1054  Zn1065  2.002   .     S
O1055  Zn1066  2.002   .     S
O1056  Zn1065  2.009   .     S
O1057  Zn1066  2.009   .     S
O1058  S1059   1.504   .     D
C1067  C1068   1.434   .     S
C1067  O1135   1.289   .     A
C1067  O1115   1.280   .     A
C1068  C1095   1.417   .     A
C1068  C1092   1.410   .     A
C1069  N1114   1.366   .     A
C1069  H1103   1.081   .     S
C1070  H1105   1.081   .     S
C1070  N1113   1.366   .     A
C1070  C1317   1.414   .     S
C1071  N1114   1.366   .     A
C1071  H1106   1.081   .     S
C1072  H1107   1.081   .     S
C1072  N1113   1.366   .     A
C1072  C1315   1.414   .     S
C1073  O1139   1.283   .     A
C1073  O1136   1.280   .     A
C1073  C1079   1.420   .     S
C1074  O1138   1.283   .     A
C1074  O1137   1.282   .     A
C1074  C1077   1.425   .     S
C1075  F1097   1.356   .     S
C1075  C1086   1.402   .     A
C1075  C1077   1.388   .     A
C1076  C1087   1.400   .     A
C1076  C1079   1.387   .     A
C1076  F1098   1.356   .     S
C1077  C1080   1.383   .     A
C1078  O1134   1.291   .     A
C1078  C1096   1.439   .     S
C1078  O1126   1.281   .     A
C1079  C1081   1.383   .     A
C1080  F1099   1.357   .     S
C1080  C1082   1.388   .     A
C1081  F1100   1.361   .     S
C1081  C1083   1.390   .     A
C1082  C1088   1.403   .     A
C1082  C1084   1.415   .     A
C1083  C1090   1.403   .     A
C1083  C1085   1.418   .     A
C1084  C1086   1.428   .     A
C1084  C347    1.398   1_556 S
C1085  C1087   1.429   .     A
C1086  C1091   1.421   .     A
C1087  C1089   1.424   .     A
C1088  F1101   1.358   .     S
C1088  C351    1.395   1_556 S
C1089  S1141   1.789   .     S
C1090  F1102   1.359   .     S
C1091  S1142   1.786   .     S
C1091  C352    1.396   1_556 S
C1092  S1143   1.786   .     S
C1093  S1144   1.787   .     S
C1093  C1096   1.411   .     A
C1093  C1177   1.381   .     S
C1094  S1145   1.788   .     S
C1094  C1096   1.422   .     A
C1094  C1174   1.383   .     S
C1095  S1146   1.785   .     S
H1104  O1133   0.991   .     S
H1108  O1117   0.991   .     S
H1109  O1120   0.990   .     S
H1110  O1123   0.991   .     S
H1111  O1127   0.991   .     S
H1112  O1130   0.991   .     S
N1113  Zn1147  2.008   .     S
N1114  Zn1148  2.008   .     S
O1115  Zn1147  2.012   .     S
O1116  S1141   1.504   .     D
O1117  S1141   1.683   .     S
O1118  S1142   1.503   .     D
O1119  S1142   1.504   .     D
O1120  S1142   1.682   .     S
O1121  S1143   1.502   .     D
O1122  S1143   1.503   .     D
O1123  S1143   1.680   .     S
O1124  S1144   1.503   .     D
O1125  S1144   1.503   .     D
O1126  Zn1148  2.012   .     S
O1127  S1144   1.683   .     S
O1128  S1145   1.503   .     D
O1129  S1145   1.500   .     D
O1130  S1145   1.683   .     S
O1131  S1146   1.503   .     D
O1132  S1146   1.502   .     D
O1133  S1146   1.678   .     S
O1134  Zn1147  2.006   .     S
O1135  Zn1148  2.006   .     S
O1136  Zn1147  2.002   .     S
O1137  Zn1148  2.002   .     S
O1138  Zn1147  2.009   .     S
O1139  Zn1148  2.009   .     S
O1140  S1141   1.504   .     D
C1149  C1150   1.434   .     S
C1149  O1217   1.289   .     A
C1149  O1197   1.280   .     A
C1150  C1177   1.417   .     A
C1150  C1174   1.410   .     A
C1151  N1196   1.366   .     A
C1151  H1185   1.081   .     S
C1152  H1187   1.081   .     S
C1152  N1195   1.366   .     A
C1152  C1399   1.414   .     S
C1153  N1196   1.366   .     A
C1153  H1188   1.081   .     S
C1154  H1189   1.081   .     S
C1154  N1195   1.366   .     A
C1154  C1397   1.414   .     S
C1155  O1221   1.283   .     A
C1155  O1218   1.280   .     A
C1155  C1161   1.420   .     S
C1156  O1220   1.283   .     A
C1156  O1219   1.282   .     A
C1156  C1159   1.425   .     S
C1157  F1179   1.356   .     S
C1157  C1168   1.402   .     A
C1157  C1159   1.388   .     A
C1158  C1169   1.400   .     A
C1158  C1161   1.387   .     A
C1158  F1180   1.356   .     S
C1159  C1162   1.383   .     A
C1160  O1216   1.291   .     A
C1160  C1178   1.439   .     S
C1160  O1208   1.281   .     A
C1161  C1163   1.383   .     A
C1162  F1181   1.357   .     S
C1162  C1164   1.388   .     A
C1163  F1182   1.361   .     S
C1163  C1165   1.390   .     A
C1164  C1170   1.403   .     A
C1164  C1166   1.415   .     A
C1165  C1172   1.403   .     A
C1165  C1167   1.418   .     A
C1166  C1168   1.428   .     A
C1166  C429    1.398   1_556 S
C1167  C1169   1.429   .     A
C1168  C1173   1.421   .     A
C1169  C1171   1.424   .     A
C1170  F1183   1.358   .     S
C1170  C433    1.395   1_556 S
C1171  S1223   1.789   .     S
C1172  F1184   1.359   .     S
C1173  S1224   1.786   .     S
C1173  C434    1.396   1_556 S
C1174  S1225   1.786   .     S
C1175  S1226   1.787   .     S
C1175  C1178   1.411   .     A
C1175  C1013   1.381   1_655 S
C1176  S1227   1.788   .     S
C1176  C1178   1.422   .     A
C1176  C1010   1.383   1_655 S
C1177  S1228   1.785   .     S
H1186  O1215   0.991   .     S
H1190  O1199   0.991   .     S
H1191  O1202   0.990   .     S
H1192  O1205   0.991   .     S
H1193  O1209   0.991   .     S
H1194  O1212   0.991   .     S
N1195  Zn1229  2.008   .     S
N1196  Zn1230  2.008   .     S
O1197  Zn1229  2.012   .     S
O1198  S1223   1.504   .     D
O1199  S1223   1.683   .     S
O1200  S1224   1.503   .     D
O1201  S1224   1.504   .     D
O1202  S1224   1.682   .     S
O1203  S1225   1.502   .     D
O1204  S1225   1.503   .     D
O1205  S1225   1.680   .     S
O1206  S1226   1.503   .     D
O1207  S1226   1.503   .     D
O1208  Zn1230  2.012   .     S
O1209  S1226   1.683   .     S
O1210  S1227   1.503   .     D
O1211  S1227   1.500   .     D
O1212  S1227   1.683   .     S
O1213  S1228   1.503   .     D
O1214  S1228   1.502   .     D
O1215  S1228   1.678   .     S
O1216  Zn1229  2.006   .     S
O1217  Zn1230  2.006   .     S
O1218  Zn1229  2.002   .     S
O1219  Zn1230  2.002   .     S
O1220  Zn1229  2.009   .     S
O1221  Zn1230  2.009   .     S
O1222  S1223   1.504   .     D
C1231  C1232   1.434   .     S
C1231  O1299   1.289   .     A
C1231  O1279   1.280   .     A
C1232  C1259   1.417   .     A
C1232  C1256   1.410   .     A
C1233  N1278   1.366   .     A
C1233  H1267   1.081   .     S
C1234  H1269   1.081   .     S
C1234  N1277   1.366   .     A
C1234  C743    1.414   1_565 S
C1235  N1278   1.366   .     A
C1235  H1270   1.081   .     S
C1236  H1271   1.081   .     S
C1236  N1277   1.366   .     A
C1236  C741    1.414   1_565 S
C1237  O1303   1.283   .     A
C1237  O1300   1.280   .     A
C1237  C1243   1.420   .     S
C1238  O1302   1.283   .     A
C1238  O1301   1.282   .     A
C1238  C1241   1.425   .     S
C1239  F1261   1.356   .     S
C1239  C1250   1.402   .     A
C1239  C1241   1.388   .     A
C1240  C1251   1.400   .     A
C1240  C1243   1.387   .     A
C1240  F1262   1.356   .     S
C1241  C1244   1.383   .     A
C1242  O1298   1.291   .     A
C1242  C1260   1.439   .     S
C1242  O1290   1.281   .     A
C1243  C1245   1.383   .     A
C1244  F1263   1.357   .     S
C1244  C1246   1.388   .     A
C1245  F1264   1.361   .     S
C1245  C1247   1.390   .     A
C1246  C1252   1.403   .     A
C1246  C1248   1.415   .     A
C1247  C1254   1.403   .     A
C1247  C1249   1.418   .     A
C1248  C1250   1.428   .     A
C1248  C511    1.398   1_556 S
C1249  C1251   1.429   .     A
C1250  C1255   1.421   .     A
C1251  C1253   1.424   .     A
C1252  F1265   1.358   .     S
C1252  C515    1.395   1_556 S
C1253  S1305   1.789   .     S
C1254  F1266   1.359   .     S
C1255  S1306   1.786   .     S
C1255  C516    1.396   1_556 S
C1256  S1307   1.786   .     S
C1256  C1422   1.383   1_455 S
C1257  S1308   1.787   .     S
C1257  C1260   1.411   .     A
C1257  C1341   1.381   .     S
C1258  S1309   1.788   .     S
C1258  C1260   1.422   .     A
C1258  C1338   1.383   .     S
C1259  S1310   1.785   .     S
C1259  C1421   1.381   1_455 S
H1268  O1297   0.991   .     S
H1272  O1281   0.991   .     S
H1273  O1284   0.990   .     S
H1274  O1287   0.991   .     S
H1275  O1291   0.991   .     S
H1276  O1294   0.991   .     S
N1277  Zn1311  2.008   .     S
N1278  Zn1312  2.008   .     S
O1279  Zn1311  2.012   .     S
O1280  S1305   1.504   .     D
O1281  S1305   1.683   .     S
O1282  S1306   1.503   .     D
O1283  S1306   1.504   .     D
O1284  S1306   1.682   .     S
O1285  S1307   1.502   .     D
O1286  S1307   1.503   .     D
O1287  S1307   1.680   .     S
O1288  S1308   1.503   .     D
O1289  S1308   1.503   .     D
O1290  Zn1312  2.012   .     S
O1291  S1308   1.683   .     S
O1292  S1309   1.503   .     D
O1293  S1309   1.500   .     D
O1294  S1309   1.683   .     S
O1295  S1310   1.503   .     D
O1296  S1310   1.502   .     D
O1297  S1310   1.678   .     S
O1298  Zn1311  2.006   .     S
O1299  Zn1312  2.006   .     S
O1300  Zn1311  2.002   .     S
O1301  Zn1312  2.002   .     S
O1302  Zn1311  2.009   .     S
O1303  Zn1312  2.009   .     S
O1304  S1305   1.504   .     D
C1313  C1314   1.434   .     S
C1313  O1381   1.289   .     A
C1313  O1361   1.280   .     A
C1314  C1341   1.417   .     A
C1314  C1338   1.410   .     A
C1315  N1360   1.366   .     A
C1315  H1349   1.081   .     S
C1316  H1351   1.081   .     S
C1316  N1359   1.366   .     A
C1316  C825    1.414   1_565 S
C1317  N1360   1.366   .     A
C1317  H1352   1.081   .     S
C1318  H1353   1.081   .     S
C1318  N1359   1.366   .     A
C1318  C823    1.414   1_565 S
C1319  O1385   1.283   .     A
C1319  O1382   1.280   .     A
C1319  C1325   1.420   .     S
C1320  O1384   1.283   .     A
C1320  O1383   1.282   .     A
C1320  C1323   1.425   .     S
C1321  F1343   1.356   .     S
C1321  C1332   1.402   .     A
C1321  C1323   1.388   .     A
C1322  C1333   1.400   .     A
C1322  C1325   1.387   .     A
C1322  F1344   1.356   .     S
C1323  C1326   1.383   .     A
C1324  O1380   1.291   .     A
C1324  C1342   1.439   .     S
C1324  O1372   1.281   .     A
C1325  C1327   1.383   .     A
C1326  F1345   1.357   .     S
C1326  C1328   1.388   .     A
C1327  F1346   1.361   .     S
C1327  C1329   1.390   .     A
C1328  C1334   1.403   .     A
C1328  C1330   1.415   .     A
C1329  C1336   1.403   .     A
C1329  C1331   1.418   .     A
C1330  C1332   1.428   .     A
C1330  C593    1.398   1_556 S
C1331  C1333   1.429   .     A
C1332  C1337   1.421   .     A
C1333  C1335   1.424   .     A
C1334  F1347   1.358   .     S
C1334  C597    1.395   1_556 S
C1335  S1387   1.789   .     S
C1336  F1348   1.359   .     S
C1337  S1388   1.786   .     S
C1337  C598    1.396   1_556 S
C1338  S1389   1.786   .     S
C1339  S1390   1.787   .     S
C1339  C1342   1.411   .     A
C1339  C1423   1.381   .     S
C1340  S1391   1.788   .     S
C1340  C1342   1.422   .     A
C1340  C1420   1.383   .     S
C1341  S1392   1.785   .     S
H1350  O1379   0.991   .     S
H1354  O1363   0.991   .     S
H1355  O1366   0.990   .     S
H1356  O1369   0.991   .     S
H1357  O1373   0.991   .     S
H1358  O1376   0.991   .     S
N1359  Zn1393  2.008   .     S
N1360  Zn1394  2.008   .     S
O1361  Zn1393  2.012   .     S
O1362  S1387   1.504   .     D
O1363  S1387   1.683   .     S
O1364  S1388   1.503   .     D
O1365  S1388   1.504   .     D
O1366  S1388   1.682   .     S
O1367  S1389   1.502   .     D
O1368  S1389   1.503   .     D
O1369  S1389   1.680   .     S
O1370  S1390   1.503   .     D
O1371  S1390   1.503   .     D
O1372  Zn1394  2.012   .     S
O1373  S1390   1.683   .     S
O1374  S1391   1.503   .     D
O1375  S1391   1.500   .     D
O1376  S1391   1.683   .     S
O1377  S1392   1.503   .     D
O1378  S1392   1.502   .     D
O1379  S1392   1.678   .     S
O1380  Zn1393  2.006   .     S
O1381  Zn1394  2.006   .     S
O1382  Zn1393  2.002   .     S
O1383  Zn1394  2.002   .     S
O1384  Zn1393  2.009   .     S
O1385  Zn1394  2.009   .     S
O1386  S1387   1.504   .     D
C1395  C1396   1.434   .     S
C1395  O1463   1.289   .     A
C1395  O1443   1.280   .     A
C1396  C1423   1.417   .     A
C1396  C1420   1.410   .     A
C1397  N1442   1.366   .     A
C1397  H1431   1.081   .     S
C1398  H1433   1.081   .     S
C1398  N1441   1.366   .     A
C1398  C907    1.414   1_565 S
C1399  N1442   1.366   .     A
C1399  H1434   1.081   .     S
C1400  H1435   1.081   .     S
C1400  N1441   1.366   .     A
C1400  C905    1.414   1_565 S
C1401  O1467   1.283   .     A
C1401  O1464   1.280   .     A
C1401  C1407   1.420   .     S
C1402  O1466   1.283   .     A
C1402  O1465   1.282   .     A
C1402  C1405   1.425   .     S
C1403  F1425   1.356   .     S
C1403  C1414   1.402   .     A
C1403  C1405   1.388   .     A
C1404  C1415   1.400   .     A
C1404  C1407   1.387   .     A
C1404  F1426   1.356   .     S
C1405  C1408   1.383   .     A
C1406  O1462   1.291   .     A
C1406  C1424   1.439   .     S
C1406  O1454   1.281   .     A
C1407  C1409   1.383   .     A
C1408  F1427   1.357   .     S
C1408  C1410   1.388   .     A
C1409  F1428   1.361   .     S
C1409  C1411   1.390   .     A
C1410  C1416   1.403   .     A
C1410  C1412   1.415   .     A
C1411  C1418   1.403   .     A
C1411  C1413   1.418   .     A
C1412  C1414   1.428   .     A
C1412  C675    1.398   1_556 S
C1413  C1415   1.429   .     A
C1414  C1419   1.421   .     A
C1415  C1417   1.424   .     A
C1416  F1429   1.358   .     S
C1416  C679    1.395   1_556 S
C1417  S1469   1.789   .     S
C1418  F1430   1.359   .     S
C1419  S1470   1.786   .     S
C1419  C680    1.396   1_556 S
C1420  S1471   1.786   .     S
C1421  S1472   1.787   .     S
C1421  C1424   1.411   .     A
C1421  C1259   1.381   1_655 S
C1422  S1473   1.788   .     S
C1422  C1424   1.422   .     A
C1422  C1256   1.383   1_655 S
C1423  S1474   1.785   .     S
H1432  O1461   0.991   .     S
H1436  O1445   0.991   .     S
H1437  O1448   0.990   .     S
H1438  O1451   0.991   .     S
H1439  O1455   0.991   .     S
H1440  O1458   0.991   .     S
N1441  Zn1475  2.008   .     S
N1442  Zn1476  2.008   .     S
O1443  Zn1475  2.012   .     S
O1444  S1469   1.504   .     D
O1445  S1469   1.683   .     S
O1446  S1470   1.503   .     D
O1447  S1470   1.504   .     D
O1448  S1470   1.682   .     S
O1449  S1471   1.502   .     D
O1450  S1471   1.503   .     D
O1451  S1471   1.680   .     S
O1452  S1472   1.503   .     D
O1453  S1472   1.503   .     D
O1454  Zn1476  2.012   .     S
O1455  S1472   1.683   .     S
O1456  S1473   1.503   .     D
O1457  S1473   1.500   .     D
O1458  S1473   1.683   .     S
O1459  S1474   1.503   .     D
O1460  S1474   1.502   .     D
O1461  S1474   1.678   .     S
O1462  Zn1475  2.006   .     S
O1463  Zn1476  2.006   .     S
O1464  Zn1475  2.002   .     S
O1465  Zn1476  2.002   .     S
O1466  Zn1475  2.009   .     S
O1467  Zn1476  2.009   .     S
O1468  S1469   1.504   .     D
