data_str_m3_o10_o18_pcu_sym.55
_audit_creation_date              2020-01-03
_audit_creation_method            'Materials Studio'
_symmetry_space_group_name_H-M    'P1'
_symmetry_Int_Tables_number       1
_symmetry_cell_setting            triclinic
loop_
_symmetry_equiv_pos_as_xyz
  x,y,z
_cell_length_a                    23.6853
_cell_length_b                    25.4719
_cell_length_c                    27.5162
_cell_angle_alpha                 94.2049
_cell_angle_beta                  93.1931
_cell_angle_gamma                 93.8926
loop_
_atom_site_label
_atom_site_type_symbol
_atom_site_fract_x
_atom_site_fract_y
_atom_site_fract_z
_atom_site_U_iso_or_equiv
_atom_site_adp_type
_atom_site_occupancy
C1     C     0.01605   0.26507   0.25490   0.00000  Uiso   1.00
C2     C     0.31223   0.16227   0.15904   0.00000  Uiso   1.00
C3     C     0.03083   0.17298   0.39364   0.00000  Uiso   1.00
C4     C     0.30044   0.15226   0.10682   0.00000  Uiso   1.00
C5     C     0.01276   0.20931   0.47415   0.00000  Uiso   1.00
C6     C     0.30790   0.09737   0.03258   0.00000  Uiso   1.00
C7     C     0.32937   0.19993   0.42482   0.00000  Uiso   1.00
C8     C     0.32958   0.11577   0.07928   0.00000  Uiso   1.00
C9     C     0.07921   0.15166   0.41217   0.00000  Uiso   1.00
C10    C     0.25187   0.17201   0.08708   0.00000  Uiso   1.00
C11    C     0.09707   0.16054   0.46138   0.00000  Uiso   1.00
C12    C     0.31989   0.06931   0.25746   0.00000  Uiso   1.00
C13    C     0.22585   0.14979   0.04297   0.00000  Uiso   1.00
C14    C     0.06413   0.19164   0.49218   0.00000  Uiso   1.00
C15    C     0.25557   0.11322   0.01466   0.00000  Uiso   1.00
C16    C     0.14900   0.14282   0.47962   0.00000  Uiso   1.00
C17    C     0.17083   0.16229   0.02693   0.00000  Uiso   1.00
C18    C     0.08809   0.00873   0.27453   0.00000  Uiso   1.00
C19    C     0.26477   0.00073   0.30011   0.00000  Uiso   1.00
C20    C     0.16191   0.12652   0.19321   0.00000  Uiso   1.00
C21    C     0.17247   0.20297   0.30870   0.00000  Uiso   1.00
C22    C     0.13623   0.19218   0.05721   0.00000  Uiso   1.00
C23    C     0.17979   0.10644   0.45212   0.00000  Uiso   1.00
C24    C     0.08354   0.20592   0.04016   0.00000  Uiso   1.00
C25    C     0.23207   0.09192   0.46954   0.00000  Uiso   1.00
C26    C     0.02755   0.32036   0.26892   0.00000  Uiso   1.00
C27    C     0.31640   0.01734   0.27489   0.00000  Uiso   1.00
C28    C     0.02096   0.17033   0.34099   0.00000  Uiso   1.00
H29    H     0.03423   0.10015   0.09445   0.00000  Uiso   1.00
H30    H     0.16368   0.08668   0.41768   0.00000  Uiso   1.00
H31    H     0.10076   0.04099   0.30182   0.00000  Uiso   1.00
H32    H     0.22529   0.01872   0.29282   0.00000  Uiso   1.00
H33    H     0.15174   0.14314   0.15894   0.00000  Uiso   1.00
H34    H     0.18622   0.18495   0.34144   0.00000  Uiso   1.00
H35    H     0.29114   0.21605   0.41073   0.00000  Uiso   1.00
H36    H     0.05847   0.22899   0.06438   0.00000  Uiso   1.00
H37    H     0.25401   0.06355   0.44769   0.00000  Uiso   1.00
H38    H     0.23390   0.20319   0.10839   0.00000  Uiso   1.00
H39    H     0.10448   0.13138   0.38654   0.00000  Uiso   1.00
H40    H     0.32009   0.23206   0.49776   0.00000  Uiso   1.00
H41    H     0.33067   0.06911   0.01140   0.00000  Uiso   1.00
H42    H     0.14785   0.20467   0.09486   0.00000  Uiso   1.00
N43    N     0.14695   0.15216   0.23739   0.00000  Uiso   1.00
N44    N     0.18638   0.18117   0.26260   0.00000  Uiso   1.00
O45    O     0.29719   0.24631   0.25309   0.00000  Uiso   1.00
O46    O     0.26700   0.30268   0.33155   0.00000  Uiso   1.00
O47    O     0.18238   0.08386   0.19301   0.00000  Uiso   1.00
O48    O     0.14866   0.24388   0.31230   0.00000  Uiso   1.00
O49    O     0.03614   0.08702   0.24690   0.00000  Uiso   1.00
O50    O     0.05822   0.23702   0.24501   0.00000  Uiso   1.00
O51    O     0.27512   0.09632   0.25498   0.00000  Uiso   1.00
O52    O     0.30328   0.17397   0.32247   0.00000  Uiso   1.00
O53    O     0.03005   0.15937   0.17753   0.00000  Uiso   1.00
O54    O     0.06431   0.16467   0.31439   0.00000  Uiso   1.00
O55    O     0.26902   0.16866   0.18561   0.00000  Uiso   1.00
O56    O     0.12352   0.32528   0.24800   0.00000  Uiso   1.00
Zn57   Zn    0.27033   0.17287   0.25539   0.00000  Uiso   1.00
Zn58   Zn    0.06300   0.16046   0.24460   0.00000  Uiso   1.00
C59    C     0.34939   0.26507   0.25490   0.00000  Uiso   1.00
C60    C     0.64556   0.16227   0.15904   0.00000  Uiso   1.00
C61    C     0.36417   0.17298   0.39364   0.00000  Uiso   1.00
C62    C     0.63377   0.15226   0.10682   0.00000  Uiso   1.00
C63    C     0.34609   0.20931   0.47415   0.00000  Uiso   1.00
C64    C     0.64123   0.09737   0.03258   0.00000  Uiso   1.00
C65    C     0.66270   0.19993   0.42482   0.00000  Uiso   1.00
C66    C     0.66291   0.11577   0.07928   0.00000  Uiso   1.00
C67    C     0.41254   0.15166   0.41217   0.00000  Uiso   1.00
C68    C     0.58521   0.17201   0.08708   0.00000  Uiso   1.00
C69    C     0.43040   0.16054   0.46138   0.00000  Uiso   1.00
C70    C     0.65322   0.06931   0.25746   0.00000  Uiso   1.00
C71    C     0.55919   0.14979   0.04297   0.00000  Uiso   1.00
C72    C     0.39746   0.19164   0.49218   0.00000  Uiso   1.00
C73    C     0.58890   0.11322   0.01466   0.00000  Uiso   1.00
C74    C     0.48233   0.14282   0.47962   0.00000  Uiso   1.00
C75    C     0.50417   0.16229   0.02693   0.00000  Uiso   1.00
C76    C     0.42142   0.00873   0.27453   0.00000  Uiso   1.00
C77    C     0.59810   0.00073   0.30011   0.00000  Uiso   1.00
C78    C     0.49524   0.12652   0.19321   0.00000  Uiso   1.00
C79    C     0.50580   0.20297   0.30870   0.00000  Uiso   1.00
C80    C     0.46956   0.19218   0.05721   0.00000  Uiso   1.00
C81    C     0.51312   0.10644   0.45212   0.00000  Uiso   1.00
C82    C     0.41687   0.20592   0.04016   0.00000  Uiso   1.00
C83    C     0.56541   0.09192   0.46954   0.00000  Uiso   1.00
C84    C     0.36088   0.32036   0.26892   0.00000  Uiso   1.00
C85    C     0.64973   0.01734   0.27489   0.00000  Uiso   1.00
C86    C     0.35429   0.17033   0.34099   0.00000  Uiso   1.00
H87    H     0.36756   0.10015   0.09445   0.00000  Uiso   1.00
H88    H     0.49701   0.08668   0.41768   0.00000  Uiso   1.00
H89    H     0.43409   0.04099   0.30182   0.00000  Uiso   1.00
H90    H     0.55863   0.01872   0.29282   0.00000  Uiso   1.00
H91    H     0.48507   0.14314   0.15894   0.00000  Uiso   1.00
H92    H     0.51956   0.18495   0.34144   0.00000  Uiso   1.00
H93    H     0.62448   0.21605   0.41073   0.00000  Uiso   1.00
H94    H     0.39181   0.22899   0.06438   0.00000  Uiso   1.00
H95    H     0.58735   0.06355   0.44769   0.00000  Uiso   1.00
H96    H     0.56723   0.20319   0.10839   0.00000  Uiso   1.00
H97    H     0.43781   0.13138   0.38654   0.00000  Uiso   1.00
H98    H     0.65343   0.23206   0.49776   0.00000  Uiso   1.00
H99    H     0.66400   0.06911   0.01140   0.00000  Uiso   1.00
H100   H     0.48119   0.20467   0.09486   0.00000  Uiso   1.00
N101   N     0.48029   0.15216   0.23739   0.00000  Uiso   1.00
N102   N     0.51971   0.18117   0.26260   0.00000  Uiso   1.00
O103   O     0.63052   0.24631   0.25309   0.00000  Uiso   1.00
O104   O     0.60034   0.30268   0.33155   0.00000  Uiso   1.00
O105   O     0.51571   0.08386   0.19301   0.00000  Uiso   1.00
O106   O     0.48200   0.24388   0.31230   0.00000  Uiso   1.00
O107   O     0.36948   0.08702   0.24690   0.00000  Uiso   1.00
O108   O     0.39155   0.23702   0.24501   0.00000  Uiso   1.00
O109   O     0.60845   0.09632   0.25498   0.00000  Uiso   1.00
O110   O     0.63662   0.17397   0.32247   0.00000  Uiso   1.00
O111   O     0.36338   0.15937   0.17753   0.00000  Uiso   1.00
O112   O     0.39764   0.16467   0.31439   0.00000  Uiso   1.00
O113   O     0.60236   0.16866   0.18561   0.00000  Uiso   1.00
O114   O     0.45685   0.32528   0.24800   0.00000  Uiso   1.00
Zn115  Zn    0.60366   0.17287   0.25539   0.00000  Uiso   1.00
Zn116  Zn    0.39634   0.16046   0.24460   0.00000  Uiso   1.00
C117   C     0.68272   0.26507   0.25490   0.00000  Uiso   1.00
C118   C     0.97889   0.16227   0.15904   0.00000  Uiso   1.00
C119   C     0.69750   0.17298   0.39364   0.00000  Uiso   1.00
C120   C     0.96710   0.15226   0.10682   0.00000  Uiso   1.00
C121   C     0.67942   0.20931   0.47415   0.00000  Uiso   1.00
C122   C     0.97457   0.09737   0.03258   0.00000  Uiso   1.00
C123   C     0.99603   0.19993   0.42482   0.00000  Uiso   1.00
C124   C     0.99624   0.11577   0.07928   0.00000  Uiso   1.00
C125   C     0.74587   0.15166   0.41217   0.00000  Uiso   1.00
C126   C     0.91854   0.17201   0.08708   0.00000  Uiso   1.00
C127   C     0.76374   0.16054   0.46138   0.00000  Uiso   1.00
C128   C     0.98655   0.06931   0.25746   0.00000  Uiso   1.00
C129   C     0.89252   0.14979   0.04297   0.00000  Uiso   1.00
C130   C     0.73080   0.19164   0.49218   0.00000  Uiso   1.00
C131   C     0.92224   0.11322   0.01466   0.00000  Uiso   1.00
C132   C     0.81566   0.14282   0.47962   0.00000  Uiso   1.00
C133   C     0.83750   0.16229   0.02693   0.00000  Uiso   1.00
C134   C     0.75475   0.00873   0.27453   0.00000  Uiso   1.00
C135   C     0.93143   0.00073   0.30011   0.00000  Uiso   1.00
C136   C     0.82857   0.12652   0.19321   0.00000  Uiso   1.00
C137   C     0.83914   0.20297   0.30870   0.00000  Uiso   1.00
C138   C     0.80290   0.19218   0.05721   0.00000  Uiso   1.00
C139   C     0.84646   0.10644   0.45212   0.00000  Uiso   1.00
C140   C     0.75021   0.20592   0.04016   0.00000  Uiso   1.00
C141   C     0.89874   0.09192   0.46954   0.00000  Uiso   1.00
C142   C     0.69422   0.32036   0.26892   0.00000  Uiso   1.00
C143   C     0.98306   0.01734   0.27489   0.00000  Uiso   1.00
C144   C     0.68763   0.17033   0.34099   0.00000  Uiso   1.00
H145   H     0.70090   0.10015   0.09445   0.00000  Uiso   1.00
H146   H     0.83035   0.08668   0.41768   0.00000  Uiso   1.00
H147   H     0.76743   0.04099   0.30182   0.00000  Uiso   1.00
H148   H     0.89196   0.01872   0.29282   0.00000  Uiso   1.00
H149   H     0.81841   0.14314   0.15894   0.00000  Uiso   1.00
H150   H     0.85289   0.18495   0.34144   0.00000  Uiso   1.00
H151   H     0.95781   0.21605   0.41073   0.00000  Uiso   1.00
H152   H     0.72514   0.22899   0.06438   0.00000  Uiso   1.00
H153   H     0.92068   0.06355   0.44769   0.00000  Uiso   1.00
H154   H     0.90056   0.20319   0.10839   0.00000  Uiso   1.00
H155   H     0.77115   0.13138   0.38654   0.00000  Uiso   1.00
H156   H     0.98676   0.23206   0.49776   0.00000  Uiso   1.00
H157   H     0.99734   0.06911   0.01140   0.00000  Uiso   1.00
H158   H     0.81452   0.20467   0.09486   0.00000  Uiso   1.00
N159   N     0.81362   0.15216   0.23739   0.00000  Uiso   1.00
N160   N     0.85305   0.18117   0.26260   0.00000  Uiso   1.00
O161   O     0.96386   0.24631   0.25309   0.00000  Uiso   1.00
O162   O     0.93367   0.30268   0.33155   0.00000  Uiso   1.00
O163   O     0.84905   0.08386   0.19301   0.00000  Uiso   1.00
O164   O     0.81533   0.24388   0.31230   0.00000  Uiso   1.00
O165   O     0.70281   0.08702   0.24690   0.00000  Uiso   1.00
O166   O     0.72488   0.23702   0.24501   0.00000  Uiso   1.00
O167   O     0.94178   0.09632   0.25498   0.00000  Uiso   1.00
O168   O     0.96995   0.17397   0.32247   0.00000  Uiso   1.00
O169   O     0.69672   0.15937   0.17753   0.00000  Uiso   1.00
O170   O     0.73098   0.16467   0.31439   0.00000  Uiso   1.00
O171   O     0.93569   0.16866   0.18561   0.00000  Uiso   1.00
O172   O     0.79018   0.32528   0.24800   0.00000  Uiso   1.00
Zn173  Zn    0.93700   0.17287   0.25539   0.00000  Uiso   1.00
Zn174  Zn    0.72967   0.16046   0.24460   0.00000  Uiso   1.00
C175   C     0.01605   0.59841   0.25490   0.00000  Uiso   1.00
C176   C     0.31223   0.49560   0.15904   0.00000  Uiso   1.00
C177   C     0.03083   0.50631   0.39364   0.00000  Uiso   1.00
C178   C     0.30044   0.48560   0.10682   0.00000  Uiso   1.00
C179   C     0.01276   0.54264   0.47415   0.00000  Uiso   1.00
C180   C     0.30790   0.43070   0.03258   0.00000  Uiso   1.00
C181   C     0.32937   0.53327   0.42482   0.00000  Uiso   1.00
C182   C     0.32958   0.44911   0.07928   0.00000  Uiso   1.00
C183   C     0.07921   0.48499   0.41217   0.00000  Uiso   1.00
C184   C     0.25187   0.50534   0.08708   0.00000  Uiso   1.00
C185   C     0.09707   0.49387   0.46138   0.00000  Uiso   1.00
C186   C     0.31989   0.40264   0.25746   0.00000  Uiso   1.00
C187   C     0.22585   0.48312   0.04297   0.00000  Uiso   1.00
C188   C     0.06413   0.52497   0.49218   0.00000  Uiso   1.00
C189   C     0.25557   0.44656   0.01466   0.00000  Uiso   1.00
C190   C     0.14900   0.47615   0.47962   0.00000  Uiso   1.00
C191   C     0.17083   0.49562   0.02693   0.00000  Uiso   1.00
C192   C     0.08809   0.34207   0.27453   0.00000  Uiso   1.00
C193   C     0.26477   0.33407   0.30011   0.00000  Uiso   1.00
C194   C     0.16191   0.45985   0.19321   0.00000  Uiso   1.00
C195   C     0.17247   0.53630   0.30870   0.00000  Uiso   1.00
C196   C     0.13623   0.52552   0.05721   0.00000  Uiso   1.00
C197   C     0.17979   0.43977   0.45212   0.00000  Uiso   1.00
C198   C     0.08354   0.53925   0.04016   0.00000  Uiso   1.00
C199   C     0.23207   0.42525   0.46954   0.00000  Uiso   1.00
C200   C     0.02755   0.65369   0.26892   0.00000  Uiso   1.00
C201   C     0.31640   0.35067   0.27489   0.00000  Uiso   1.00
C202   C     0.02096   0.50366   0.34099   0.00000  Uiso   1.00
H203   H     0.03423   0.43348   0.09445   0.00000  Uiso   1.00
H204   H     0.16368   0.42001   0.41768   0.00000  Uiso   1.00
H205   H     0.10076   0.37432   0.30182   0.00000  Uiso   1.00
H206   H     0.22529   0.35206   0.29282   0.00000  Uiso   1.00
H207   H     0.15174   0.47648   0.15894   0.00000  Uiso   1.00
H208   H     0.18622   0.51828   0.34144   0.00000  Uiso   1.00
H209   H     0.29114   0.54939   0.41073   0.00000  Uiso   1.00
H210   H     0.05847   0.56233   0.06438   0.00000  Uiso   1.00
H211   H     0.25401   0.39688   0.44769   0.00000  Uiso   1.00
H212   H     0.23390   0.53652   0.10839   0.00000  Uiso   1.00
H213   H     0.10448   0.46471   0.38654   0.00000  Uiso   1.00
H214   H     0.32009   0.56540   0.49776   0.00000  Uiso   1.00
H215   H     0.33067   0.40244   0.01140   0.00000  Uiso   1.00
H216   H     0.14785   0.53800   0.09486   0.00000  Uiso   1.00
N217   N     0.14695   0.48550   0.23739   0.00000  Uiso   1.00
N218   N     0.18638   0.51450   0.26260   0.00000  Uiso   1.00
O219   O     0.29719   0.57964   0.25309   0.00000  Uiso   1.00
O220   O     0.26700   0.63601   0.33155   0.00000  Uiso   1.00
O221   O     0.18238   0.41720   0.19301   0.00000  Uiso   1.00
O222   O     0.14866   0.57721   0.31230   0.00000  Uiso   1.00
O223   O     0.03614   0.42036   0.24690   0.00000  Uiso   1.00
O224   O     0.05822   0.57035   0.24501   0.00000  Uiso   1.00
O225   O     0.27512   0.42965   0.25498   0.00000  Uiso   1.00
O226   O     0.30328   0.50730   0.32247   0.00000  Uiso   1.00
O227   O     0.03005   0.49270   0.17753   0.00000  Uiso   1.00
O228   O     0.06431   0.49801   0.31439   0.00000  Uiso   1.00
O229   O     0.26902   0.50199   0.18561   0.00000  Uiso   1.00
O230   O     0.12352   0.65861   0.24800   0.00000  Uiso   1.00
Zn231  Zn    0.27033   0.50621   0.25539   0.00000  Uiso   1.00
Zn232  Zn    0.06300   0.49379   0.24460   0.00000  Uiso   1.00
C233   C     0.34939   0.59841   0.25490   0.00000  Uiso   1.00
C234   C     0.64556   0.49560   0.15904   0.00000  Uiso   1.00
C235   C     0.36417   0.50631   0.39364   0.00000  Uiso   1.00
C236   C     0.63377   0.48560   0.10682   0.00000  Uiso   1.00
C237   C     0.34609   0.54264   0.47415   0.00000  Uiso   1.00
C238   C     0.64123   0.43070   0.03258   0.00000  Uiso   1.00
C239   C     0.66270   0.53327   0.42482   0.00000  Uiso   1.00
C240   C     0.66291   0.44911   0.07928   0.00000  Uiso   1.00
C241   C     0.41254   0.48499   0.41217   0.00000  Uiso   1.00
C242   C     0.58521   0.50534   0.08708   0.00000  Uiso   1.00
C243   C     0.43040   0.49387   0.46138   0.00000  Uiso   1.00
C244   C     0.65322   0.40264   0.25746   0.00000  Uiso   1.00
C245   C     0.55919   0.48312   0.04297   0.00000  Uiso   1.00
C246   C     0.39746   0.52497   0.49218   0.00000  Uiso   1.00
C247   C     0.58890   0.44656   0.01466   0.00000  Uiso   1.00
C248   C     0.48233   0.47615   0.47962   0.00000  Uiso   1.00
C249   C     0.50417   0.49562   0.02693   0.00000  Uiso   1.00
C250   C     0.42142   0.34207   0.27453   0.00000  Uiso   1.00
C251   C     0.59810   0.33407   0.30011   0.00000  Uiso   1.00
C252   C     0.49524   0.45985   0.19321   0.00000  Uiso   1.00
C253   C     0.50580   0.53630   0.30870   0.00000  Uiso   1.00
C254   C     0.46956   0.52552   0.05721   0.00000  Uiso   1.00
C255   C     0.51312   0.43977   0.45212   0.00000  Uiso   1.00
C256   C     0.41687   0.53925   0.04016   0.00000  Uiso   1.00
C257   C     0.56541   0.42525   0.46954   0.00000  Uiso   1.00
C258   C     0.36088   0.65369   0.26892   0.00000  Uiso   1.00
C259   C     0.64973   0.35067   0.27489   0.00000  Uiso   1.00
C260   C     0.35429   0.50366   0.34099   0.00000  Uiso   1.00
H261   H     0.36756   0.43348   0.09445   0.00000  Uiso   1.00
H262   H     0.49701   0.42001   0.41768   0.00000  Uiso   1.00
H263   H     0.43409   0.37432   0.30182   0.00000  Uiso   1.00
H264   H     0.55863   0.35206   0.29282   0.00000  Uiso   1.00
H265   H     0.48507   0.47648   0.15894   0.00000  Uiso   1.00
H266   H     0.51956   0.51828   0.34144   0.00000  Uiso   1.00
H267   H     0.62448   0.54939   0.41073   0.00000  Uiso   1.00
H268   H     0.39181   0.56233   0.06438   0.00000  Uiso   1.00
H269   H     0.58735   0.39688   0.44769   0.00000  Uiso   1.00
H270   H     0.56723   0.53652   0.10839   0.00000  Uiso   1.00
H271   H     0.43781   0.46471   0.38654   0.00000  Uiso   1.00
H272   H     0.65343   0.56540   0.49776   0.00000  Uiso   1.00
H273   H     0.66400   0.40244   0.01140   0.00000  Uiso   1.00
H274   H     0.48119   0.53800   0.09486   0.00000  Uiso   1.00
N275   N     0.48029   0.48550   0.23739   0.00000  Uiso   1.00
N276   N     0.51971   0.51450   0.26260   0.00000  Uiso   1.00
O277   O     0.63052   0.57964   0.25309   0.00000  Uiso   1.00
O278   O     0.60034   0.63601   0.33155   0.00000  Uiso   1.00
O279   O     0.51571   0.41720   0.19301   0.00000  Uiso   1.00
O280   O     0.48200   0.57721   0.31230   0.00000  Uiso   1.00
O281   O     0.36948   0.42036   0.24690   0.00000  Uiso   1.00
O282   O     0.39155   0.57035   0.24501   0.00000  Uiso   1.00
O283   O     0.60845   0.42965   0.25498   0.00000  Uiso   1.00
O284   O     0.63662   0.50730   0.32247   0.00000  Uiso   1.00
O285   O     0.36338   0.49270   0.17753   0.00000  Uiso   1.00
O286   O     0.39764   0.49801   0.31439   0.00000  Uiso   1.00
O287   O     0.60236   0.50199   0.18561   0.00000  Uiso   1.00
O288   O     0.45685   0.65861   0.24800   0.00000  Uiso   1.00
Zn289  Zn    0.60366   0.50621   0.25539   0.00000  Uiso   1.00
Zn290  Zn    0.39634   0.49379   0.24460   0.00000  Uiso   1.00
C291   C     0.68272   0.59841   0.25490   0.00000  Uiso   1.00
C292   C     0.97889   0.49560   0.15904   0.00000  Uiso   1.00
C293   C     0.69750   0.50631   0.39364   0.00000  Uiso   1.00
C294   C     0.96710   0.48560   0.10682   0.00000  Uiso   1.00
C295   C     0.67942   0.54264   0.47415   0.00000  Uiso   1.00
C296   C     0.97457   0.43070   0.03258   0.00000  Uiso   1.00
C297   C     0.99603   0.53327   0.42482   0.00000  Uiso   1.00
C298   C     0.99624   0.44911   0.07928   0.00000  Uiso   1.00
C299   C     0.74587   0.48499   0.41217   0.00000  Uiso   1.00
C300   C     0.91854   0.50534   0.08708   0.00000  Uiso   1.00
C301   C     0.76374   0.49387   0.46138   0.00000  Uiso   1.00
C302   C     0.98655   0.40264   0.25746   0.00000  Uiso   1.00
C303   C     0.89252   0.48312   0.04297   0.00000  Uiso   1.00
C304   C     0.73080   0.52497   0.49218   0.00000  Uiso   1.00
C305   C     0.92224   0.44656   0.01466   0.00000  Uiso   1.00
C306   C     0.81566   0.47615   0.47962   0.00000  Uiso   1.00
C307   C     0.83750   0.49562   0.02693   0.00000  Uiso   1.00
C308   C     0.75475   0.34207   0.27453   0.00000  Uiso   1.00
C309   C     0.93143   0.33407   0.30011   0.00000  Uiso   1.00
C310   C     0.82857   0.45985   0.19321   0.00000  Uiso   1.00
C311   C     0.83914   0.53630   0.30870   0.00000  Uiso   1.00
C312   C     0.80290   0.52552   0.05721   0.00000  Uiso   1.00
C313   C     0.84646   0.43977   0.45212   0.00000  Uiso   1.00
C314   C     0.75021   0.53925   0.04016   0.00000  Uiso   1.00
C315   C     0.89874   0.42525   0.46954   0.00000  Uiso   1.00
C316   C     0.69422   0.65369   0.26892   0.00000  Uiso   1.00
C317   C     0.98306   0.35067   0.27489   0.00000  Uiso   1.00
C318   C     0.68763   0.50366   0.34099   0.00000  Uiso   1.00
H319   H     0.70090   0.43348   0.09445   0.00000  Uiso   1.00
H320   H     0.83035   0.42001   0.41768   0.00000  Uiso   1.00
H321   H     0.76743   0.37432   0.30182   0.00000  Uiso   1.00
H322   H     0.89196   0.35206   0.29282   0.00000  Uiso   1.00
H323   H     0.81841   0.47648   0.15894   0.00000  Uiso   1.00
H324   H     0.85289   0.51828   0.34144   0.00000  Uiso   1.00
H325   H     0.95781   0.54939   0.41073   0.00000  Uiso   1.00
H326   H     0.72514   0.56233   0.06438   0.00000  Uiso   1.00
H327   H     0.92068   0.39688   0.44769   0.00000  Uiso   1.00
H328   H     0.90056   0.53652   0.10839   0.00000  Uiso   1.00
H329   H     0.77115   0.46471   0.38654   0.00000  Uiso   1.00
H330   H     0.98676   0.56540   0.49776   0.00000  Uiso   1.00
H331   H     0.99734   0.40244   0.01140   0.00000  Uiso   1.00
H332   H     0.81452   0.53800   0.09486   0.00000  Uiso   1.00
N333   N     0.81362   0.48550   0.23739   0.00000  Uiso   1.00
N334   N     0.85305   0.51450   0.26260   0.00000  Uiso   1.00
O335   O     0.96386   0.57964   0.25309   0.00000  Uiso   1.00
O336   O     0.93367   0.63601   0.33155   0.00000  Uiso   1.00
O337   O     0.84905   0.41720   0.19301   0.00000  Uiso   1.00
O338   O     0.81533   0.57721   0.31230   0.00000  Uiso   1.00
O339   O     0.70281   0.42036   0.24690   0.00000  Uiso   1.00
O340   O     0.72488   0.57035   0.24501   0.00000  Uiso   1.00
O341   O     0.94178   0.42965   0.25498   0.00000  Uiso   1.00
O342   O     0.96995   0.50730   0.32247   0.00000  Uiso   1.00
O343   O     0.69672   0.49270   0.17753   0.00000  Uiso   1.00
O344   O     0.73098   0.49801   0.31439   0.00000  Uiso   1.00
O345   O     0.93569   0.50199   0.18561   0.00000  Uiso   1.00
O346   O     0.79018   0.65861   0.24800   0.00000  Uiso   1.00
Zn347  Zn    0.93700   0.50621   0.25539   0.00000  Uiso   1.00
Zn348  Zn    0.72967   0.49379   0.24460   0.00000  Uiso   1.00
C349   C     0.01605   0.93174   0.25490   0.00000  Uiso   1.00
C350   C     0.31223   0.82894   0.15904   0.00000  Uiso   1.00
C351   C     0.03083   0.83964   0.39364   0.00000  Uiso   1.00
C352   C     0.30044   0.81893   0.10682   0.00000  Uiso   1.00
C353   C     0.01276   0.87598   0.47415   0.00000  Uiso   1.00
C354   C     0.30790   0.76403   0.03258   0.00000  Uiso   1.00
C355   C     0.32937   0.86660   0.42482   0.00000  Uiso   1.00
C356   C     0.32958   0.78244   0.07928   0.00000  Uiso   1.00
C357   C     0.07921   0.81832   0.41217   0.00000  Uiso   1.00
C358   C     0.25187   0.83867   0.08708   0.00000  Uiso   1.00
C359   C     0.09707   0.82721   0.46138   0.00000  Uiso   1.00
C360   C     0.31989   0.73598   0.25746   0.00000  Uiso   1.00
C361   C     0.22585   0.81646   0.04297   0.00000  Uiso   1.00
C362   C     0.06413   0.85830   0.49218   0.00000  Uiso   1.00
C363   C     0.25557   0.77989   0.01466   0.00000  Uiso   1.00
C364   C     0.14900   0.80948   0.47962   0.00000  Uiso   1.00
C365   C     0.17083   0.82895   0.02693   0.00000  Uiso   1.00
C366   C     0.08809   0.67540   0.27453   0.00000  Uiso   1.00
C367   C     0.26477   0.66740   0.30011   0.00000  Uiso   1.00
C368   C     0.16191   0.79318   0.19321   0.00000  Uiso   1.00
C369   C     0.17247   0.86963   0.30870   0.00000  Uiso   1.00
C370   C     0.13623   0.85885   0.05721   0.00000  Uiso   1.00
C371   C     0.17979   0.77310   0.45212   0.00000  Uiso   1.00
C372   C     0.08354   0.87259   0.04016   0.00000  Uiso   1.00
C373   C     0.23207   0.75859   0.46954   0.00000  Uiso   1.00
C374   C     0.02755   0.98702   0.26892   0.00000  Uiso   1.00
C375   C     0.31640   0.68401   0.27489   0.00000  Uiso   1.00
C376   C     0.02096   0.83699   0.34099   0.00000  Uiso   1.00
H377   H     0.03423   0.76681   0.09445   0.00000  Uiso   1.00
H378   H     0.16368   0.75335   0.41768   0.00000  Uiso   1.00
H379   H     0.10076   0.70765   0.30182   0.00000  Uiso   1.00
H380   H     0.22529   0.68539   0.29282   0.00000  Uiso   1.00
H381   H     0.15174   0.80981   0.15894   0.00000  Uiso   1.00
H382   H     0.18622   0.85162   0.34144   0.00000  Uiso   1.00
H383   H     0.29114   0.88272   0.41073   0.00000  Uiso   1.00
H384   H     0.05847   0.89566   0.06438   0.00000  Uiso   1.00
H385   H     0.25401   0.73022   0.44769   0.00000  Uiso   1.00
H386   H     0.23390   0.86985   0.10839   0.00000  Uiso   1.00
H387   H     0.10448   0.79805   0.38654   0.00000  Uiso   1.00
H388   H     0.32009   0.89873   0.49776   0.00000  Uiso   1.00
H389   H     0.33067   0.73578   0.01140   0.00000  Uiso   1.00
H390   H     0.14785   0.87133   0.09486   0.00000  Uiso   1.00
N391   N     0.14695   0.81883   0.23739   0.00000  Uiso   1.00
N392   N     0.18638   0.84784   0.26260   0.00000  Uiso   1.00
O393   O     0.29719   0.91298   0.25309   0.00000  Uiso   1.00
O394   O     0.26700   0.96935   0.33155   0.00000  Uiso   1.00
O395   O     0.18238   0.75053   0.19301   0.00000  Uiso   1.00
O396   O     0.14866   0.91055   0.31230   0.00000  Uiso   1.00
O397   O     0.03614   0.75369   0.24690   0.00000  Uiso   1.00
O398   O     0.05822   0.90368   0.24501   0.00000  Uiso   1.00
O399   O     0.27512   0.76298   0.25498   0.00000  Uiso   1.00
O400   O     0.30328   0.84063   0.32247   0.00000  Uiso   1.00
O401   O     0.03005   0.82603   0.17753   0.00000  Uiso   1.00
O402   O     0.06431   0.83134   0.31439   0.00000  Uiso   1.00
O403   O     0.26902   0.83533   0.18561   0.00000  Uiso   1.00
O404   O     0.12352   0.99195   0.24800   0.00000  Uiso   1.00
Zn405  Zn    0.27033   0.83954   0.25539   0.00000  Uiso   1.00
Zn406  Zn    0.06300   0.82713   0.24460   0.00000  Uiso   1.00
C407   C     0.34939   0.93174   0.25490   0.00000  Uiso   1.00
C408   C     0.64556   0.82894   0.15904   0.00000  Uiso   1.00
C409   C     0.36417   0.83964   0.39364   0.00000  Uiso   1.00
C410   C     0.63377   0.81893   0.10682   0.00000  Uiso   1.00
C411   C     0.34609   0.87598   0.47415   0.00000  Uiso   1.00
C412   C     0.64123   0.76403   0.03258   0.00000  Uiso   1.00
C413   C     0.66270   0.86660   0.42482   0.00000  Uiso   1.00
C414   C     0.66291   0.78244   0.07928   0.00000  Uiso   1.00
C415   C     0.41254   0.81832   0.41217   0.00000  Uiso   1.00
C416   C     0.58521   0.83867   0.08708   0.00000  Uiso   1.00
C417   C     0.43040   0.82721   0.46138   0.00000  Uiso   1.00
C418   C     0.65322   0.73598   0.25746   0.00000  Uiso   1.00
C419   C     0.55919   0.81646   0.04297   0.00000  Uiso   1.00
C420   C     0.39746   0.85830   0.49218   0.00000  Uiso   1.00
C421   C     0.58890   0.77989   0.01466   0.00000  Uiso   1.00
C422   C     0.48233   0.80948   0.47962   0.00000  Uiso   1.00
C423   C     0.50417   0.82895   0.02693   0.00000  Uiso   1.00
C424   C     0.42142   0.67540   0.27453   0.00000  Uiso   1.00
C425   C     0.59810   0.66740   0.30011   0.00000  Uiso   1.00
C426   C     0.49524   0.79318   0.19321   0.00000  Uiso   1.00
C427   C     0.50580   0.86963   0.30870   0.00000  Uiso   1.00
C428   C     0.46956   0.85885   0.05721   0.00000  Uiso   1.00
C429   C     0.51312   0.77310   0.45212   0.00000  Uiso   1.00
C430   C     0.41687   0.87259   0.04016   0.00000  Uiso   1.00
C431   C     0.56541   0.75859   0.46954   0.00000  Uiso   1.00
C432   C     0.36088   0.98702   0.26892   0.00000  Uiso   1.00
C433   C     0.64973   0.68401   0.27489   0.00000  Uiso   1.00
C434   C     0.35429   0.83699   0.34099   0.00000  Uiso   1.00
H435   H     0.36756   0.76681   0.09445   0.00000  Uiso   1.00
H436   H     0.49701   0.75335   0.41768   0.00000  Uiso   1.00
H437   H     0.43409   0.70765   0.30182   0.00000  Uiso   1.00
H438   H     0.55863   0.68539   0.29282   0.00000  Uiso   1.00
H439   H     0.48507   0.80981   0.15894   0.00000  Uiso   1.00
H440   H     0.51956   0.85162   0.34144   0.00000  Uiso   1.00
H441   H     0.62448   0.88272   0.41073   0.00000  Uiso   1.00
H442   H     0.39181   0.89566   0.06438   0.00000  Uiso   1.00
H443   H     0.58735   0.73022   0.44769   0.00000  Uiso   1.00
H444   H     0.56723   0.86985   0.10839   0.00000  Uiso   1.00
H445   H     0.43781   0.79805   0.38654   0.00000  Uiso   1.00
H446   H     0.65343   0.89873   0.49776   0.00000  Uiso   1.00
H447   H     0.66400   0.73578   0.01140   0.00000  Uiso   1.00
H448   H     0.48119   0.87133   0.09486   0.00000  Uiso   1.00
N449   N     0.48029   0.81883   0.23739   0.00000  Uiso   1.00
N450   N     0.51971   0.84784   0.26260   0.00000  Uiso   1.00
O451   O     0.63052   0.91298   0.25309   0.00000  Uiso   1.00
O452   O     0.60034   0.96935   0.33155   0.00000  Uiso   1.00
O453   O     0.51571   0.75053   0.19301   0.00000  Uiso   1.00
O454   O     0.48200   0.91055   0.31230   0.00000  Uiso   1.00
O455   O     0.36948   0.75369   0.24690   0.00000  Uiso   1.00
O456   O     0.39155   0.90368   0.24501   0.00000  Uiso   1.00
O457   O     0.60845   0.76298   0.25498   0.00000  Uiso   1.00
O458   O     0.63662   0.84063   0.32247   0.00000  Uiso   1.00
O459   O     0.36338   0.82603   0.17753   0.00000  Uiso   1.00
O460   O     0.39764   0.83134   0.31439   0.00000  Uiso   1.00
O461   O     0.60236   0.83533   0.18561   0.00000  Uiso   1.00
O462   O     0.45685   0.99195   0.24800   0.00000  Uiso   1.00
Zn463  Zn    0.60366   0.83954   0.25539   0.00000  Uiso   1.00
Zn464  Zn    0.39634   0.82713   0.24460   0.00000  Uiso   1.00
C465   C     0.68272   0.93174   0.25490   0.00000  Uiso   1.00
C466   C     0.97889   0.82894   0.15904   0.00000  Uiso   1.00
C467   C     0.69750   0.83964   0.39364   0.00000  Uiso   1.00
C468   C     0.96710   0.81893   0.10682   0.00000  Uiso   1.00
C469   C     0.67942   0.87598   0.47415   0.00000  Uiso   1.00
C470   C     0.97457   0.76403   0.03258   0.00000  Uiso   1.00
C471   C     0.99603   0.86660   0.42482   0.00000  Uiso   1.00
C472   C     0.99624   0.78244   0.07928   0.00000  Uiso   1.00
C473   C     0.74587   0.81832   0.41217   0.00000  Uiso   1.00
C474   C     0.91854   0.83867   0.08708   0.00000  Uiso   1.00
C475   C     0.76374   0.82721   0.46138   0.00000  Uiso   1.00
C476   C     0.98655   0.73598   0.25746   0.00000  Uiso   1.00
C477   C     0.89252   0.81646   0.04297   0.00000  Uiso   1.00
C478   C     0.73080   0.85830   0.49218   0.00000  Uiso   1.00
C479   C     0.92224   0.77989   0.01466   0.00000  Uiso   1.00
C480   C     0.81566   0.80948   0.47962   0.00000  Uiso   1.00
C481   C     0.83750   0.82895   0.02693   0.00000  Uiso   1.00
C482   C     0.75475   0.67540   0.27453   0.00000  Uiso   1.00
C483   C     0.93143   0.66740   0.30011   0.00000  Uiso   1.00
C484   C     0.82857   0.79318   0.19321   0.00000  Uiso   1.00
C485   C     0.83914   0.86963   0.30870   0.00000  Uiso   1.00
C486   C     0.80290   0.85885   0.05721   0.00000  Uiso   1.00
C487   C     0.84646   0.77310   0.45212   0.00000  Uiso   1.00
C488   C     0.75021   0.87259   0.04016   0.00000  Uiso   1.00
C489   C     0.89874   0.75859   0.46954   0.00000  Uiso   1.00
C490   C     0.69422   0.98702   0.26892   0.00000  Uiso   1.00
C491   C     0.98306   0.68401   0.27489   0.00000  Uiso   1.00
C492   C     0.68763   0.83699   0.34099   0.00000  Uiso   1.00
H493   H     0.70090   0.76681   0.09445   0.00000  Uiso   1.00
H494   H     0.83035   0.75335   0.41768   0.00000  Uiso   1.00
H495   H     0.76743   0.70765   0.30182   0.00000  Uiso   1.00
H496   H     0.89196   0.68539   0.29282   0.00000  Uiso   1.00
H497   H     0.81841   0.80981   0.15894   0.00000  Uiso   1.00
H498   H     0.85289   0.85162   0.34144   0.00000  Uiso   1.00
H499   H     0.95781   0.88272   0.41073   0.00000  Uiso   1.00
H500   H     0.72514   0.89566   0.06438   0.00000  Uiso   1.00
H501   H     0.92068   0.73022   0.44769   0.00000  Uiso   1.00
H502   H     0.90056   0.86985   0.10839   0.00000  Uiso   1.00
H503   H     0.77115   0.79805   0.38654   0.00000  Uiso   1.00
H504   H     0.98676   0.89873   0.49776   0.00000  Uiso   1.00
H505   H     0.99734   0.73578   0.01140   0.00000  Uiso   1.00
H506   H     0.81452   0.87133   0.09486   0.00000  Uiso   1.00
N507   N     0.81362   0.81883   0.23739   0.00000  Uiso   1.00
N508   N     0.85305   0.84784   0.26260   0.00000  Uiso   1.00
O509   O     0.96386   0.91298   0.25309   0.00000  Uiso   1.00
O510   O     0.93367   0.96935   0.33155   0.00000  Uiso   1.00
O511   O     0.84905   0.75053   0.19301   0.00000  Uiso   1.00
O512   O     0.81533   0.91055   0.31230   0.00000  Uiso   1.00
O513   O     0.70281   0.75369   0.24690   0.00000  Uiso   1.00
O514   O     0.72488   0.90368   0.24501   0.00000  Uiso   1.00
O515   O     0.94178   0.76298   0.25498   0.00000  Uiso   1.00
O516   O     0.96995   0.84063   0.32247   0.00000  Uiso   1.00
O517   O     0.69672   0.82603   0.17753   0.00000  Uiso   1.00
O518   O     0.73098   0.83134   0.31439   0.00000  Uiso   1.00
O519   O     0.93569   0.83533   0.18561   0.00000  Uiso   1.00
O520   O     0.79018   0.99195   0.24800   0.00000  Uiso   1.00
Zn521  Zn    0.93700   0.83954   0.25539   0.00000  Uiso   1.00
Zn522  Zn    0.72967   0.82713   0.24460   0.00000  Uiso   1.00
C523   C     0.01605   0.26507   0.75490   0.00000  Uiso   1.00
C524   C     0.31223   0.16227   0.65904   0.00000  Uiso   1.00
C525   C     0.03083   0.17298   0.89364   0.00000  Uiso   1.00
C526   C     0.30044   0.15226   0.60682   0.00000  Uiso   1.00
C527   C     0.01276   0.20931   0.97415   0.00000  Uiso   1.00
C528   C     0.30790   0.09737   0.53258   0.00000  Uiso   1.00
C529   C     0.32937   0.19993   0.92482   0.00000  Uiso   1.00
C530   C     0.32958   0.11577   0.57928   0.00000  Uiso   1.00
C531   C     0.07921   0.15166   0.91217   0.00000  Uiso   1.00
C532   C     0.25187   0.17201   0.58708   0.00000  Uiso   1.00
C533   C     0.09707   0.16054   0.96138   0.00000  Uiso   1.00
C534   C     0.31989   0.06931   0.75746   0.00000  Uiso   1.00
C535   C     0.22585   0.14979   0.54297   0.00000  Uiso   1.00
C536   C     0.06413   0.19164   0.99218   0.00000  Uiso   1.00
C537   C     0.25557   0.11322   0.51466   0.00000  Uiso   1.00
C538   C     0.14900   0.14282   0.97962   0.00000  Uiso   1.00
C539   C     0.17083   0.16229   0.52693   0.00000  Uiso   1.00
C540   C     0.08809   0.00873   0.77453   0.00000  Uiso   1.00
C541   C     0.26477   0.00073   0.80011   0.00000  Uiso   1.00
C542   C     0.16191   0.12652   0.69321   0.00000  Uiso   1.00
C543   C     0.17247   0.20297   0.80870   0.00000  Uiso   1.00
C544   C     0.13623   0.19218   0.55721   0.00000  Uiso   1.00
C545   C     0.17979   0.10644   0.95212   0.00000  Uiso   1.00
C546   C     0.08354   0.20592   0.54016   0.00000  Uiso   1.00
C547   C     0.23207   0.09192   0.96954   0.00000  Uiso   1.00
C548   C     0.02755   0.32036   0.76892   0.00000  Uiso   1.00
C549   C     0.31640   0.01734   0.77489   0.00000  Uiso   1.00
C550   C     0.02096   0.17033   0.84099   0.00000  Uiso   1.00
H551   H     0.03423   0.10015   0.59445   0.00000  Uiso   1.00
H552   H     0.16368   0.08668   0.91768   0.00000  Uiso   1.00
H553   H     0.10076   0.04099   0.80182   0.00000  Uiso   1.00
H554   H     0.22529   0.01872   0.79282   0.00000  Uiso   1.00
H555   H     0.15174   0.14314   0.65894   0.00000  Uiso   1.00
H556   H     0.18622   0.18495   0.84144   0.00000  Uiso   1.00
H557   H     0.29114   0.21605   0.91073   0.00000  Uiso   1.00
H558   H     0.05847   0.22899   0.56438   0.00000  Uiso   1.00
H559   H     0.25401   0.06355   0.94769   0.00000  Uiso   1.00
H560   H     0.23390   0.20319   0.60839   0.00000  Uiso   1.00
H561   H     0.10448   0.13138   0.88654   0.00000  Uiso   1.00
H562   H     0.32009   0.23206   0.99776   0.00000  Uiso   1.00
H563   H     0.33067   0.06911   0.51140   0.00000  Uiso   1.00
H564   H     0.14785   0.20467   0.59486   0.00000  Uiso   1.00
N565   N     0.14695   0.15216   0.73739   0.00000  Uiso   1.00
N566   N     0.18638   0.18117   0.76260   0.00000  Uiso   1.00
O567   O     0.29719   0.24631   0.75309   0.00000  Uiso   1.00
O568   O     0.26700   0.30268   0.83155   0.00000  Uiso   1.00
O569   O     0.18238   0.08386   0.69301   0.00000  Uiso   1.00
O570   O     0.14866   0.24388   0.81230   0.00000  Uiso   1.00
O571   O     0.03614   0.08702   0.74690   0.00000  Uiso   1.00
O572   O     0.05822   0.23702   0.74501   0.00000  Uiso   1.00
O573   O     0.27512   0.09632   0.75498   0.00000  Uiso   1.00
O574   O     0.30328   0.17397   0.82247   0.00000  Uiso   1.00
O575   O     0.03005   0.15937   0.67753   0.00000  Uiso   1.00
O576   O     0.06431   0.16467   0.81439   0.00000  Uiso   1.00
O577   O     0.26902   0.16866   0.68561   0.00000  Uiso   1.00
O578   O     0.12352   0.32528   0.74800   0.00000  Uiso   1.00
Zn579  Zn    0.27033   0.17287   0.75539   0.00000  Uiso   1.00
Zn580  Zn    0.06300   0.16046   0.74460   0.00000  Uiso   1.00
C581   C     0.34939   0.26507   0.75490   0.00000  Uiso   1.00
C582   C     0.64556   0.16227   0.65904   0.00000  Uiso   1.00
C583   C     0.36417   0.17298   0.89364   0.00000  Uiso   1.00
C584   C     0.63377   0.15226   0.60682   0.00000  Uiso   1.00
C585   C     0.34609   0.20931   0.97415   0.00000  Uiso   1.00
C586   C     0.64123   0.09737   0.53258   0.00000  Uiso   1.00
C587   C     0.66270   0.19993   0.92482   0.00000  Uiso   1.00
C588   C     0.66291   0.11577   0.57928   0.00000  Uiso   1.00
C589   C     0.41254   0.15166   0.91217   0.00000  Uiso   1.00
C590   C     0.58521   0.17201   0.58708   0.00000  Uiso   1.00
C591   C     0.43040   0.16054   0.96138   0.00000  Uiso   1.00
C592   C     0.65322   0.06931   0.75746   0.00000  Uiso   1.00
C593   C     0.55919   0.14979   0.54297   0.00000  Uiso   1.00
C594   C     0.39746   0.19164   0.99218   0.00000  Uiso   1.00
C595   C     0.58890   0.11322   0.51466   0.00000  Uiso   1.00
C596   C     0.48233   0.14282   0.97962   0.00000  Uiso   1.00
C597   C     0.50417   0.16229   0.52693   0.00000  Uiso   1.00
C598   C     0.42142   0.00873   0.77453   0.00000  Uiso   1.00
C599   C     0.59810   0.00073   0.80011   0.00000  Uiso   1.00
C600   C     0.49524   0.12652   0.69321   0.00000  Uiso   1.00
C601   C     0.50580   0.20297   0.80870   0.00000  Uiso   1.00
C602   C     0.46956   0.19218   0.55721   0.00000  Uiso   1.00
C603   C     0.51312   0.10644   0.95212   0.00000  Uiso   1.00
C604   C     0.41687   0.20592   0.54016   0.00000  Uiso   1.00
C605   C     0.56541   0.09192   0.96954   0.00000  Uiso   1.00
C606   C     0.36088   0.32036   0.76892   0.00000  Uiso   1.00
C607   C     0.64973   0.01734   0.77489   0.00000  Uiso   1.00
C608   C     0.35429   0.17033   0.84099   0.00000  Uiso   1.00
H609   H     0.36756   0.10015   0.59445   0.00000  Uiso   1.00
H610   H     0.49701   0.08668   0.91768   0.00000  Uiso   1.00
H611   H     0.43409   0.04099   0.80182   0.00000  Uiso   1.00
H612   H     0.55863   0.01872   0.79282   0.00000  Uiso   1.00
H613   H     0.48507   0.14314   0.65894   0.00000  Uiso   1.00
H614   H     0.51956   0.18495   0.84144   0.00000  Uiso   1.00
H615   H     0.62448   0.21605   0.91073   0.00000  Uiso   1.00
H616   H     0.39181   0.22899   0.56438   0.00000  Uiso   1.00
H617   H     0.58735   0.06355   0.94769   0.00000  Uiso   1.00
H618   H     0.56723   0.20319   0.60839   0.00000  Uiso   1.00
H619   H     0.43781   0.13138   0.88654   0.00000  Uiso   1.00
H620   H     0.65343   0.23206   0.99776   0.00000  Uiso   1.00
H621   H     0.66400   0.06911   0.51140   0.00000  Uiso   1.00
H622   H     0.48119   0.20467   0.59486   0.00000  Uiso   1.00
N623   N     0.48029   0.15216   0.73739   0.00000  Uiso   1.00
N624   N     0.51971   0.18117   0.76260   0.00000  Uiso   1.00
O625   O     0.63052   0.24631   0.75309   0.00000  Uiso   1.00
O626   O     0.60034   0.30268   0.83155   0.00000  Uiso   1.00
O627   O     0.51571   0.08386   0.69301   0.00000  Uiso   1.00
O628   O     0.48200   0.24388   0.81230   0.00000  Uiso   1.00
O629   O     0.36948   0.08702   0.74690   0.00000  Uiso   1.00
O630   O     0.39155   0.23702   0.74501   0.00000  Uiso   1.00
O631   O     0.60845   0.09632   0.75498   0.00000  Uiso   1.00
O632   O     0.63662   0.17397   0.82247   0.00000  Uiso   1.00
O633   O     0.36338   0.15937   0.67753   0.00000  Uiso   1.00
O634   O     0.39764   0.16467   0.81439   0.00000  Uiso   1.00
O635   O     0.60236   0.16866   0.68561   0.00000  Uiso   1.00
O636   O     0.45685   0.32528   0.74800   0.00000  Uiso   1.00
Zn637  Zn    0.60366   0.17287   0.75539   0.00000  Uiso   1.00
Zn638  Zn    0.39634   0.16046   0.74460   0.00000  Uiso   1.00
C639   C     0.68272   0.26507   0.75490   0.00000  Uiso   1.00
C640   C     0.97889   0.16227   0.65904   0.00000  Uiso   1.00
C641   C     0.69750   0.17298   0.89364   0.00000  Uiso   1.00
C642   C     0.96710   0.15226   0.60682   0.00000  Uiso   1.00
C643   C     0.67942   0.20931   0.97415   0.00000  Uiso   1.00
C644   C     0.97457   0.09737   0.53258   0.00000  Uiso   1.00
C645   C     0.99603   0.19993   0.92482   0.00000  Uiso   1.00
C646   C     0.99624   0.11577   0.57928   0.00000  Uiso   1.00
C647   C     0.74587   0.15166   0.91217   0.00000  Uiso   1.00
C648   C     0.91854   0.17201   0.58708   0.00000  Uiso   1.00
C649   C     0.76374   0.16054   0.96138   0.00000  Uiso   1.00
C650   C     0.98655   0.06931   0.75746   0.00000  Uiso   1.00
C651   C     0.89252   0.14979   0.54297   0.00000  Uiso   1.00
C652   C     0.73080   0.19164   0.99218   0.00000  Uiso   1.00
C653   C     0.92224   0.11322   0.51466   0.00000  Uiso   1.00
C654   C     0.81566   0.14282   0.97962   0.00000  Uiso   1.00
C655   C     0.83750   0.16229   0.52693   0.00000  Uiso   1.00
C656   C     0.75475   0.00873   0.77453   0.00000  Uiso   1.00
C657   C     0.93143   0.00073   0.80011   0.00000  Uiso   1.00
C658   C     0.82857   0.12652   0.69321   0.00000  Uiso   1.00
C659   C     0.83914   0.20297   0.80870   0.00000  Uiso   1.00
C660   C     0.80290   0.19218   0.55721   0.00000  Uiso   1.00
C661   C     0.84646   0.10644   0.95212   0.00000  Uiso   1.00
C662   C     0.75021   0.20592   0.54016   0.00000  Uiso   1.00
C663   C     0.89874   0.09192   0.96954   0.00000  Uiso   1.00
C664   C     0.69422   0.32036   0.76892   0.00000  Uiso   1.00
C665   C     0.98306   0.01734   0.77489   0.00000  Uiso   1.00
C666   C     0.68763   0.17033   0.84099   0.00000  Uiso   1.00
H667   H     0.70090   0.10015   0.59445   0.00000  Uiso   1.00
H668   H     0.83035   0.08668   0.91768   0.00000  Uiso   1.00
H669   H     0.76743   0.04099   0.80182   0.00000  Uiso   1.00
H670   H     0.89196   0.01872   0.79282   0.00000  Uiso   1.00
H671   H     0.81841   0.14314   0.65894   0.00000  Uiso   1.00
H672   H     0.85289   0.18495   0.84144   0.00000  Uiso   1.00
H673   H     0.95781   0.21605   0.91073   0.00000  Uiso   1.00
H674   H     0.72514   0.22899   0.56438   0.00000  Uiso   1.00
H675   H     0.92068   0.06355   0.94769   0.00000  Uiso   1.00
H676   H     0.90056   0.20319   0.60839   0.00000  Uiso   1.00
H677   H     0.77115   0.13138   0.88654   0.00000  Uiso   1.00
H678   H     0.98676   0.23206   0.99776   0.00000  Uiso   1.00
H679   H     0.99734   0.06911   0.51140   0.00000  Uiso   1.00
H680   H     0.81452   0.20467   0.59486   0.00000  Uiso   1.00
N681   N     0.81362   0.15216   0.73739   0.00000  Uiso   1.00
N682   N     0.85305   0.18117   0.76260   0.00000  Uiso   1.00
O683   O     0.96386   0.24631   0.75309   0.00000  Uiso   1.00
O684   O     0.93367   0.30268   0.83155   0.00000  Uiso   1.00
O685   O     0.84905   0.08386   0.69301   0.00000  Uiso   1.00
O686   O     0.81533   0.24388   0.81230   0.00000  Uiso   1.00
O687   O     0.70281   0.08702   0.74690   0.00000  Uiso   1.00
O688   O     0.72488   0.23702   0.74501   0.00000  Uiso   1.00
O689   O     0.94178   0.09632   0.75498   0.00000  Uiso   1.00
O690   O     0.96995   0.17397   0.82247   0.00000  Uiso   1.00
O691   O     0.69672   0.15937   0.67753   0.00000  Uiso   1.00
O692   O     0.73098   0.16467   0.81439   0.00000  Uiso   1.00
O693   O     0.93569   0.16866   0.68561   0.00000  Uiso   1.00
O694   O     0.79018   0.32528   0.74800   0.00000  Uiso   1.00
Zn695  Zn    0.93700   0.17287   0.75539   0.00000  Uiso   1.00
Zn696  Zn    0.72967   0.16046   0.74460   0.00000  Uiso   1.00
C697   C     0.01605   0.59841   0.75490   0.00000  Uiso   1.00
C698   C     0.31223   0.49560   0.65904   0.00000  Uiso   1.00
C699   C     0.03083   0.50631   0.89364   0.00000  Uiso   1.00
C700   C     0.30044   0.48560   0.60682   0.00000  Uiso   1.00
C701   C     0.01276   0.54264   0.97415   0.00000  Uiso   1.00
C702   C     0.30790   0.43070   0.53258   0.00000  Uiso   1.00
C703   C     0.32937   0.53327   0.92482   0.00000  Uiso   1.00
C704   C     0.32958   0.44911   0.57928   0.00000  Uiso   1.00
C705   C     0.07921   0.48499   0.91217   0.00000  Uiso   1.00
C706   C     0.25187   0.50534   0.58708   0.00000  Uiso   1.00
C707   C     0.09707   0.49387   0.96138   0.00000  Uiso   1.00
C708   C     0.31989   0.40264   0.75746   0.00000  Uiso   1.00
C709   C     0.22585   0.48312   0.54297   0.00000  Uiso   1.00
C710   C     0.06413   0.52497   0.99218   0.00000  Uiso   1.00
C711   C     0.25557   0.44656   0.51466   0.00000  Uiso   1.00
C712   C     0.14900   0.47615   0.97962   0.00000  Uiso   1.00
C713   C     0.17083   0.49562   0.52693   0.00000  Uiso   1.00
C714   C     0.08809   0.34207   0.77453   0.00000  Uiso   1.00
C715   C     0.26477   0.33407   0.80011   0.00000  Uiso   1.00
C716   C     0.16191   0.45985   0.69321   0.00000  Uiso   1.00
C717   C     0.17247   0.53630   0.80870   0.00000  Uiso   1.00
C718   C     0.13623   0.52552   0.55721   0.00000  Uiso   1.00
C719   C     0.17979   0.43977   0.95212   0.00000  Uiso   1.00
C720   C     0.08354   0.53925   0.54016   0.00000  Uiso   1.00
C721   C     0.23207   0.42525   0.96954   0.00000  Uiso   1.00
C722   C     0.02755   0.65369   0.76892   0.00000  Uiso   1.00
C723   C     0.31640   0.35067   0.77489   0.00000  Uiso   1.00
C724   C     0.02096   0.50366   0.84099   0.00000  Uiso   1.00
H725   H     0.03423   0.43348   0.59445   0.00000  Uiso   1.00
H726   H     0.16368   0.42001   0.91768   0.00000  Uiso   1.00
H727   H     0.10076   0.37432   0.80182   0.00000  Uiso   1.00
H728   H     0.22529   0.35206   0.79282   0.00000  Uiso   1.00
H729   H     0.15174   0.47648   0.65894   0.00000  Uiso   1.00
H730   H     0.18622   0.51828   0.84144   0.00000  Uiso   1.00
H731   H     0.29114   0.54939   0.91073   0.00000  Uiso   1.00
H732   H     0.05847   0.56233   0.56438   0.00000  Uiso   1.00
H733   H     0.25401   0.39688   0.94769   0.00000  Uiso   1.00
H734   H     0.23390   0.53652   0.60839   0.00000  Uiso   1.00
H735   H     0.10448   0.46471   0.88654   0.00000  Uiso   1.00
H736   H     0.32009   0.56540   0.99776   0.00000  Uiso   1.00
H737   H     0.33067   0.40244   0.51140   0.00000  Uiso   1.00
H738   H     0.14785   0.53800   0.59486   0.00000  Uiso   1.00
N739   N     0.14695   0.48550   0.73739   0.00000  Uiso   1.00
N740   N     0.18638   0.51450   0.76260   0.00000  Uiso   1.00
O741   O     0.29719   0.57964   0.75309   0.00000  Uiso   1.00
O742   O     0.26700   0.63601   0.83155   0.00000  Uiso   1.00
O743   O     0.18238   0.41720   0.69301   0.00000  Uiso   1.00
O744   O     0.14866   0.57721   0.81230   0.00000  Uiso   1.00
O745   O     0.03614   0.42036   0.74690   0.00000  Uiso   1.00
O746   O     0.05822   0.57035   0.74501   0.00000  Uiso   1.00
O747   O     0.27512   0.42965   0.75498   0.00000  Uiso   1.00
O748   O     0.30328   0.50730   0.82247   0.00000  Uiso   1.00
O749   O     0.03005   0.49270   0.67753   0.00000  Uiso   1.00
O750   O     0.06431   0.49801   0.81439   0.00000  Uiso   1.00
O751   O     0.26902   0.50199   0.68561   0.00000  Uiso   1.00
O752   O     0.12352   0.65861   0.74800   0.00000  Uiso   1.00
Zn753  Zn    0.27033   0.50621   0.75539   0.00000  Uiso   1.00
Zn754  Zn    0.06300   0.49379   0.74460   0.00000  Uiso   1.00
C755   C     0.34939   0.59841   0.75490   0.00000  Uiso   1.00
C756   C     0.64556   0.49560   0.65904   0.00000  Uiso   1.00
C757   C     0.36417   0.50631   0.89364   0.00000  Uiso   1.00
C758   C     0.63377   0.48560   0.60682   0.00000  Uiso   1.00
C759   C     0.34609   0.54264   0.97415   0.00000  Uiso   1.00
C760   C     0.64123   0.43070   0.53258   0.00000  Uiso   1.00
C761   C     0.66270   0.53327   0.92482   0.00000  Uiso   1.00
C762   C     0.66291   0.44911   0.57928   0.00000  Uiso   1.00
C763   C     0.41254   0.48499   0.91217   0.00000  Uiso   1.00
C764   C     0.58521   0.50534   0.58708   0.00000  Uiso   1.00
C765   C     0.43040   0.49387   0.96138   0.00000  Uiso   1.00
C766   C     0.65322   0.40264   0.75746   0.00000  Uiso   1.00
C767   C     0.55919   0.48312   0.54297   0.00000  Uiso   1.00
C768   C     0.39746   0.52497   0.99218   0.00000  Uiso   1.00
C769   C     0.58890   0.44656   0.51466   0.00000  Uiso   1.00
C770   C     0.48233   0.47615   0.97962   0.00000  Uiso   1.00
C771   C     0.50417   0.49562   0.52693   0.00000  Uiso   1.00
C772   C     0.42142   0.34207   0.77453   0.00000  Uiso   1.00
C773   C     0.59810   0.33407   0.80011   0.00000  Uiso   1.00
C774   C     0.49524   0.45985   0.69321   0.00000  Uiso   1.00
C775   C     0.50580   0.53630   0.80870   0.00000  Uiso   1.00
C776   C     0.46956   0.52552   0.55721   0.00000  Uiso   1.00
C777   C     0.51312   0.43977   0.95212   0.00000  Uiso   1.00
C778   C     0.41687   0.53925   0.54016   0.00000  Uiso   1.00
C779   C     0.56541   0.42525   0.96954   0.00000  Uiso   1.00
C780   C     0.36088   0.65369   0.76892   0.00000  Uiso   1.00
C781   C     0.64973   0.35067   0.77489   0.00000  Uiso   1.00
C782   C     0.35429   0.50366   0.84099   0.00000  Uiso   1.00
H783   H     0.36756   0.43348   0.59445   0.00000  Uiso   1.00
H784   H     0.49701   0.42001   0.91768   0.00000  Uiso   1.00
H785   H     0.43409   0.37432   0.80182   0.00000  Uiso   1.00
H786   H     0.55863   0.35206   0.79282   0.00000  Uiso   1.00
H787   H     0.48507   0.47648   0.65894   0.00000  Uiso   1.00
H788   H     0.51956   0.51828   0.84144   0.00000  Uiso   1.00
H789   H     0.62448   0.54939   0.91073   0.00000  Uiso   1.00
H790   H     0.39181   0.56233   0.56438   0.00000  Uiso   1.00
H791   H     0.58735   0.39688   0.94769   0.00000  Uiso   1.00
H792   H     0.56723   0.53652   0.60839   0.00000  Uiso   1.00
H793   H     0.43781   0.46471   0.88654   0.00000  Uiso   1.00
H794   H     0.65343   0.56540   0.99776   0.00000  Uiso   1.00
H795   H     0.66400   0.40244   0.51140   0.00000  Uiso   1.00
H796   H     0.48119   0.53800   0.59486   0.00000  Uiso   1.00
N797   N     0.48029   0.48550   0.73739   0.00000  Uiso   1.00
N798   N     0.51971   0.51450   0.76260   0.00000  Uiso   1.00
O799   O     0.63052   0.57964   0.75309   0.00000  Uiso   1.00
O800   O     0.60034   0.63601   0.83155   0.00000  Uiso   1.00
O801   O     0.51571   0.41720   0.69301   0.00000  Uiso   1.00
O802   O     0.48200   0.57721   0.81230   0.00000  Uiso   1.00
O803   O     0.36948   0.42036   0.74690   0.00000  Uiso   1.00
O804   O     0.39155   0.57035   0.74501   0.00000  Uiso   1.00
O805   O     0.60845   0.42965   0.75498   0.00000  Uiso   1.00
O806   O     0.63662   0.50730   0.82247   0.00000  Uiso   1.00
O807   O     0.36338   0.49270   0.67753   0.00000  Uiso   1.00
O808   O     0.39764   0.49801   0.81439   0.00000  Uiso   1.00
O809   O     0.60236   0.50199   0.68561   0.00000  Uiso   1.00
O810   O     0.45685   0.65861   0.74800   0.00000  Uiso   1.00
Zn811  Zn    0.60366   0.50621   0.75539   0.00000  Uiso   1.00
Zn812  Zn    0.39634   0.49379   0.74460   0.00000  Uiso   1.00
C813   C     0.68272   0.59841   0.75490   0.00000  Uiso   1.00
C814   C     0.97889   0.49560   0.65904   0.00000  Uiso   1.00
C815   C     0.69750   0.50631   0.89364   0.00000  Uiso   1.00
C816   C     0.96710   0.48560   0.60682   0.00000  Uiso   1.00
C817   C     0.67942   0.54264   0.97415   0.00000  Uiso   1.00
C818   C     0.97457   0.43070   0.53258   0.00000  Uiso   1.00
C819   C     0.99603   0.53327   0.92482   0.00000  Uiso   1.00
C820   C     0.99624   0.44911   0.57928   0.00000  Uiso   1.00
C821   C     0.74587   0.48499   0.91217   0.00000  Uiso   1.00
C822   C     0.91854   0.50534   0.58708   0.00000  Uiso   1.00
C823   C     0.76374   0.49387   0.96138   0.00000  Uiso   1.00
C824   C     0.98655   0.40264   0.75746   0.00000  Uiso   1.00
C825   C     0.89252   0.48312   0.54297   0.00000  Uiso   1.00
C826   C     0.73080   0.52497   0.99218   0.00000  Uiso   1.00
C827   C     0.92224   0.44656   0.51466   0.00000  Uiso   1.00
C828   C     0.81566   0.47615   0.97962   0.00000  Uiso   1.00
C829   C     0.83750   0.49562   0.52693   0.00000  Uiso   1.00
C830   C     0.75475   0.34207   0.77453   0.00000  Uiso   1.00
C831   C     0.93143   0.33407   0.80011   0.00000  Uiso   1.00
C832   C     0.82857   0.45985   0.69321   0.00000  Uiso   1.00
C833   C     0.83914   0.53630   0.80870   0.00000  Uiso   1.00
C834   C     0.80290   0.52552   0.55721   0.00000  Uiso   1.00
C835   C     0.84646   0.43977   0.95212   0.00000  Uiso   1.00
C836   C     0.75021   0.53925   0.54016   0.00000  Uiso   1.00
C837   C     0.89874   0.42525   0.96954   0.00000  Uiso   1.00
C838   C     0.69422   0.65369   0.76892   0.00000  Uiso   1.00
C839   C     0.98306   0.35067   0.77489   0.00000  Uiso   1.00
C840   C     0.68763   0.50366   0.84099   0.00000  Uiso   1.00
H841   H     0.70090   0.43348   0.59445   0.00000  Uiso   1.00
H842   H     0.83035   0.42001   0.91768   0.00000  Uiso   1.00
H843   H     0.76743   0.37432   0.80182   0.00000  Uiso   1.00
H844   H     0.89196   0.35206   0.79282   0.00000  Uiso   1.00
H845   H     0.81841   0.47648   0.65894   0.00000  Uiso   1.00
H846   H     0.85289   0.51828   0.84144   0.00000  Uiso   1.00
H847   H     0.95781   0.54939   0.91073   0.00000  Uiso   1.00
H848   H     0.72514   0.56233   0.56438   0.00000  Uiso   1.00
H849   H     0.92068   0.39688   0.94769   0.00000  Uiso   1.00
H850   H     0.90056   0.53652   0.60839   0.00000  Uiso   1.00
H851   H     0.77115   0.46471   0.88654   0.00000  Uiso   1.00
H852   H     0.98676   0.56540   0.99776   0.00000  Uiso   1.00
H853   H     0.99734   0.40244   0.51140   0.00000  Uiso   1.00
H854   H     0.81452   0.53800   0.59486   0.00000  Uiso   1.00
N855   N     0.81362   0.48550   0.73739   0.00000  Uiso   1.00
N856   N     0.85305   0.51450   0.76260   0.00000  Uiso   1.00
O857   O     0.96386   0.57964   0.75309   0.00000  Uiso   1.00
O858   O     0.93367   0.63601   0.83155   0.00000  Uiso   1.00
O859   O     0.84905   0.41720   0.69301   0.00000  Uiso   1.00
O860   O     0.81533   0.57721   0.81230   0.00000  Uiso   1.00
O861   O     0.70281   0.42036   0.74690   0.00000  Uiso   1.00
O862   O     0.72488   0.57035   0.74501   0.00000  Uiso   1.00
O863   O     0.94178   0.42965   0.75498   0.00000  Uiso   1.00
O864   O     0.96995   0.50730   0.82247   0.00000  Uiso   1.00
O865   O     0.69672   0.49270   0.67753   0.00000  Uiso   1.00
O866   O     0.73098   0.49801   0.81439   0.00000  Uiso   1.00
O867   O     0.93569   0.50199   0.68561   0.00000  Uiso   1.00
O868   O     0.79018   0.65861   0.74800   0.00000  Uiso   1.00
Zn869  Zn    0.93700   0.50621   0.75539   0.00000  Uiso   1.00
Zn870  Zn    0.72967   0.49379   0.74460   0.00000  Uiso   1.00
C871   C     0.01605   0.93174   0.75490   0.00000  Uiso   1.00
C872   C     0.31223   0.82894   0.65904   0.00000  Uiso   1.00
C873   C     0.03083   0.83964   0.89364   0.00000  Uiso   1.00
C874   C     0.30044   0.81893   0.60682   0.00000  Uiso   1.00
C875   C     0.01276   0.87598   0.97415   0.00000  Uiso   1.00
C876   C     0.30790   0.76403   0.53258   0.00000  Uiso   1.00
C877   C     0.32937   0.86660   0.92482   0.00000  Uiso   1.00
C878   C     0.32958   0.78244   0.57928   0.00000  Uiso   1.00
C879   C     0.07921   0.81832   0.91217   0.00000  Uiso   1.00
C880   C     0.25187   0.83867   0.58708   0.00000  Uiso   1.00
C881   C     0.09707   0.82721   0.96138   0.00000  Uiso   1.00
C882   C     0.31989   0.73598   0.75746   0.00000  Uiso   1.00
C883   C     0.22585   0.81646   0.54297   0.00000  Uiso   1.00
C884   C     0.06413   0.85830   0.99218   0.00000  Uiso   1.00
C885   C     0.25557   0.77989   0.51466   0.00000  Uiso   1.00
C886   C     0.14900   0.80948   0.97962   0.00000  Uiso   1.00
C887   C     0.17083   0.82895   0.52693   0.00000  Uiso   1.00
C888   C     0.08809   0.67540   0.77453   0.00000  Uiso   1.00
C889   C     0.26477   0.66740   0.80011   0.00000  Uiso   1.00
C890   C     0.16191   0.79318   0.69321   0.00000  Uiso   1.00
C891   C     0.17247   0.86963   0.80870   0.00000  Uiso   1.00
C892   C     0.13623   0.85885   0.55721   0.00000  Uiso   1.00
C893   C     0.17979   0.77310   0.95212   0.00000  Uiso   1.00
C894   C     0.08354   0.87259   0.54016   0.00000  Uiso   1.00
C895   C     0.23207   0.75859   0.96954   0.00000  Uiso   1.00
C896   C     0.02755   0.98702   0.76892   0.00000  Uiso   1.00
C897   C     0.31640   0.68401   0.77489   0.00000  Uiso   1.00
C898   C     0.02096   0.83699   0.84099   0.00000  Uiso   1.00
H899   H     0.03423   0.76681   0.59445   0.00000  Uiso   1.00
H900   H     0.16368   0.75335   0.91768   0.00000  Uiso   1.00
H901   H     0.10076   0.70765   0.80182   0.00000  Uiso   1.00
H902   H     0.22529   0.68539   0.79282   0.00000  Uiso   1.00
H903   H     0.15174   0.80981   0.65894   0.00000  Uiso   1.00
H904   H     0.18622   0.85162   0.84144   0.00000  Uiso   1.00
H905   H     0.29114   0.88272   0.91073   0.00000  Uiso   1.00
H906   H     0.05847   0.89566   0.56438   0.00000  Uiso   1.00
H907   H     0.25401   0.73022   0.94769   0.00000  Uiso   1.00
H908   H     0.23390   0.86985   0.60839   0.00000  Uiso   1.00
H909   H     0.10448   0.79805   0.88654   0.00000  Uiso   1.00
H910   H     0.32009   0.89873   0.99776   0.00000  Uiso   1.00
H911   H     0.33067   0.73578   0.51140   0.00000  Uiso   1.00
H912   H     0.14785   0.87133   0.59486   0.00000  Uiso   1.00
N913   N     0.14695   0.81883   0.73739   0.00000  Uiso   1.00
N914   N     0.18638   0.84784   0.76260   0.00000  Uiso   1.00
O915   O     0.29719   0.91298   0.75309   0.00000  Uiso   1.00
O916   O     0.26700   0.96935   0.83155   0.00000  Uiso   1.00
O917   O     0.18238   0.75053   0.69301   0.00000  Uiso   1.00
O918   O     0.14866   0.91055   0.81230   0.00000  Uiso   1.00
O919   O     0.03614   0.75369   0.74690   0.00000  Uiso   1.00
O920   O     0.05822   0.90368   0.74501   0.00000  Uiso   1.00
O921   O     0.27512   0.76298   0.75498   0.00000  Uiso   1.00
O922   O     0.30328   0.84063   0.82247   0.00000  Uiso   1.00
O923   O     0.03005   0.82603   0.67753   0.00000  Uiso   1.00
O924   O     0.06431   0.83134   0.81439   0.00000  Uiso   1.00
O925   O     0.26902   0.83533   0.68561   0.00000  Uiso   1.00
O926   O     0.12352   0.99195   0.74800   0.00000  Uiso   1.00
Zn927  Zn    0.27033   0.83954   0.75539   0.00000  Uiso   1.00
Zn928  Zn    0.06300   0.82713   0.74460   0.00000  Uiso   1.00
C929   C     0.34939   0.93174   0.75490   0.00000  Uiso   1.00
C930   C     0.64556   0.82894   0.65904   0.00000  Uiso   1.00
C931   C     0.36417   0.83964   0.89364   0.00000  Uiso   1.00
C932   C     0.63377   0.81893   0.60682   0.00000  Uiso   1.00
C933   C     0.34609   0.87598   0.97415   0.00000  Uiso   1.00
C934   C     0.64123   0.76403   0.53258   0.00000  Uiso   1.00
C935   C     0.66270   0.86660   0.92482   0.00000  Uiso   1.00
C936   C     0.66291   0.78244   0.57928   0.00000  Uiso   1.00
C937   C     0.41254   0.81832   0.91217   0.00000  Uiso   1.00
C938   C     0.58521   0.83867   0.58708   0.00000  Uiso   1.00
C939   C     0.43040   0.82721   0.96138   0.00000  Uiso   1.00
C940   C     0.65322   0.73598   0.75746   0.00000  Uiso   1.00
C941   C     0.55919   0.81646   0.54297   0.00000  Uiso   1.00
C942   C     0.39746   0.85830   0.99218   0.00000  Uiso   1.00
C943   C     0.58890   0.77989   0.51466   0.00000  Uiso   1.00
C944   C     0.48233   0.80948   0.97962   0.00000  Uiso   1.00
C945   C     0.50417   0.82895   0.52693   0.00000  Uiso   1.00
C946   C     0.42142   0.67540   0.77453   0.00000  Uiso   1.00
C947   C     0.59810   0.66740   0.80011   0.00000  Uiso   1.00
C948   C     0.49524   0.79318   0.69321   0.00000  Uiso   1.00
C949   C     0.50580   0.86963   0.80870   0.00000  Uiso   1.00
C950   C     0.46956   0.85885   0.55721   0.00000  Uiso   1.00
C951   C     0.51312   0.77310   0.95212   0.00000  Uiso   1.00
C952   C     0.41687   0.87259   0.54016   0.00000  Uiso   1.00
C953   C     0.56541   0.75859   0.96954   0.00000  Uiso   1.00
C954   C     0.36088   0.98702   0.76892   0.00000  Uiso   1.00
C955   C     0.64973   0.68401   0.77489   0.00000  Uiso   1.00
C956   C     0.35429   0.83699   0.84099   0.00000  Uiso   1.00
H957   H     0.36756   0.76681   0.59445   0.00000  Uiso   1.00
H958   H     0.49701   0.75335   0.91768   0.00000  Uiso   1.00
H959   H     0.43409   0.70765   0.80182   0.00000  Uiso   1.00
H960   H     0.55863   0.68539   0.79282   0.00000  Uiso   1.00
H961   H     0.48507   0.80981   0.65894   0.00000  Uiso   1.00
H962   H     0.51956   0.85162   0.84144   0.00000  Uiso   1.00
H963   H     0.62448   0.88272   0.91073   0.00000  Uiso   1.00
H964   H     0.39181   0.89566   0.56438   0.00000  Uiso   1.00
H965   H     0.58735   0.73022   0.94769   0.00000  Uiso   1.00
H966   H     0.56723   0.86985   0.60839   0.00000  Uiso   1.00
H967   H     0.43781   0.79805   0.88654   0.00000  Uiso   1.00
H968   H     0.65343   0.89873   0.99776   0.00000  Uiso   1.00
H969   H     0.66400   0.73578   0.51140   0.00000  Uiso   1.00
H970   H     0.48119   0.87133   0.59486   0.00000  Uiso   1.00
N971   N     0.48029   0.81883   0.73739   0.00000  Uiso   1.00
N972   N     0.51971   0.84784   0.76260   0.00000  Uiso   1.00
O973   O     0.63052   0.91298   0.75309   0.00000  Uiso   1.00
O974   O     0.60034   0.96935   0.83155   0.00000  Uiso   1.00
O975   O     0.51571   0.75053   0.69301   0.00000  Uiso   1.00
O976   O     0.48200   0.91055   0.81230   0.00000  Uiso   1.00
O977   O     0.36948   0.75369   0.74690   0.00000  Uiso   1.00
O978   O     0.39155   0.90368   0.74501   0.00000  Uiso   1.00
O979   O     0.60845   0.76298   0.75498   0.00000  Uiso   1.00
O980   O     0.63662   0.84063   0.82247   0.00000  Uiso   1.00
O981   O     0.36338   0.82603   0.67753   0.00000  Uiso   1.00
O982   O     0.39764   0.83134   0.81439   0.00000  Uiso   1.00
O983   O     0.60236   0.83533   0.68561   0.00000  Uiso   1.00
O984   O     0.45685   0.99195   0.74800   0.00000  Uiso   1.00
Zn985  Zn    0.60366   0.83954   0.75539   0.00000  Uiso   1.00
Zn986  Zn    0.39634   0.82713   0.74460   0.00000  Uiso   1.00
C987   C     0.68272   0.93174   0.75490   0.00000  Uiso   1.00
C988   C     0.97889   0.82894   0.65904   0.00000  Uiso   1.00
C989   C     0.69750   0.83964   0.89364   0.00000  Uiso   1.00
C990   C     0.96710   0.81893   0.60682   0.00000  Uiso   1.00
C991   C     0.67942   0.87598   0.97415   0.00000  Uiso   1.00
C992   C     0.97457   0.76403   0.53258   0.00000  Uiso   1.00
C993   C     0.99603   0.86660   0.92482   0.00000  Uiso   1.00
C994   C     0.99624   0.78244   0.57928   0.00000  Uiso   1.00
C995   C     0.74587   0.81832   0.91217   0.00000  Uiso   1.00
C996   C     0.91854   0.83867   0.58708   0.00000  Uiso   1.00
C997   C     0.76374   0.82721   0.96138   0.00000  Uiso   1.00
C998   C     0.98655   0.73598   0.75746   0.00000  Uiso   1.00
C999   C     0.89252   0.81646   0.54297   0.00000  Uiso   1.00
C1000  C     0.73080   0.85830   0.99218   0.00000  Uiso   1.00
C1001  C     0.92224   0.77989   0.51466   0.00000  Uiso   1.00
C1002  C     0.81566   0.80948   0.97962   0.00000  Uiso   1.00
C1003  C     0.83750   0.82895   0.52693   0.00000  Uiso   1.00
C1004  C     0.75475   0.67540   0.77453   0.00000  Uiso   1.00
C1005  C     0.93143   0.66740   0.80011   0.00000  Uiso   1.00
C1006  C     0.82857   0.79318   0.69321   0.00000  Uiso   1.00
C1007  C     0.83914   0.86963   0.80870   0.00000  Uiso   1.00
C1008  C     0.80290   0.85885   0.55721   0.00000  Uiso   1.00
C1009  C     0.84646   0.77310   0.95212   0.00000  Uiso   1.00
C1010  C     0.75021   0.87259   0.54016   0.00000  Uiso   1.00
C1011  C     0.89874   0.75859   0.96954   0.00000  Uiso   1.00
C1012  C     0.69422   0.98702   0.76892   0.00000  Uiso   1.00
C1013  C     0.98306   0.68401   0.77489   0.00000  Uiso   1.00
C1014  C     0.68763   0.83699   0.84099   0.00000  Uiso   1.00
H1015  H     0.70090   0.76681   0.59445   0.00000  Uiso   1.00
H1016  H     0.83035   0.75335   0.91768   0.00000  Uiso   1.00
H1017  H     0.76743   0.70765   0.80182   0.00000  Uiso   1.00
H1018  H     0.89196   0.68539   0.79282   0.00000  Uiso   1.00
H1019  H     0.81841   0.80981   0.65894   0.00000  Uiso   1.00
H1020  H     0.85289   0.85162   0.84144   0.00000  Uiso   1.00
H1021  H     0.95781   0.88272   0.91073   0.00000  Uiso   1.00
H1022  H     0.72514   0.89566   0.56438   0.00000  Uiso   1.00
H1023  H     0.92068   0.73022   0.94769   0.00000  Uiso   1.00
H1024  H     0.90056   0.86985   0.60839   0.00000  Uiso   1.00
H1025  H     0.77115   0.79805   0.88654   0.00000  Uiso   1.00
H1026  H     0.98676   0.89873   0.99776   0.00000  Uiso   1.00
H1027  H     0.99734   0.73578   0.51140   0.00000  Uiso   1.00
H1028  H     0.81452   0.87133   0.59486   0.00000  Uiso   1.00
N1029  N     0.81362   0.81883   0.73739   0.00000  Uiso   1.00
N1030  N     0.85305   0.84784   0.76260   0.00000  Uiso   1.00
O1031  O     0.96386   0.91298   0.75309   0.00000  Uiso   1.00
O1032  O     0.93367   0.96935   0.83155   0.00000  Uiso   1.00
O1033  O     0.84905   0.75053   0.69301   0.00000  Uiso   1.00
O1034  O     0.81533   0.91055   0.81230   0.00000  Uiso   1.00
O1035  O     0.70281   0.75369   0.74690   0.00000  Uiso   1.00
O1036  O     0.72488   0.90368   0.74501   0.00000  Uiso   1.00
O1037  O     0.94178   0.76298   0.75498   0.00000  Uiso   1.00
O1038  O     0.96995   0.84063   0.82247   0.00000  Uiso   1.00
O1039  O     0.69672   0.82603   0.67753   0.00000  Uiso   1.00
O1040  O     0.73098   0.83134   0.81439   0.00000  Uiso   1.00
O1041  O     0.93569   0.83533   0.68561   0.00000  Uiso   1.00
O1042  O     0.79018   0.99195   0.74800   0.00000  Uiso   1.00
Zn1043 Zn    0.93700   0.83954   0.75539   0.00000  Uiso   1.00
Zn1044 Zn    0.72967   0.82713   0.74460   0.00000  Uiso   1.00
loop_
_geom_bond_atom_site_label_1
_geom_bond_atom_site_label_2
_geom_bond_distance
_geom_bond_site_symmetry_2
_ccdc_geom_bond_type
C1     O50     1.296   .     A
C1     C26     1.436   .     S
C1     O161    1.292   1_455 S
C2     C4      1.449   .     S
C2     O55     1.303   .     A
C2     O111    1.297   .     S
C3     C9      1.388   .     A
C3     C28     1.450   .     S
C3     C123    1.399   1_455 S
C4     C10     1.386   .     A
C4     C8      1.399   .     A
C5     C14     1.403   .     A
C5     C123    1.391   1_455 S
C5     H156    1.084   1_455 S
C6     C8      1.393   .     A
C6     C15     1.404   .     A
C6     H41     1.084   .     S
C7     H35     1.083   .     S
C7     C61     1.399   .     S
C7     C63     1.391   .     S
C8     H87     1.083   .     S
C9     C11     1.393   .     A
C9     H39     1.076   .     S
C10    C13     1.394   .     A
C10    H38     1.078   .     S
C11    C14     1.419   .     A
C11    C16     1.417   .     A
C12    C27     1.439   .     S
C12    O51     1.304   .     A
C12    O107    1.286   .     S
C13    C17     1.417   .     A
C13    C15     1.419   .     A
C14    C546    1.388   .     S
C15    C547    1.389   1_554 S
C16    C23     1.419   .     A
C16    C539    1.416   .     S
C17    C22     1.419   .     A
C17    C538    1.416   1_554 S
C18    H31     1.086   .     S
C18    C374    1.497   1_545 S
C18    O404    1.221   1_545 S
C19    H32     1.084   .     S
C19    C27     1.491   .     S
C19    O394    1.222   1_545 S
C20    N43     1.412   .     S
C20    O47     1.219   .     D
C20    H33     1.083   .     S
C21    N44     1.412   .     S
C21    O48     1.218   .     D
C21    H34     1.085   .     S
C22    H42     1.076   .     S
C22    C24     1.385   .     A
C23    C25     1.386   .     A
C23    H30     1.077   .     S
C24    H36     1.084   .     S
C24    C536    1.388   1_554 S
C25    H37     1.084   .     S
C25    C537    1.389   .     S
C26    C192    1.497   .     S
C26    C317    1.358   1_455 S
C27    C432    1.358   1_545 S
C28    O54     1.303   .     A
C28    O168    1.297   1_455 S
H29    C124    1.083   1_455 S
H40    C63     1.084   .     S
N43    N44     1.288   .     D
N43    Zn58    2.033   .     S
N44    Zn57    2.033   .     S
O45    Zn57    1.941   .     S
O45    C59     1.292   .     S
O46    C193    1.222   .     S
O49    Zn58    1.941   .     S
O49    C128    1.286   1_455 S
O50    Zn58    1.960   .     S
O51    Zn57    1.960   .     S
O52    Zn57    1.961   .     S
O52    C86     1.297   .     S
O53    Zn58    1.961   .     S
O53    C118    1.297   1_455 S
O54    Zn58    1.914   .     S
O55    Zn57    1.914   .     S
O56    C192    1.221   .     S
C59    O108    1.296   .     A
C59    C84     1.436   .     S
C60    C62     1.449   .     S
C60    O113    1.303   .     A
C60    O169    1.297   .     S
C61    C67     1.388   .     A
C61    C86     1.450   .     S
C62    C68     1.386   .     A
C62    C66     1.399   .     A
C63    C72     1.403   .     A
C64    C66     1.393   .     A
C64    C73     1.404   .     A
C64    H99     1.084   .     S
C65    H93     1.083   .     S
C65    C119    1.399   .     S
C65    C121    1.391   .     S
C66    H145    1.083   .     S
C67    C69     1.393   .     A
C67    H97     1.076   .     S
C68    C71     1.394   .     A
C68    H96     1.078   .     S
C69    C72     1.419   .     A
C69    C74     1.417   .     A
C70    C85     1.439   .     S
C70    O109    1.304   .     A
C70    O165    1.286   .     S
C71    C75     1.417   .     A
C71    C73     1.419   .     A
C72    C604    1.388   .     S
C73    C605    1.389   1_554 S
C74    C81     1.419   .     A
C74    C597    1.416   .     S
C75    C80     1.419   .     A
C75    C596    1.416   1_554 S
C76    H89     1.086   .     S
C76    C432    1.497   1_545 S
C76    O462    1.221   1_545 S
C77    H90     1.084   .     S
C77    C85     1.491   .     S
C77    O452    1.222   1_545 S
C78    N101    1.412   .     S
C78    O105    1.219   .     D
C78    H91     1.083   .     S
C79    N102    1.412   .     S
C79    O106    1.218   .     D
C79    H92     1.085   .     S
C80    H100    1.076   .     S
C80    C82     1.385   .     A
C81    C83     1.386   .     A
C81    H88     1.077   .     S
C82    H94     1.084   .     S
C82    C594    1.388   1_554 S
C83    H95     1.084   .     S
C83    C595    1.389   .     S
C84    C250    1.497   .     S
C84    C201    1.358   .     S
C85    C490    1.358   1_545 S
C86    O112    1.303   .     A
H98    C121    1.084   .     S
N101   N102    1.288   .     D
N101   Zn116   2.033   .     S
N102   Zn115   2.033   .     S
O103   Zn115   1.941   .     S
O103   C117    1.292   .     S
O104   C251    1.222   .     S
O107   Zn116   1.941   .     S
O108   Zn116   1.960   .     S
O109   Zn115   1.960   .     S
O110   Zn115   1.961   .     S
O110   C144    1.297   .     S
O111   Zn116   1.961   .     S
O112   Zn116   1.914   .     S
O113   Zn115   1.914   .     S
O114   C250    1.221   .     S
C117   O166    1.296   .     A
C117   C142    1.436   .     S
C118   C120    1.449   .     S
C118   O171    1.303   .     A
C118   O53     1.297   1_655 S
C119   C125    1.388   .     A
C119   C144    1.450   .     S
C120   C126    1.386   .     A
C120   C124    1.399   .     A
C121   C130    1.403   .     A
C122   C124    1.393   .     A
C122   C131    1.404   .     A
C122   H157    1.084   .     S
C123   H151    1.083   .     S
C123   C3      1.399   1_655 S
C123   C5      1.391   1_655 S
C124   H29     1.083   1_655 S
C125   C127    1.393   .     A
C125   H155    1.076   .     S
C126   C129    1.394   .     A
C126   H154    1.078   .     S
C127   C130    1.419   .     A
C127   C132    1.417   .     A
C128   C143    1.439   .     S
C128   O167    1.304   .     A
C128   O49     1.286   1_655 S
C129   C133    1.417   .     A
C129   C131    1.419   .     A
C130   C662    1.388   .     S
C131   C663    1.389   1_554 S
C132   C139    1.419   .     A
C132   C655    1.416   .     S
C133   C138    1.419   .     A
C133   C654    1.416   1_554 S
C134   H147    1.086   .     S
C134   C490    1.497   1_545 S
C134   O520    1.221   1_545 S
C135   H148    1.084   .     S
C135   C143    1.491   .     S
C135   O510    1.222   1_545 S
C136   N159    1.412   .     S
C136   O163    1.219   .     D
C136   H149    1.083   .     S
C137   N160    1.412   .     S
C137   O164    1.218   .     D
C137   H150    1.085   .     S
C138   H158    1.076   .     S
C138   C140    1.385   .     A
C139   C141    1.386   .     A
C139   H146    1.077   .     S
C140   H152    1.084   .     S
C140   C652    1.388   1_554 S
C141   H153    1.084   .     S
C141   C653    1.389   .     S
C142   C308    1.497   .     S
C142   C259    1.358   .     S
C143   C374    1.358   1_645 S
C144   O170    1.303   .     A
H156   C5      1.084   1_655 S
N159   N160    1.288   .     D
N159   Zn174   2.033   .     S
N160   Zn173   2.033   .     S
O161   Zn173   1.941   .     S
O161   C1      1.292   1_655 S
O162   C309    1.222   .     S
O165   Zn174   1.941   .     S
O166   Zn174   1.960   .     S
O167   Zn173   1.960   .     S
O168   Zn173   1.961   .     S
O168   C28     1.297   1_655 S
O169   Zn174   1.961   .     S
O170   Zn174   1.914   .     S
O171   Zn173   1.914   .     S
O172   C308    1.221   .     S
C175   O224    1.296   .     A
C175   C200    1.436   .     S
C175   O335    1.292   1_455 S
C176   C178    1.449   .     S
C176   O229    1.303   .     A
C176   O285    1.297   .     S
C177   C183    1.388   .     A
C177   C202    1.450   .     S
C177   C297    1.399   1_455 S
C178   C184    1.386   .     A
C178   C182    1.399   .     A
C179   C188    1.403   .     A
C179   C297    1.391   1_455 S
C179   H330    1.084   1_455 S
C180   C182    1.393   .     A
C180   C189    1.404   .     A
C180   H215    1.084   .     S
C181   H209    1.083   .     S
C181   C235    1.399   .     S
C181   C237    1.391   .     S
C182   H261    1.083   .     S
C183   C185    1.393   .     A
C183   H213    1.076   .     S
C184   C187    1.394   .     A
C184   H212    1.078   .     S
C185   C188    1.419   .     A
C185   C190    1.417   .     A
C186   C201    1.439   .     S
C186   O225    1.304   .     A
C186   O281    1.286   .     S
C187   C191    1.417   .     A
C187   C189    1.419   .     A
C188   C720    1.388   .     S
C189   C721    1.389   1_554 S
C190   C197    1.419   .     A
C190   C713    1.416   .     S
C191   C196    1.419   .     A
C191   C712    1.416   1_554 S
C192   H205    1.086   .     S
C193   H206    1.084   .     S
C193   C201    1.491   .     S
C194   N217    1.412   .     S
C194   O221    1.219   .     D
C194   H207    1.083   .     S
C195   N218    1.412   .     S
C195   O222    1.218   .     D
C195   H208    1.085   .     S
C196   H216    1.076   .     S
C196   C198    1.385   .     A
C197   C199    1.386   .     A
C197   H204    1.077   .     S
C198   H210    1.084   .     S
C198   C710    1.388   1_554 S
C199   H211    1.084   .     S
C199   C711    1.389   .     S
C200   C366    1.497   .     S
C200   C491    1.358   1_455 S
C202   O228    1.303   .     A
C202   O342    1.297   1_455 S
H203   C298    1.083   1_455 S
H214   C237    1.084   .     S
N217   N218    1.288   .     D
N217   Zn232   2.033   .     S
N218   Zn231   2.033   .     S
O219   Zn231   1.941   .     S
O219   C233    1.292   .     S
O220   C367    1.222   .     S
O223   Zn232   1.941   .     S
O223   C302    1.286   1_455 S
O224   Zn232   1.960   .     S
O225   Zn231   1.960   .     S
O226   Zn231   1.961   .     S
O226   C260    1.297   .     S
O227   Zn232   1.961   .     S
O227   C292    1.297   1_455 S
O228   Zn232   1.914   .     S
O229   Zn231   1.914   .     S
O230   C366    1.221   .     S
C233   O282    1.296   .     A
C233   C258    1.436   .     S
C234   C236    1.449   .     S
C234   O287    1.303   .     A
C234   O343    1.297   .     S
C235   C241    1.388   .     A
C235   C260    1.450   .     S
C236   C242    1.386   .     A
C236   C240    1.399   .     A
C237   C246    1.403   .     A
C238   C240    1.393   .     A
C238   C247    1.404   .     A
C238   H273    1.084   .     S
C239   H267    1.083   .     S
C239   C293    1.399   .     S
C239   C295    1.391   .     S
C240   H319    1.083   .     S
C241   C243    1.393   .     A
C241   H271    1.076   .     S
C242   C245    1.394   .     A
C242   H270    1.078   .     S
C243   C246    1.419   .     A
C243   C248    1.417   .     A
C244   C259    1.439   .     S
C244   O283    1.304   .     A
C244   O339    1.286   .     S
C245   C249    1.417   .     A
C245   C247    1.419   .     A
C246   C778    1.388   .     S
C247   C779    1.389   1_554 S
C248   C255    1.419   .     A
C248   C771    1.416   .     S
C249   C254    1.419   .     A
C249   C770    1.416   1_554 S
C250   H263    1.086   .     S
C251   H264    1.084   .     S
C251   C259    1.491   .     S
C252   N275    1.412   .     S
C252   O279    1.219   .     D
C252   H265    1.083   .     S
C253   N276    1.412   .     S
C253   O280    1.218   .     D
C253   H266    1.085   .     S
C254   H274    1.076   .     S
C254   C256    1.385   .     A
C255   C257    1.386   .     A
C255   H262    1.077   .     S
C256   H268    1.084   .     S
C256   C768    1.388   1_554 S
C257   H269    1.084   .     S
C257   C769    1.389   .     S
C258   C424    1.497   .     S
C258   C375    1.358   .     S
C260   O286    1.303   .     A
H272   C295    1.084   .     S
N275   N276    1.288   .     D
N275   Zn290   2.033   .     S
N276   Zn289   2.033   .     S
O277   Zn289   1.941   .     S
O277   C291    1.292   .     S
O278   C425    1.222   .     S
O281   Zn290   1.941   .     S
O282   Zn290   1.960   .     S
O283   Zn289   1.960   .     S
O284   Zn289   1.961   .     S
O284   C318    1.297   .     S
O285   Zn290   1.961   .     S
O286   Zn290   1.914   .     S
O287   Zn289   1.914   .     S
O288   C424    1.221   .     S
C291   O340    1.296   .     A
C291   C316    1.436   .     S
C292   C294    1.449   .     S
C292   O345    1.303   .     A
C292   O227    1.297   1_655 S
C293   C299    1.388   .     A
C293   C318    1.450   .     S
C294   C300    1.386   .     A
C294   C298    1.399   .     A
C295   C304    1.403   .     A
C296   C298    1.393   .     A
C296   C305    1.404   .     A
C296   H331    1.084   .     S
C297   H325    1.083   .     S
C297   C177    1.399   1_655 S
C297   C179    1.391   1_655 S
C298   H203    1.083   1_655 S
C299   C301    1.393   .     A
C299   H329    1.076   .     S
C300   C303    1.394   .     A
C300   H328    1.078   .     S
C301   C304    1.419   .     A
C301   C306    1.417   .     A
C302   C317    1.439   .     S
C302   O341    1.304   .     A
C302   O223    1.286   1_655 S
C303   C307    1.417   .     A
C303   C305    1.419   .     A
C304   C836    1.388   .     S
C305   C837    1.389   1_554 S
C306   C313    1.419   .     A
C306   C829    1.416   .     S
C307   C312    1.419   .     A
C307   C828    1.416   1_554 S
C308   H321    1.086   .     S
C309   H322    1.084   .     S
C309   C317    1.491   .     S
C310   N333    1.412   .     S
C310   O337    1.219   .     D
C310   H323    1.083   .     S
C311   N334    1.412   .     S
C311   O338    1.218   .     D
C311   H324    1.085   .     S
C312   H332    1.076   .     S
C312   C314    1.385   .     A
C313   C315    1.386   .     A
C313   H320    1.077   .     S
C314   H326    1.084   .     S
C314   C826    1.388   1_554 S
C315   H327    1.084   .     S
C315   C827    1.389   .     S
C316   C482    1.497   .     S
C316   C433    1.358   .     S
C317   C26     1.358   1_655 S
C318   O344    1.303   .     A
H330   C179    1.084   1_655 S
N333   N334    1.288   .     D
N333   Zn348   2.033   .     S
N334   Zn347   2.033   .     S
O335   Zn347   1.941   .     S
O335   C175    1.292   1_655 S
O336   C483    1.222   .     S
O339   Zn348   1.941   .     S
O340   Zn348   1.960   .     S
O341   Zn347   1.960   .     S
O342   Zn347   1.961   .     S
O342   C202    1.297   1_655 S
O343   Zn348   1.961   .     S
O344   Zn348   1.914   .     S
O345   Zn347   1.914   .     S
O346   C482    1.221   .     S
C349   O398    1.296   .     A
C349   C374    1.436   .     S
C349   O509    1.292   1_455 S
C350   C352    1.449   .     S
C350   O403    1.303   .     A
C350   O459    1.297   .     S
C351   C357    1.388   .     A
C351   C376    1.450   .     S
C351   C471    1.399   1_455 S
C352   C358    1.386   .     A
C352   C356    1.399   .     A
C353   C362    1.403   .     A
C353   C471    1.391   1_455 S
C353   H504    1.084   1_455 S
C354   C356    1.393   .     A
C354   C363    1.404   .     A
C354   H389    1.084   .     S
C355   H383    1.083   .     S
C355   C409    1.399   .     S
C355   C411    1.391   .     S
C356   H435    1.083   .     S
C357   C359    1.393   .     A
C357   H387    1.076   .     S
C358   C361    1.394   .     A
C358   H386    1.078   .     S
C359   C362    1.419   .     A
C359   C364    1.417   .     A
C360   C375    1.439   .     S
C360   O399    1.304   .     A
C360   O455    1.286   .     S
C361   C365    1.417   .     A
C361   C363    1.419   .     A
C362   C894    1.388   .     S
C363   C895    1.389   1_554 S
C364   C371    1.419   .     A
C364   C887    1.416   .     S
C365   C370    1.419   .     A
C365   C886    1.416   1_554 S
C366   H379    1.086   .     S
C367   H380    1.084   .     S
C367   C375    1.491   .     S
C368   N391    1.412   .     S
C368   O395    1.219   .     D
C368   H381    1.083   .     S
C369   N392    1.412   .     S
C369   O396    1.218   .     D
C369   H382    1.085   .     S
C370   H390    1.076   .     S
C370   C372    1.385   .     A
C371   C373    1.386   .     A
C371   H378    1.077   .     S
C372   H384    1.084   .     S
C372   C884    1.388   1_554 S
C373   H385    1.084   .     S
C373   C885    1.389   .     S
C374   C18     1.497   1_565 S
C374   C143    1.358   1_465 S
C376   O402    1.303   .     A
C376   O516    1.297   1_455 S
H377   C472    1.083   1_455 S
H388   C411    1.084   .     S
N391   N392    1.288   .     D
N391   Zn406   2.033   .     S
N392   Zn405   2.033   .     S
O393   Zn405   1.941   .     S
O393   C407    1.292   .     S
O394   C19     1.222   1_565 S
O397   Zn406   1.941   .     S
O397   C476    1.286   1_455 S
O398   Zn406   1.960   .     S
O399   Zn405   1.960   .     S
O400   Zn405   1.961   .     S
O400   C434    1.297   .     S
O401   Zn406   1.961   .     S
O401   C466    1.297   1_455 S
O402   Zn406   1.914   .     S
O403   Zn405   1.914   .     S
O404   C18     1.221   1_565 S
C407   O456    1.296   .     A
C407   C432    1.436   .     S
C408   C410    1.449   .     S
C408   O461    1.303   .     A
C408   O517    1.297   .     S
C409   C415    1.388   .     A
C409   C434    1.450   .     S
C410   C416    1.386   .     A
C410   C414    1.399   .     A
C411   C420    1.403   .     A
C412   C414    1.393   .     A
C412   C421    1.404   .     A
C412   H447    1.084   .     S
C413   H441    1.083   .     S
C413   C467    1.399   .     S
C413   C469    1.391   .     S
C414   H493    1.083   .     S
C415   C417    1.393   .     A
C415   H445    1.076   .     S
C416   C419    1.394   .     A
C416   H444    1.078   .     S
C417   C420    1.419   .     A
C417   C422    1.417   .     A
C418   C433    1.439   .     S
C418   O457    1.304   .     A
C418   O513    1.286   .     S
C419   C423    1.417   .     A
C419   C421    1.419   .     A
C420   C952    1.388   .     S
C421   C953    1.389   1_554 S
C422   C429    1.419   .     A
C422   C945    1.416   .     S
C423   C428    1.419   .     A
C423   C944    1.416   1_554 S
C424   H437    1.086   .     S
C425   H438    1.084   .     S
C425   C433    1.491   .     S
C426   N449    1.412   .     S
C426   O453    1.219   .     D
C426   H439    1.083   .     S
C427   N450    1.412   .     S
C427   O454    1.218   .     D
C427   H440    1.085   .     S
C428   H448    1.076   .     S
C428   C430    1.385   .     A
C429   C431    1.386   .     A
C429   H436    1.077   .     S
C430   H442    1.084   .     S
C430   C942    1.388   1_554 S
C431   H443    1.084   .     S
C431   C943    1.389   .     S
C432   C76     1.497   1_565 S
C432   C27     1.358   1_565 S
C434   O460    1.303   .     A
H446   C469    1.084   .     S
N449   N450    1.288   .     D
N449   Zn464   2.033   .     S
N450   Zn463   2.033   .     S
O451   Zn463   1.941   .     S
O451   C465    1.292   .     S
O452   C77     1.222   1_565 S
O455   Zn464   1.941   .     S
O456   Zn464   1.960   .     S
O457   Zn463   1.960   .     S
O458   Zn463   1.961   .     S
O458   C492    1.297   .     S
O459   Zn464   1.961   .     S
O460   Zn464   1.914   .     S
O461   Zn463   1.914   .     S
O462   C76     1.221   1_565 S
C465   O514    1.296   .     A
C465   C490    1.436   .     S
C466   C468    1.449   .     S
C466   O519    1.303   .     A
C466   O401    1.297   1_655 S
C467   C473    1.388   .     A
C467   C492    1.450   .     S
C468   C474    1.386   .     A
C468   C472    1.399   .     A
C469   C478    1.403   .     A
C470   C472    1.393   .     A
C470   C479    1.404   .     A
C470   H505    1.084   .     S
C471   H499    1.083   .     S
C471   C351    1.399   1_655 S
C471   C353    1.391   1_655 S
C472   H377    1.083   1_655 S
C473   C475    1.393   .     A
C473   H503    1.076   .     S
C474   C477    1.394   .     A
C474   H502    1.078   .     S
C475   C478    1.419   .     A
C475   C480    1.417   .     A
C476   C491    1.439   .     S
C476   O515    1.304   .     A
C476   O397    1.286   1_655 S
C477   C481    1.417   .     A
C477   C479    1.419   .     A
C478   C1010   1.388   .     S
C479   C1011   1.389   1_554 S
C480   C487    1.419   .     A
C480   C1003   1.416   .     S
C481   C486    1.419   .     A
C481   C1002   1.416   1_554 S
C482   H495    1.086   .     S
C483   H496    1.084   .     S
C483   C491    1.491   .     S
C484   N507    1.412   .     S
C484   O511    1.219   .     D
C484   H497    1.083   .     S
C485   N508    1.412   .     S
C485   O512    1.218   .     D
C485   H498    1.085   .     S
C486   H506    1.076   .     S
C486   C488    1.385   .     A
C487   C489    1.386   .     A
C487   H494    1.077   .     S
C488   H500    1.084   .     S
C488   C1000   1.388   1_554 S
C489   H501    1.084   .     S
C489   C1001   1.389   .     S
C490   C134    1.497   1_565 S
C490   C85     1.358   1_565 S
C491   C200    1.358   1_655 S
C492   O518    1.303   .     A
H504   C353    1.084   1_655 S
N507   N508    1.288   .     D
N507   Zn522   2.033   .     S
N508   Zn521   2.033   .     S
O509   Zn521   1.941   .     S
O509   C349    1.292   1_655 S
O510   C135    1.222   1_565 S
O513   Zn522   1.941   .     S
O514   Zn522   1.960   .     S
O515   Zn521   1.960   .     S
O516   Zn521   1.961   .     S
O516   C376    1.297   1_655 S
O517   Zn522   1.961   .     S
O518   Zn522   1.914   .     S
O519   Zn521   1.914   .     S
O520   C134    1.221   1_565 S
C523   O572    1.296   .     A
C523   C548    1.436   .     S
C523   O683    1.292   1_455 S
C524   C526    1.449   .     S
C524   O577    1.303   .     A
C524   O633    1.297   .     S
C525   C531    1.388   .     A
C525   C550    1.450   .     S
C525   C645    1.399   1_455 S
C526   C532    1.386   .     A
C526   C530    1.399   .     A
C527   C536    1.403   .     A
C527   C645    1.391   1_455 S
C527   H678    1.084   1_455 S
C528   C530    1.393   .     A
C528   C537    1.404   .     A
C528   H563    1.084   .     S
C529   H557    1.083   .     S
C529   C583    1.399   .     S
C529   C585    1.391   .     S
C530   H609    1.083   .     S
C531   C533    1.393   .     A
C531   H561    1.076   .     S
C532   C535    1.394   .     A
C532   H560    1.078   .     S
C533   C536    1.419   .     A
C533   C538    1.417   .     A
C534   C549    1.439   .     S
C534   O573    1.304   .     A
C534   O629    1.286   .     S
C535   C539    1.417   .     A
C535   C537    1.419   .     A
C536   C24     1.388   1_556 S
C538   C545    1.419   .     A
C538   C17     1.416   1_556 S
C539   C544    1.419   .     A
C540   H553    1.086   .     S
C540   C896    1.497   1_545 S
C540   O926    1.221   1_545 S
C541   H554    1.084   .     S
C541   C549    1.491   .     S
C541   O916    1.222   1_545 S
C542   N565    1.412   .     S
C542   O569    1.219   .     D
C542   H555    1.083   .     S
C543   N566    1.412   .     S
C543   O570    1.218   .     D
C543   H556    1.085   .     S
C544   H564    1.076   .     S
C544   C546    1.385   .     A
C545   C547    1.386   .     A
C545   H552    1.077   .     S
C546   H558    1.084   .     S
C547   H559    1.084   .     S
C547   C15     1.389   1_556 S
C548   C714    1.497   .     S
C548   C839    1.358   1_455 S
C549   C954    1.358   1_545 S
C550   O576    1.303   .     A
C550   O690    1.297   1_455 S
H551   C646    1.083   1_455 S
H562   C585    1.084   .     S
N565   N566    1.288   .     D
N565   Zn580   2.033   .     S
N566   Zn579   2.033   .     S
O567   Zn579   1.941   .     S
O567   C581    1.292   .     S
O568   C715    1.222   .     S
O571   Zn580   1.941   .     S
O571   C650    1.286   1_455 S
O572   Zn580   1.960   .     S
O573   Zn579   1.960   .     S
O574   Zn579   1.961   .     S
O574   C608    1.297   .     S
O575   Zn580   1.961   .     S
O575   C640    1.297   1_455 S
O576   Zn580   1.914   .     S
O577   Zn579   1.914   .     S
O578   C714    1.221   .     S
C581   O630    1.296   .     A
C581   C606    1.436   .     S
C582   C584    1.449   .     S
C582   O635    1.303   .     A
C582   O691    1.297   .     S
C583   C589    1.388   .     A
C583   C608    1.450   .     S
C584   C590    1.386   .     A
C584   C588    1.399   .     A
C585   C594    1.403   .     A
C586   C588    1.393   .     A
C586   C595    1.404   .     A
C586   H621    1.084   .     S
C587   H615    1.083   .     S
C587   C641    1.399   .     S
C587   C643    1.391   .     S
C588   H667    1.083   .     S
C589   C591    1.393   .     A
C589   H619    1.076   .     S
C590   C593    1.394   .     A
C590   H618    1.078   .     S
C591   C594    1.419   .     A
C591   C596    1.417   .     A
C592   C607    1.439   .     S
C592   O631    1.304   .     A
C592   O687    1.286   .     S
C593   C597    1.417   .     A
C593   C595    1.419   .     A
C594   C82     1.388   1_556 S
C596   C603    1.419   .     A
C596   C75     1.416   1_556 S
C597   C602    1.419   .     A
C598   H611    1.086   .     S
C598   C954    1.497   1_545 S
C598   O984    1.221   1_545 S
C599   H612    1.084   .     S
C599   C607    1.491   .     S
C599   O974    1.222   1_545 S
C600   N623    1.412   .     S
C600   O627    1.219   .     D
C600   H613    1.083   .     S
C601   N624    1.412   .     S
C601   O628    1.218   .     D
C601   H614    1.085   .     S
C602   H622    1.076   .     S
C602   C604    1.385   .     A
C603   C605    1.386   .     A
C603   H610    1.077   .     S
C604   H616    1.084   .     S
C605   H617    1.084   .     S
C605   C73     1.389   1_556 S
C606   C772    1.497   .     S
C606   C723    1.358   .     S
C607   C1012   1.358   1_545 S
C608   O634    1.303   .     A
H620   C643    1.084   .     S
N623   N624    1.288   .     D
N623   Zn638   2.033   .     S
N624   Zn637   2.033   .     S
O625   Zn637   1.941   .     S
O625   C639    1.292   .     S
O626   C773    1.222   .     S
O629   Zn638   1.941   .     S
O630   Zn638   1.960   .     S
O631   Zn637   1.960   .     S
O632   Zn637   1.961   .     S
O632   C666    1.297   .     S
O633   Zn638   1.961   .     S
O634   Zn638   1.914   .     S
O635   Zn637   1.914   .     S
O636   C772    1.221   .     S
C639   O688    1.296   .     A
C639   C664    1.436   .     S
C640   C642    1.449   .     S
C640   O693    1.303   .     A
C640   O575    1.297   1_655 S
C641   C647    1.388   .     A
C641   C666    1.450   .     S
C642   C648    1.386   .     A
C642   C646    1.399   .     A
C643   C652    1.403   .     A
C644   C646    1.393   .     A
C644   C653    1.404   .     A
C644   H679    1.084   .     S
C645   H673    1.083   .     S
C645   C525    1.399   1_655 S
C645   C527    1.391   1_655 S
C646   H551    1.083   1_655 S
C647   C649    1.393   .     A
C647   H677    1.076   .     S
C648   C651    1.394   .     A
C648   H676    1.078   .     S
C649   C652    1.419   .     A
C649   C654    1.417   .     A
C650   C665    1.439   .     S
C650   O689    1.304   .     A
C650   O571    1.286   1_655 S
C651   C655    1.417   .     A
C651   C653    1.419   .     A
C652   C140    1.388   1_556 S
C654   C661    1.419   .     A
C654   C133    1.416   1_556 S
C655   C660    1.419   .     A
C656   H669    1.086   .     S
C656   C1012   1.497   1_545 S
C656   O1042   1.221   1_545 S
C657   H670    1.084   .     S
C657   C665    1.491   .     S
C657   O1032   1.222   1_545 S
C658   N681    1.412   .     S
C658   O685    1.219   .     D
C658   H671    1.083   .     S
C659   N682    1.412   .     S
C659   O686    1.218   .     D
C659   H672    1.085   .     S
C660   H680    1.076   .     S
C660   C662    1.385   .     A
C661   C663    1.386   .     A
C661   H668    1.077   .     S
C662   H674    1.084   .     S
C663   H675    1.084   .     S
C663   C131    1.389   1_556 S
C664   C830    1.497   .     S
C664   C781    1.358   .     S
C665   C896    1.358   1_645 S
C666   O692    1.303   .     A
H678   C527    1.084   1_655 S
N681   N682    1.288   .     D
N681   Zn696   2.033   .     S
N682   Zn695   2.033   .     S
O683   Zn695   1.941   .     S
O683   C523    1.292   1_655 S
O684   C831    1.222   .     S
O687   Zn696   1.941   .     S
O688   Zn696   1.960   .     S
O689   Zn695   1.960   .     S
O690   Zn695   1.961   .     S
O690   C550    1.297   1_655 S
O691   Zn696   1.961   .     S
O692   Zn696   1.914   .     S
O693   Zn695   1.914   .     S
O694   C830    1.221   .     S
C697   O746    1.296   .     A
C697   C722    1.436   .     S
C697   O857    1.292   1_455 S
C698   C700    1.449   .     S
C698   O751    1.303   .     A
C698   O807    1.297   .     S
C699   C705    1.388   .     A
C699   C724    1.450   .     S
C699   C819    1.399   1_455 S
C700   C706    1.386   .     A
C700   C704    1.399   .     A
C701   C710    1.403   .     A
C701   C819    1.391   1_455 S
C701   H852    1.084   1_455 S
C702   C704    1.393   .     A
C702   C711    1.404   .     A
C702   H737    1.084   .     S
C703   H731    1.083   .     S
C703   C757    1.399   .     S
C703   C759    1.391   .     S
C704   H783    1.083   .     S
C705   C707    1.393   .     A
C705   H735    1.076   .     S
C706   C709    1.394   .     A
C706   H734    1.078   .     S
C707   C710    1.419   .     A
C707   C712    1.417   .     A
C708   C723    1.439   .     S
C708   O747    1.304   .     A
C708   O803    1.286   .     S
C709   C713    1.417   .     A
C709   C711    1.419   .     A
C710   C198    1.388   1_556 S
C712   C719    1.419   .     A
C712   C191    1.416   1_556 S
C713   C718    1.419   .     A
C714   H727    1.086   .     S
C715   H728    1.084   .     S
C715   C723    1.491   .     S
C716   N739    1.412   .     S
C716   O743    1.219   .     D
C716   H729    1.083   .     S
C717   N740    1.412   .     S
C717   O744    1.218   .     D
C717   H730    1.085   .     S
C718   H738    1.076   .     S
C718   C720    1.385   .     A
C719   C721    1.386   .     A
C719   H726    1.077   .     S
C720   H732    1.084   .     S
C721   H733    1.084   .     S
C721   C189    1.389   1_556 S
C722   C888    1.497   .     S
C722   C1013   1.358   1_455 S
C724   O750    1.303   .     A
C724   O864    1.297   1_455 S
H725   C820    1.083   1_455 S
H736   C759    1.084   .     S
N739   N740    1.288   .     D
N739   Zn754   2.033   .     S
N740   Zn753   2.033   .     S
O741   Zn753   1.941   .     S
O741   C755    1.292   .     S
O742   C889    1.222   .     S
O745   Zn754   1.941   .     S
O745   C824    1.286   1_455 S
O746   Zn754   1.960   .     S
O747   Zn753   1.960   .     S
O748   Zn753   1.961   .     S
O748   C782    1.297   .     S
O749   Zn754   1.961   .     S
O749   C814    1.297   1_455 S
O750   Zn754   1.914   .     S
O751   Zn753   1.914   .     S
O752   C888    1.221   .     S
C755   O804    1.296   .     A
C755   C780    1.436   .     S
C756   C758    1.449   .     S
C756   O809    1.303   .     A
C756   O865    1.297   .     S
C757   C763    1.388   .     A
C757   C782    1.450   .     S
C758   C764    1.386   .     A
C758   C762    1.399   .     A
C759   C768    1.403   .     A
C760   C762    1.393   .     A
C760   C769    1.404   .     A
C760   H795    1.084   .     S
C761   H789    1.083   .     S
C761   C815    1.399   .     S
C761   C817    1.391   .     S
C762   H841    1.083   .     S
C763   C765    1.393   .     A
C763   H793    1.076   .     S
C764   C767    1.394   .     A
C764   H792    1.078   .     S
C765   C768    1.419   .     A
C765   C770    1.417   .     A
C766   C781    1.439   .     S
C766   O805    1.304   .     A
C766   O861    1.286   .     S
C767   C771    1.417   .     A
C767   C769    1.419   .     A
C768   C256    1.388   1_556 S
C770   C777    1.419   .     A
C770   C249    1.416   1_556 S
C771   C776    1.419   .     A
C772   H785    1.086   .     S
C773   H786    1.084   .     S
C773   C781    1.491   .     S
C774   N797    1.412   .     S
C774   O801    1.219   .     D
C774   H787    1.083   .     S
C775   N798    1.412   .     S
C775   O802    1.218   .     D
C775   H788    1.085   .     S
C776   H796    1.076   .     S
C776   C778    1.385   .     A
C777   C779    1.386   .     A
C777   H784    1.077   .     S
C778   H790    1.084   .     S
C779   H791    1.084   .     S
C779   C247    1.389   1_556 S
C780   C946    1.497   .     S
C780   C897    1.358   .     S
C782   O808    1.303   .     A
H794   C817    1.084   .     S
N797   N798    1.288   .     D
N797   Zn812   2.033   .     S
N798   Zn811   2.033   .     S
O799   Zn811   1.941   .     S
O799   C813    1.292   .     S
O800   C947    1.222   .     S
O803   Zn812   1.941   .     S
O804   Zn812   1.960   .     S
O805   Zn811   1.960   .     S
O806   Zn811   1.961   .     S
O806   C840    1.297   .     S
O807   Zn812   1.961   .     S
O808   Zn812   1.914   .     S
O809   Zn811   1.914   .     S
O810   C946    1.221   .     S
C813   O862    1.296   .     A
C813   C838    1.436   .     S
C814   C816    1.449   .     S
C814   O867    1.303   .     A
C814   O749    1.297   1_655 S
C815   C821    1.388   .     A
C815   C840    1.450   .     S
C816   C822    1.386   .     A
C816   C820    1.399   .     A
C817   C826    1.403   .     A
C818   C820    1.393   .     A
C818   C827    1.404   .     A
C818   H853    1.084   .     S
C819   H847    1.083   .     S
C819   C699    1.399   1_655 S
C819   C701    1.391   1_655 S
C820   H725    1.083   1_655 S
C821   C823    1.393   .     A
C821   H851    1.076   .     S
C822   C825    1.394   .     A
C822   H850    1.078   .     S
C823   C826    1.419   .     A
C823   C828    1.417   .     A
C824   C839    1.439   .     S
C824   O863    1.304   .     A
C824   O745    1.286   1_655 S
C825   C829    1.417   .     A
C825   C827    1.419   .     A
C826   C314    1.388   1_556 S
C828   C835    1.419   .     A
C828   C307    1.416   1_556 S
C829   C834    1.419   .     A
C830   H843    1.086   .     S
C831   H844    1.084   .     S
C831   C839    1.491   .     S
C832   N855    1.412   .     S
C832   O859    1.219   .     D
C832   H845    1.083   .     S
C833   N856    1.412   .     S
C833   O860    1.218   .     D
C833   H846    1.085   .     S
C834   H854    1.076   .     S
C834   C836    1.385   .     A
C835   C837    1.386   .     A
C835   H842    1.077   .     S
C836   H848    1.084   .     S
C837   H849    1.084   .     S
C837   C305    1.389   1_556 S
C838   C1004   1.497   .     S
C838   C955    1.358   .     S
C839   C548    1.358   1_655 S
C840   O866    1.303   .     A
H852   C701    1.084   1_655 S
N855   N856    1.288   .     D
N855   Zn870   2.033   .     S
N856   Zn869   2.033   .     S
O857   Zn869   1.941   .     S
O857   C697    1.292   1_655 S
O858   C1005   1.222   .     S
O861   Zn870   1.941   .     S
O862   Zn870   1.960   .     S
O863   Zn869   1.960   .     S
O864   Zn869   1.961   .     S
O864   C724    1.297   1_655 S
O865   Zn870   1.961   .     S
O866   Zn870   1.914   .     S
O867   Zn869   1.914   .     S
O868   C1004   1.221   .     S
C871   O920    1.296   .     A
C871   C896    1.436   .     S
C871   O1031   1.292   1_455 S
C872   C874    1.449   .     S
C872   O925    1.303   .     A
C872   O981    1.297   .     S
C873   C879    1.388   .     A
C873   C898    1.450   .     S
C873   C993    1.399   1_455 S
C874   C880    1.386   .     A
C874   C878    1.399   .     A
C875   C884    1.403   .     A
C875   C993    1.391   1_455 S
C875   H1026   1.084   1_455 S
C876   C878    1.393   .     A
C876   C885    1.404   .     A
C876   H911    1.084   .     S
C877   H905    1.083   .     S
C877   C931    1.399   .     S
C877   C933    1.391   .     S
C878   H957    1.083   .     S
C879   C881    1.393   .     A
C879   H909    1.076   .     S
C880   C883    1.394   .     A
C880   H908    1.078   .     S
C881   C884    1.419   .     A
C881   C886    1.417   .     A
C882   C897    1.439   .     S
C882   O921    1.304   .     A
C882   O977    1.286   .     S
C883   C887    1.417   .     A
C883   C885    1.419   .     A
C884   C372    1.388   1_556 S
C886   C893    1.419   .     A
C886   C365    1.416   1_556 S
C887   C892    1.419   .     A
C888   H901    1.086   .     S
C889   H902    1.084   .     S
C889   C897    1.491   .     S
C890   N913    1.412   .     S
C890   O917    1.219   .     D
C890   H903    1.083   .     S
C891   N914    1.412   .     S
C891   O918    1.218   .     D
C891   H904    1.085   .     S
C892   H912    1.076   .     S
C892   C894    1.385   .     A
C893   C895    1.386   .     A
C893   H900    1.077   .     S
C894   H906    1.084   .     S
C895   H907    1.084   .     S
C895   C363    1.389   1_556 S
C896   C540    1.497   1_565 S
C896   C665    1.358   1_465 S
C898   O924    1.303   .     A
C898   O1038   1.297   1_455 S
H899   C994    1.083   1_455 S
H910   C933    1.084   .     S
N913   N914    1.288   .     D
N913   Zn928   2.033   .     S
N914   Zn927   2.033   .     S
O915   Zn927   1.941   .     S
O915   C929    1.292   .     S
O916   C541    1.222   1_565 S
O919   Zn928   1.941   .     S
O919   C998    1.286   1_455 S
O920   Zn928   1.960   .     S
O921   Zn927   1.960   .     S
O922   Zn927   1.961   .     S
O922   C956    1.297   .     S
O923   Zn928   1.961   .     S
O923   C988    1.297   1_455 S
O924   Zn928   1.914   .     S
O925   Zn927   1.914   .     S
O926   C540    1.221   1_565 S
C929   O978    1.296   .     A
C929   C954    1.436   .     S
C930   C932    1.449   .     S
C930   O983    1.303   .     A
C930   O1039   1.297   .     S
C931   C937    1.388   .     A
C931   C956    1.450   .     S
C932   C938    1.386   .     A
C932   C936    1.399   .     A
C933   C942    1.403   .     A
C934   C936    1.393   .     A
C934   C943    1.404   .     A
C934   H969    1.084   .     S
C935   H963    1.083   .     S
C935   C989    1.399   .     S
C935   C991    1.391   .     S
C936   H1015   1.083   .     S
C937   C939    1.393   .     A
C937   H967    1.076   .     S
C938   C941    1.394   .     A
C938   H966    1.078   .     S
C939   C942    1.419   .     A
C939   C944    1.417   .     A
C940   C955    1.439   .     S
C940   O979    1.304   .     A
C940   O1035   1.286   .     S
C941   C945    1.417   .     A
C941   C943    1.419   .     A
C942   C430    1.388   1_556 S
C944   C951    1.419   .     A
C944   C423    1.416   1_556 S
C945   C950    1.419   .     A
C946   H959    1.086   .     S
C947   H960    1.084   .     S
C947   C955    1.491   .     S
C948   N971    1.412   .     S
C948   O975    1.219   .     D
C948   H961    1.083   .     S
C949   N972    1.412   .     S
C949   O976    1.218   .     D
C949   H962    1.085   .     S
C950   H970    1.076   .     S
C950   C952    1.385   .     A
C951   C953    1.386   .     A
C951   H958    1.077   .     S
C952   H964    1.084   .     S
C953   H965    1.084   .     S
C953   C421    1.389   1_556 S
C954   C598    1.497   1_565 S
C954   C549    1.358   1_565 S
C956   O982    1.303   .     A
H968   C991    1.084   .     S
N971   N972    1.288   .     D
N971   Zn986   2.033   .     S
N972   Zn985   2.033   .     S
O973   Zn985   1.941   .     S
O973   C987    1.292   .     S
O974   C599    1.222   1_565 S
O977   Zn986   1.941   .     S
O978   Zn986   1.960   .     S
O979   Zn985   1.960   .     S
O980   Zn985   1.961   .     S
O980   C1014   1.297   .     S
O981   Zn986   1.961   .     S
O982   Zn986   1.914   .     S
O983   Zn985   1.914   .     S
O984   C598    1.221   1_565 S
C987   O1036   1.296   .     A
C987   C1012   1.436   .     S
C988   C990    1.449   .     S
C988   O1041   1.303   .     A
C988   O923    1.297   1_655 S
C989   C995    1.388   .     A
C989   C1014   1.450   .     S
C990   C996    1.386   .     A
C990   C994    1.399   .     A
C991   C1000   1.403   .     A
C992   C994    1.393   .     A
C992   C1001   1.404   .     A
C992   H1027   1.084   .     S
C993   H1021   1.083   .     S
C993   C873    1.399   1_655 S
C993   C875    1.391   1_655 S
C994   H899    1.083   1_655 S
C995   C997    1.393   .     A
C995   H1025   1.076   .     S
C996   C999    1.394   .     A
C996   H1024   1.078   .     S
C997   C1000   1.419   .     A
C997   C1002   1.417   .     A
C998   C1013   1.439   .     S
C998   O1037   1.304   .     A
C998   O919    1.286   1_655 S
C999   C1003   1.417   .     A
C999   C1001   1.419   .     A
C1000  C488    1.388   1_556 S
C1002  C1009   1.419   .     A
C1002  C481    1.416   1_556 S
C1003  C1008   1.419   .     A
C1004  H1017   1.086   .     S
C1005  H1018   1.084   .     S
C1005  C1013   1.491   .     S
C1006  N1029   1.412   .     S
C1006  O1033   1.219   .     D
C1006  H1019   1.083   .     S
C1007  N1030   1.412   .     S
C1007  O1034   1.218   .     D
C1007  H1020   1.085   .     S
C1008  H1028   1.076   .     S
C1008  C1010   1.385   .     A
C1009  C1011   1.386   .     A
C1009  H1016   1.077   .     S
C1010  H1022   1.084   .     S
C1011  H1023   1.084   .     S
C1011  C479    1.389   1_556 S
C1012  C656    1.497   1_565 S
C1012  C607    1.358   1_565 S
C1013  C722    1.358   1_655 S
C1014  O1040   1.303   .     A
H1026  C875    1.084   1_655 S
N1029  N1030   1.288   .     D
N1029  Zn1044  2.033   .     S
N1030  Zn1043  2.033   .     S
O1031  Zn1043  1.941   .     S
O1031  C871    1.292   1_655 S
O1032  C657    1.222   1_565 S
O1035  Zn1044  1.941   .     S
O1036  Zn1044  1.960   .     S
O1037  Zn1043  1.960   .     S
O1038  Zn1043  1.961   .     S
O1038  C898    1.297   1_655 S
O1039  Zn1044  1.961   .     S
O1040  Zn1044  1.914   .     S
O1041  Zn1043  1.914   .     S
O1042  C656    1.221   1_565 S
