data_str_m3_o10_o18_pcu_sym.10
_audit_creation_date              2020-01-03
_audit_creation_method            'Materials Studio'
_symmetry_space_group_name_H-M    'P1'
_symmetry_Int_Tables_number       1
_symmetry_cell_setting            triclinic
loop_
_symmetry_equiv_pos_as_xyz
  x,y,z
_cell_length_a                    23.5458
_cell_length_b                    25.7058
_cell_length_c                    27.5627
_cell_angle_alpha                 93.4554
_cell_angle_beta                  93.1421
_cell_angle_gamma                 94.2349
loop_
_atom_site_label
_atom_site_type_symbol
_atom_site_fract_x
_atom_site_fract_y
_atom_site_fract_z
_atom_site_U_iso_or_equiv
_atom_site_adp_type
_atom_site_occupancy
C1     C     0.01505   0.26488   0.24878   0.00000  Uiso   1.00
C2     C     0.31232   0.16262   0.15906   0.00000  Uiso   1.00
C3     C     0.03198   0.17913   0.39323   0.00000  Uiso   1.00
C4     C     0.30155   0.15557   0.10684   0.00000  Uiso   1.00
C5     C     0.02035   0.22684   0.46966   0.00000  Uiso   1.00
C6     C     0.31211   0.10871   0.02992   0.00000  Uiso   1.00
C7     C     0.00209   0.21394   0.42119   0.00000  Uiso   1.00
C8     C     0.33087   0.12081   0.07836   0.00000  Uiso   1.00
C9     C     0.07899   0.15745   0.41368   0.00000  Uiso   1.00
C10    C     0.25519   0.17857   0.08687   0.00000  Uiso   1.00
C11    C     0.10381   0.17724   0.45866   0.00000  Uiso   1.00
C12    C     0.31828   0.06845   0.25120   0.00000  Uiso   1.00
C13    C     0.22963   0.15972   0.04193   0.00000  Uiso   1.00
C14    C     0.07123   0.20854   0.48859   0.00000  Uiso   1.00
C15    C     0.26150   0.12798   0.01153   0.00000  Uiso   1.00
C16    C     0.15884   0.16469   0.47518   0.00000  Uiso   1.00
C17    C     0.17483   0.17356   0.02565   0.00000  Uiso   1.00
C18    C     0.13743   0.19023   0.11077   0.00000  Uiso   1.00
C19    C     0.19917   0.15245   0.39072   0.00000  Uiso   1.00
C20    C     0.13537   0.19582   0.05743   0.00000  Uiso   1.00
C21    C     0.19852   0.14343   0.44323   0.00000  Uiso   1.00
C22    C     0.08756   0.21788   0.03762   0.00000  Uiso   1.00
C23    C     0.24526   0.11978   0.46242   0.00000  Uiso   1.00
C24    C     0.02285   0.31947   0.24804   0.00000  Uiso   1.00
C25    C     0.31048   0.01386   0.25190   0.00000  Uiso   1.00
C26    C     0.02107   0.17096   0.34098   0.00000  Uiso   1.00
H27    H     0.05941   0.23753   0.06130   0.00000  Uiso   1.00
H28    H     0.26743   0.33001   0.25559   0.00000  Uiso   1.00
H29    H     0.16227   0.12372   0.21487   0.00000  Uiso   1.00
H30    H     0.17101   0.21020   0.28438   0.00000  Uiso   1.00
H31    H     0.15572   0.15676   0.12586   0.00000  Uiso   1.00
H32    H     0.21558   0.12382   0.36563   0.00000  Uiso   1.00
H33    H     0.27311   0.10045   0.43819   0.00000  Uiso   1.00
H34    H     0.23899   0.21058   0.10768   0.00000  Uiso   1.00
H35    H     0.09701   0.12627   0.39302   0.00000  Uiso   1.00
H36    H     0.03426   0.10302   0.09350   0.00000  Uiso   1.00
H37    H     0.29865   0.23128   0.40562   0.00000  Uiso   1.00
H38    H     0.32881   0.25164   0.49196   0.00000  Uiso   1.00
H39    H     0.00314   0.08390   0.00716   0.00000  Uiso   1.00
H40    H     0.06589   0.00331   0.24435   0.00000  Uiso   1.00
N41    N     0.14695   0.15216   0.23739   0.00000  Uiso   1.00
N42    N     0.18638   0.18117   0.26260   0.00000  Uiso   1.00
O43    O     0.29719   0.24631   0.25309   0.00000  Uiso   1.00
O44    O     0.18448   0.19337   0.37560   0.00000  Uiso   1.00
O45    O     0.03614   0.08702   0.24691   0.00000  Uiso   1.00
O46    O     0.05822   0.23702   0.24501   0.00000  Uiso   1.00
O47    O     0.27512   0.09632   0.25498   0.00000  Uiso   1.00
O48    O     0.30328   0.17397   0.32247   0.00000  Uiso   1.00
O49    O     0.03005   0.15937   0.17753   0.00000  Uiso   1.00
O50    O     0.06431   0.16467   0.31439   0.00000  Uiso   1.00
O51    O     0.26902   0.16866   0.18561   0.00000  Uiso   1.00
O52    O     0.11882   0.22298   0.13833   0.00000  Uiso   1.00
Zn53   Zn    0.27033   0.17287   0.25539   0.00000  Uiso   1.00
Zn54   Zn    0.06300   0.16046   0.24460   0.00000  Uiso   1.00
C55    C     0.34838   0.26488   0.24878   0.00000  Uiso   1.00
C56    C     0.64565   0.16262   0.15906   0.00000  Uiso   1.00
C57    C     0.36532   0.17913   0.39323   0.00000  Uiso   1.00
C58    C     0.63488   0.15557   0.10684   0.00000  Uiso   1.00
C59    C     0.35368   0.22684   0.46966   0.00000  Uiso   1.00
C60    C     0.64544   0.10871   0.02992   0.00000  Uiso   1.00
C61    C     0.33542   0.21394   0.42119   0.00000  Uiso   1.00
C62    C     0.66420   0.12081   0.07836   0.00000  Uiso   1.00
C63    C     0.41232   0.15745   0.41368   0.00000  Uiso   1.00
C64    C     0.58852   0.17857   0.08687   0.00000  Uiso   1.00
C65    C     0.43714   0.17724   0.45866   0.00000  Uiso   1.00
C66    C     0.65162   0.06845   0.25120   0.00000  Uiso   1.00
C67    C     0.56296   0.15972   0.04193   0.00000  Uiso   1.00
C68    C     0.40456   0.20854   0.48859   0.00000  Uiso   1.00
C69    C     0.59484   0.12798   0.01153   0.00000  Uiso   1.00
C70    C     0.49217   0.16469   0.47518   0.00000  Uiso   1.00
C71    C     0.50816   0.17356   0.02565   0.00000  Uiso   1.00
C72    C     0.47076   0.19023   0.11077   0.00000  Uiso   1.00
C73    C     0.53250   0.15245   0.39072   0.00000  Uiso   1.00
C74    C     0.46871   0.19582   0.05743   0.00000  Uiso   1.00
C75    C     0.53185   0.14343   0.44323   0.00000  Uiso   1.00
C76    C     0.42089   0.21788   0.03762   0.00000  Uiso   1.00
C77    C     0.57860   0.11978   0.46242   0.00000  Uiso   1.00
C78    C     0.35618   0.31947   0.24804   0.00000  Uiso   1.00
C79    C     0.64381   0.01386   0.25190   0.00000  Uiso   1.00
C80    C     0.35441   0.17096   0.34098   0.00000  Uiso   1.00
H81    H     0.39274   0.23753   0.06130   0.00000  Uiso   1.00
H82    H     0.60077   0.33001   0.25559   0.00000  Uiso   1.00
H83    H     0.49561   0.12372   0.21487   0.00000  Uiso   1.00
H84    H     0.50435   0.21020   0.28438   0.00000  Uiso   1.00
H85    H     0.48905   0.15676   0.12586   0.00000  Uiso   1.00
H86    H     0.54892   0.12382   0.36563   0.00000  Uiso   1.00
H87    H     0.60644   0.10045   0.43819   0.00000  Uiso   1.00
H88    H     0.57232   0.21058   0.10768   0.00000  Uiso   1.00
H89    H     0.43034   0.12627   0.39302   0.00000  Uiso   1.00
H90    H     0.36759   0.10302   0.09350   0.00000  Uiso   1.00
H91    H     0.63199   0.23128   0.40562   0.00000  Uiso   1.00
H92    H     0.66214   0.25164   0.49196   0.00000  Uiso   1.00
H93    H     0.33648   0.08390   0.00716   0.00000  Uiso   1.00
H94    H     0.39922   0.00331   0.24435   0.00000  Uiso   1.00
N95    N     0.48029   0.15216   0.23739   0.00000  Uiso   1.00
N96    N     0.51971   0.18117   0.26260   0.00000  Uiso   1.00
O97    O     0.63052   0.24631   0.25309   0.00000  Uiso   1.00
O98    O     0.51782   0.19337   0.37560   0.00000  Uiso   1.00
O99    O     0.36948   0.08702   0.24691   0.00000  Uiso   1.00
O100   O     0.39155   0.23702   0.24501   0.00000  Uiso   1.00
O101   O     0.60845   0.09632   0.25498   0.00000  Uiso   1.00
O102   O     0.63662   0.17397   0.32247   0.00000  Uiso   1.00
O103   O     0.36338   0.15937   0.17753   0.00000  Uiso   1.00
O104   O     0.39764   0.16467   0.31439   0.00000  Uiso   1.00
O105   O     0.60236   0.16866   0.18561   0.00000  Uiso   1.00
O106   O     0.45216   0.22298   0.13833   0.00000  Uiso   1.00
Zn107  Zn    0.60366   0.17287   0.25539   0.00000  Uiso   1.00
Zn108  Zn    0.39634   0.16046   0.24460   0.00000  Uiso   1.00
C109   C     0.68171   0.26488   0.24878   0.00000  Uiso   1.00
C110   C     0.97898   0.16262   0.15906   0.00000  Uiso   1.00
C111   C     0.69865   0.17913   0.39323   0.00000  Uiso   1.00
C112   C     0.96822   0.15557   0.10684   0.00000  Uiso   1.00
C113   C     0.68702   0.22684   0.46966   0.00000  Uiso   1.00
C114   C     0.97878   0.10871   0.02992   0.00000  Uiso   1.00
C115   C     0.66875   0.21394   0.42119   0.00000  Uiso   1.00
C116   C     0.99754   0.12081   0.07836   0.00000  Uiso   1.00
C117   C     0.74566   0.15745   0.41368   0.00000  Uiso   1.00
C118   C     0.92186   0.17857   0.08687   0.00000  Uiso   1.00
C119   C     0.77048   0.17724   0.45866   0.00000  Uiso   1.00
C120   C     0.98495   0.06845   0.25120   0.00000  Uiso   1.00
C121   C     0.89629   0.15972   0.04193   0.00000  Uiso   1.00
C122   C     0.73789   0.20854   0.48859   0.00000  Uiso   1.00
C123   C     0.92817   0.12798   0.01153   0.00000  Uiso   1.00
C124   C     0.82551   0.16469   0.47518   0.00000  Uiso   1.00
C125   C     0.84150   0.17356   0.02565   0.00000  Uiso   1.00
C126   C     0.80410   0.19023   0.11077   0.00000  Uiso   1.00
C127   C     0.86583   0.15245   0.39072   0.00000  Uiso   1.00
C128   C     0.80204   0.19582   0.05743   0.00000  Uiso   1.00
C129   C     0.86518   0.14343   0.44323   0.00000  Uiso   1.00
C130   C     0.75423   0.21788   0.03762   0.00000  Uiso   1.00
C131   C     0.91193   0.11978   0.46242   0.00000  Uiso   1.00
C132   C     0.68951   0.31947   0.24804   0.00000  Uiso   1.00
C133   C     0.97714   0.01386   0.25190   0.00000  Uiso   1.00
C134   C     0.68774   0.17096   0.34098   0.00000  Uiso   1.00
H135   H     0.72607   0.23753   0.06130   0.00000  Uiso   1.00
H136   H     0.93410   0.33001   0.25559   0.00000  Uiso   1.00
H137   H     0.82894   0.12372   0.21487   0.00000  Uiso   1.00
H138   H     0.83768   0.21020   0.28438   0.00000  Uiso   1.00
H139   H     0.82239   0.15676   0.12586   0.00000  Uiso   1.00
H140   H     0.88225   0.12382   0.36563   0.00000  Uiso   1.00
H141   H     0.93977   0.10045   0.43819   0.00000  Uiso   1.00
H142   H     0.90566   0.21058   0.10768   0.00000  Uiso   1.00
H143   H     0.76367   0.12627   0.39302   0.00000  Uiso   1.00
H144   H     0.70093   0.10302   0.09350   0.00000  Uiso   1.00
H145   H     0.96532   0.23128   0.40562   0.00000  Uiso   1.00
H146   H     0.99547   0.25164   0.49196   0.00000  Uiso   1.00
H147   H     0.66981   0.08390   0.00716   0.00000  Uiso   1.00
H148   H     0.73256   0.00331   0.24435   0.00000  Uiso   1.00
N149   N     0.81362   0.15216   0.23739   0.00000  Uiso   1.00
N150   N     0.85305   0.18117   0.26260   0.00000  Uiso   1.00
O151   O     0.96386   0.24631   0.25309   0.00000  Uiso   1.00
O152   O     0.85115   0.19337   0.37560   0.00000  Uiso   1.00
O153   O     0.70281   0.08702   0.24691   0.00000  Uiso   1.00
O154   O     0.72488   0.23702   0.24501   0.00000  Uiso   1.00
O155   O     0.94178   0.09632   0.25498   0.00000  Uiso   1.00
O156   O     0.96995   0.17397   0.32247   0.00000  Uiso   1.00
O157   O     0.69672   0.15937   0.17753   0.00000  Uiso   1.00
O158   O     0.73098   0.16467   0.31439   0.00000  Uiso   1.00
O159   O     0.93569   0.16866   0.18561   0.00000  Uiso   1.00
O160   O     0.78549   0.22298   0.13833   0.00000  Uiso   1.00
Zn161  Zn    0.93700   0.17287   0.25539   0.00000  Uiso   1.00
Zn162  Zn    0.72967   0.16046   0.24460   0.00000  Uiso   1.00
C163   C     0.01505   0.59821   0.24878   0.00000  Uiso   1.00
C164   C     0.31232   0.49595   0.15906   0.00000  Uiso   1.00
C165   C     0.03198   0.51247   0.39323   0.00000  Uiso   1.00
C166   C     0.30155   0.48890   0.10684   0.00000  Uiso   1.00
C167   C     0.02035   0.56017   0.46966   0.00000  Uiso   1.00
C168   C     0.31211   0.44204   0.02992   0.00000  Uiso   1.00
C169   C     0.00209   0.54727   0.42119   0.00000  Uiso   1.00
C170   C     0.33087   0.45414   0.07836   0.00000  Uiso   1.00
C171   C     0.07899   0.49078   0.41368   0.00000  Uiso   1.00
C172   C     0.25519   0.51190   0.08687   0.00000  Uiso   1.00
C173   C     0.10381   0.51058   0.45866   0.00000  Uiso   1.00
C174   C     0.31828   0.40179   0.25120   0.00000  Uiso   1.00
C175   C     0.22963   0.49305   0.04193   0.00000  Uiso   1.00
C176   C     0.07123   0.54188   0.48859   0.00000  Uiso   1.00
C177   C     0.26150   0.46131   0.01153   0.00000  Uiso   1.00
C178   C     0.15884   0.49802   0.47518   0.00000  Uiso   1.00
C179   C     0.17483   0.50689   0.02565   0.00000  Uiso   1.00
C180   C     0.13743   0.52356   0.11077   0.00000  Uiso   1.00
C181   C     0.19917   0.48578   0.39072   0.00000  Uiso   1.00
C182   C     0.13537   0.52915   0.05743   0.00000  Uiso   1.00
C183   C     0.19852   0.47676   0.44323   0.00000  Uiso   1.00
C184   C     0.08756   0.55122   0.03762   0.00000  Uiso   1.00
C185   C     0.24526   0.45311   0.46242   0.00000  Uiso   1.00
C186   C     0.02285   0.65280   0.24804   0.00000  Uiso   1.00
C187   C     0.31048   0.34719   0.25190   0.00000  Uiso   1.00
C188   C     0.02107   0.50429   0.34098   0.00000  Uiso   1.00
H189   H     0.05941   0.57086   0.06130   0.00000  Uiso   1.00
H190   H     0.26743   0.66335   0.25559   0.00000  Uiso   1.00
H191   H     0.16227   0.45705   0.21487   0.00000  Uiso   1.00
H192   H     0.17101   0.54354   0.28438   0.00000  Uiso   1.00
H193   H     0.15572   0.49009   0.12586   0.00000  Uiso   1.00
H194   H     0.21558   0.45715   0.36563   0.00000  Uiso   1.00
H195   H     0.27311   0.43379   0.43819   0.00000  Uiso   1.00
H196   H     0.23899   0.54391   0.10768   0.00000  Uiso   1.00
H197   H     0.09701   0.45960   0.39302   0.00000  Uiso   1.00
H198   H     0.03426   0.43635   0.09350   0.00000  Uiso   1.00
H199   H     0.29865   0.56461   0.40562   0.00000  Uiso   1.00
H200   H     0.32881   0.58497   0.49196   0.00000  Uiso   1.00
H201   H     0.00314   0.41723   0.00716   0.00000  Uiso   1.00
H202   H     0.06589   0.33664   0.24435   0.00000  Uiso   1.00
N203   N     0.14695   0.48550   0.23739   0.00000  Uiso   1.00
N204   N     0.18638   0.51450   0.26260   0.00000  Uiso   1.00
O205   O     0.29719   0.57964   0.25309   0.00000  Uiso   1.00
O206   O     0.18448   0.52670   0.37560   0.00000  Uiso   1.00
O207   O     0.03614   0.42036   0.24691   0.00000  Uiso   1.00
O208   O     0.05822   0.57035   0.24501   0.00000  Uiso   1.00
O209   O     0.27512   0.42965   0.25498   0.00000  Uiso   1.00
O210   O     0.30328   0.50730   0.32247   0.00000  Uiso   1.00
O211   O     0.03005   0.49270   0.17753   0.00000  Uiso   1.00
O212   O     0.06431   0.49801   0.31439   0.00000  Uiso   1.00
O213   O     0.26902   0.50199   0.18561   0.00000  Uiso   1.00
O214   O     0.11882   0.55631   0.13833   0.00000  Uiso   1.00
Zn215  Zn    0.27033   0.50621   0.25539   0.00000  Uiso   1.00
Zn216  Zn    0.06300   0.49379   0.24460   0.00000  Uiso   1.00
C217   C     0.34838   0.59821   0.24878   0.00000  Uiso   1.00
C218   C     0.64565   0.49595   0.15906   0.00000  Uiso   1.00
C219   C     0.36532   0.51247   0.39323   0.00000  Uiso   1.00
C220   C     0.63488   0.48890   0.10684   0.00000  Uiso   1.00
C221   C     0.35368   0.56017   0.46966   0.00000  Uiso   1.00
C222   C     0.64544   0.44204   0.02992   0.00000  Uiso   1.00
C223   C     0.33542   0.54727   0.42119   0.00000  Uiso   1.00
C224   C     0.66420   0.45414   0.07836   0.00000  Uiso   1.00
C225   C     0.41232   0.49078   0.41368   0.00000  Uiso   1.00
C226   C     0.58852   0.51190   0.08687   0.00000  Uiso   1.00
C227   C     0.43714   0.51058   0.45866   0.00000  Uiso   1.00
C228   C     0.65162   0.40179   0.25120   0.00000  Uiso   1.00
C229   C     0.56296   0.49305   0.04193   0.00000  Uiso   1.00
C230   C     0.40456   0.54188   0.48859   0.00000  Uiso   1.00
C231   C     0.59484   0.46131   0.01153   0.00000  Uiso   1.00
C232   C     0.49217   0.49802   0.47518   0.00000  Uiso   1.00
C233   C     0.50816   0.50689   0.02565   0.00000  Uiso   1.00
C234   C     0.47076   0.52356   0.11077   0.00000  Uiso   1.00
C235   C     0.53250   0.48578   0.39072   0.00000  Uiso   1.00
C236   C     0.46871   0.52915   0.05743   0.00000  Uiso   1.00
C237   C     0.53185   0.47676   0.44323   0.00000  Uiso   1.00
C238   C     0.42089   0.55122   0.03762   0.00000  Uiso   1.00
C239   C     0.57860   0.45311   0.46242   0.00000  Uiso   1.00
C240   C     0.35618   0.65280   0.24804   0.00000  Uiso   1.00
C241   C     0.64381   0.34719   0.25190   0.00000  Uiso   1.00
C242   C     0.35441   0.50429   0.34098   0.00000  Uiso   1.00
H243   H     0.39274   0.57086   0.06130   0.00000  Uiso   1.00
H244   H     0.60077   0.66335   0.25559   0.00000  Uiso   1.00
H245   H     0.49561   0.45705   0.21487   0.00000  Uiso   1.00
H246   H     0.50435   0.54354   0.28438   0.00000  Uiso   1.00
H247   H     0.48905   0.49009   0.12586   0.00000  Uiso   1.00
H248   H     0.54892   0.45715   0.36563   0.00000  Uiso   1.00
H249   H     0.60644   0.43379   0.43819   0.00000  Uiso   1.00
H250   H     0.57232   0.54391   0.10768   0.00000  Uiso   1.00
H251   H     0.43034   0.45960   0.39302   0.00000  Uiso   1.00
H252   H     0.36759   0.43635   0.09350   0.00000  Uiso   1.00
H253   H     0.63199   0.56461   0.40562   0.00000  Uiso   1.00
H254   H     0.66214   0.58497   0.49196   0.00000  Uiso   1.00
H255   H     0.33648   0.41723   0.00716   0.00000  Uiso   1.00
H256   H     0.39922   0.33664   0.24435   0.00000  Uiso   1.00
N257   N     0.48029   0.48550   0.23739   0.00000  Uiso   1.00
N258   N     0.51971   0.51450   0.26260   0.00000  Uiso   1.00
O259   O     0.63052   0.57964   0.25309   0.00000  Uiso   1.00
O260   O     0.51782   0.52670   0.37560   0.00000  Uiso   1.00
O261   O     0.36948   0.42036   0.24691   0.00000  Uiso   1.00
O262   O     0.39155   0.57035   0.24501   0.00000  Uiso   1.00
O263   O     0.60845   0.42965   0.25498   0.00000  Uiso   1.00
O264   O     0.63662   0.50730   0.32247   0.00000  Uiso   1.00
O265   O     0.36338   0.49270   0.17753   0.00000  Uiso   1.00
O266   O     0.39764   0.49801   0.31439   0.00000  Uiso   1.00
O267   O     0.60236   0.50199   0.18561   0.00000  Uiso   1.00
O268   O     0.45216   0.55631   0.13833   0.00000  Uiso   1.00
Zn269  Zn    0.60366   0.50621   0.25539   0.00000  Uiso   1.00
Zn270  Zn    0.39634   0.49379   0.24460   0.00000  Uiso   1.00
C271   C     0.68171   0.59821   0.24878   0.00000  Uiso   1.00
C272   C     0.97898   0.49595   0.15906   0.00000  Uiso   1.00
C273   C     0.69865   0.51247   0.39323   0.00000  Uiso   1.00
C274   C     0.96822   0.48890   0.10684   0.00000  Uiso   1.00
C275   C     0.68702   0.56017   0.46966   0.00000  Uiso   1.00
C276   C     0.97878   0.44204   0.02992   0.00000  Uiso   1.00
C277   C     0.66875   0.54727   0.42119   0.00000  Uiso   1.00
C278   C     0.99754   0.45414   0.07836   0.00000  Uiso   1.00
C279   C     0.74566   0.49078   0.41368   0.00000  Uiso   1.00
C280   C     0.92186   0.51190   0.08687   0.00000  Uiso   1.00
C281   C     0.77048   0.51058   0.45866   0.00000  Uiso   1.00
C282   C     0.98495   0.40179   0.25120   0.00000  Uiso   1.00
C283   C     0.89629   0.49305   0.04193   0.00000  Uiso   1.00
C284   C     0.73789   0.54188   0.48859   0.00000  Uiso   1.00
C285   C     0.92817   0.46131   0.01153   0.00000  Uiso   1.00
C286   C     0.82551   0.49802   0.47518   0.00000  Uiso   1.00
C287   C     0.84150   0.50689   0.02565   0.00000  Uiso   1.00
C288   C     0.80410   0.52356   0.11077   0.00000  Uiso   1.00
C289   C     0.86583   0.48578   0.39072   0.00000  Uiso   1.00
C290   C     0.80204   0.52915   0.05743   0.00000  Uiso   1.00
C291   C     0.86518   0.47676   0.44323   0.00000  Uiso   1.00
C292   C     0.75423   0.55122   0.03762   0.00000  Uiso   1.00
C293   C     0.91193   0.45311   0.46242   0.00000  Uiso   1.00
C294   C     0.68951   0.65280   0.24804   0.00000  Uiso   1.00
C295   C     0.97714   0.34719   0.25190   0.00000  Uiso   1.00
C296   C     0.68774   0.50429   0.34098   0.00000  Uiso   1.00
H297   H     0.72607   0.57086   0.06130   0.00000  Uiso   1.00
H298   H     0.93410   0.66335   0.25559   0.00000  Uiso   1.00
H299   H     0.82894   0.45705   0.21487   0.00000  Uiso   1.00
H300   H     0.83768   0.54354   0.28438   0.00000  Uiso   1.00
H301   H     0.82239   0.49009   0.12586   0.00000  Uiso   1.00
H302   H     0.88225   0.45715   0.36563   0.00000  Uiso   1.00
H303   H     0.93977   0.43379   0.43819   0.00000  Uiso   1.00
H304   H     0.90566   0.54391   0.10768   0.00000  Uiso   1.00
H305   H     0.76367   0.45960   0.39302   0.00000  Uiso   1.00
H306   H     0.70093   0.43635   0.09350   0.00000  Uiso   1.00
H307   H     0.96532   0.56461   0.40562   0.00000  Uiso   1.00
H308   H     0.99547   0.58497   0.49196   0.00000  Uiso   1.00
H309   H     0.66981   0.41723   0.00716   0.00000  Uiso   1.00
H310   H     0.73256   0.33664   0.24435   0.00000  Uiso   1.00
N311   N     0.81362   0.48550   0.23739   0.00000  Uiso   1.00
N312   N     0.85305   0.51450   0.26260   0.00000  Uiso   1.00
O313   O     0.96386   0.57964   0.25309   0.00000  Uiso   1.00
O314   O     0.85115   0.52670   0.37560   0.00000  Uiso   1.00
O315   O     0.70281   0.42036   0.24691   0.00000  Uiso   1.00
O316   O     0.72488   0.57035   0.24501   0.00000  Uiso   1.00
O317   O     0.94178   0.42965   0.25498   0.00000  Uiso   1.00
O318   O     0.96995   0.50730   0.32247   0.00000  Uiso   1.00
O319   O     0.69672   0.49270   0.17753   0.00000  Uiso   1.00
O320   O     0.73098   0.49801   0.31439   0.00000  Uiso   1.00
O321   O     0.93569   0.50199   0.18561   0.00000  Uiso   1.00
O322   O     0.78549   0.55631   0.13833   0.00000  Uiso   1.00
Zn323  Zn    0.93700   0.50621   0.25539   0.00000  Uiso   1.00
Zn324  Zn    0.72967   0.49379   0.24460   0.00000  Uiso   1.00
C325   C     0.01505   0.93154   0.24878   0.00000  Uiso   1.00
C326   C     0.31232   0.82928   0.15906   0.00000  Uiso   1.00
C327   C     0.03198   0.84580   0.39323   0.00000  Uiso   1.00
C328   C     0.30155   0.82223   0.10684   0.00000  Uiso   1.00
C329   C     0.02035   0.89351   0.46966   0.00000  Uiso   1.00
C330   C     0.31211   0.77538   0.02992   0.00000  Uiso   1.00
C331   C     0.00209   0.88061   0.42119   0.00000  Uiso   1.00
C332   C     0.33087   0.78748   0.07836   0.00000  Uiso   1.00
C333   C     0.07899   0.82411   0.41368   0.00000  Uiso   1.00
C334   C     0.25519   0.84523   0.08687   0.00000  Uiso   1.00
C335   C     0.10381   0.84391   0.45866   0.00000  Uiso   1.00
C336   C     0.31828   0.73512   0.25120   0.00000  Uiso   1.00
C337   C     0.22963   0.82638   0.04193   0.00000  Uiso   1.00
C338   C     0.07123   0.87521   0.48859   0.00000  Uiso   1.00
C339   C     0.26150   0.79464   0.01153   0.00000  Uiso   1.00
C340   C     0.15884   0.83135   0.47518   0.00000  Uiso   1.00
C341   C     0.17483   0.84023   0.02565   0.00000  Uiso   1.00
C342   C     0.13743   0.85689   0.11077   0.00000  Uiso   1.00
C343   C     0.19917   0.81912   0.39072   0.00000  Uiso   1.00
C344   C     0.13537   0.86248   0.05743   0.00000  Uiso   1.00
C345   C     0.19852   0.81009   0.44323   0.00000  Uiso   1.00
C346   C     0.08756   0.88455   0.03762   0.00000  Uiso   1.00
C347   C     0.24526   0.78644   0.46242   0.00000  Uiso   1.00
C348   C     0.02285   0.98613   0.24804   0.00000  Uiso   1.00
C349   C     0.31048   0.68053   0.25190   0.00000  Uiso   1.00
C350   C     0.02107   0.83762   0.34098   0.00000  Uiso   1.00
H351   H     0.05941   0.90419   0.06130   0.00000  Uiso   1.00
H352   H     0.26743   0.99668   0.25559   0.00000  Uiso   1.00
H353   H     0.16227   0.79038   0.21487   0.00000  Uiso   1.00
H354   H     0.17101   0.87687   0.28438   0.00000  Uiso   1.00
H355   H     0.15572   0.82343   0.12586   0.00000  Uiso   1.00
H356   H     0.21558   0.79049   0.36563   0.00000  Uiso   1.00
H357   H     0.27311   0.76712   0.43819   0.00000  Uiso   1.00
H358   H     0.23899   0.87725   0.10768   0.00000  Uiso   1.00
H359   H     0.09701   0.79294   0.39302   0.00000  Uiso   1.00
H360   H     0.03426   0.76968   0.09350   0.00000  Uiso   1.00
H361   H     0.29865   0.89795   0.40562   0.00000  Uiso   1.00
H362   H     0.32881   0.91830   0.49196   0.00000  Uiso   1.00
H363   H     0.00314   0.75057   0.00716   0.00000  Uiso   1.00
H364   H     0.06589   0.66998   0.24435   0.00000  Uiso   1.00
N365   N     0.14695   0.81883   0.23739   0.00000  Uiso   1.00
N366   N     0.18638   0.84784   0.26260   0.00000  Uiso   1.00
O367   O     0.29719   0.91298   0.25309   0.00000  Uiso   1.00
O368   O     0.18448   0.86004   0.37560   0.00000  Uiso   1.00
O369   O     0.03614   0.75369   0.24691   0.00000  Uiso   1.00
O370   O     0.05822   0.90368   0.24501   0.00000  Uiso   1.00
O371   O     0.27512   0.76298   0.25498   0.00000  Uiso   1.00
O372   O     0.30328   0.84063   0.32247   0.00000  Uiso   1.00
O373   O     0.03005   0.82603   0.17753   0.00000  Uiso   1.00
O374   O     0.06431   0.83134   0.31439   0.00000  Uiso   1.00
O375   O     0.26902   0.83533   0.18561   0.00000  Uiso   1.00
O376   O     0.11882   0.88964   0.13833   0.00000  Uiso   1.00
Zn377  Zn    0.27033   0.83954   0.25539   0.00000  Uiso   1.00
Zn378  Zn    0.06300   0.82713   0.24460   0.00000  Uiso   1.00
C379   C     0.34838   0.93154   0.24878   0.00000  Uiso   1.00
C380   C     0.64565   0.82928   0.15906   0.00000  Uiso   1.00
C381   C     0.36532   0.84580   0.39323   0.00000  Uiso   1.00
C382   C     0.63488   0.82223   0.10684   0.00000  Uiso   1.00
C383   C     0.35368   0.89351   0.46966   0.00000  Uiso   1.00
C384   C     0.64544   0.77538   0.02992   0.00000  Uiso   1.00
C385   C     0.33542   0.88061   0.42119   0.00000  Uiso   1.00
C386   C     0.66420   0.78748   0.07836   0.00000  Uiso   1.00
C387   C     0.41232   0.82411   0.41368   0.00000  Uiso   1.00
C388   C     0.58852   0.84523   0.08687   0.00000  Uiso   1.00
C389   C     0.43714   0.84391   0.45866   0.00000  Uiso   1.00
C390   C     0.65162   0.73512   0.25120   0.00000  Uiso   1.00
C391   C     0.56296   0.82638   0.04193   0.00000  Uiso   1.00
C392   C     0.40456   0.87521   0.48859   0.00000  Uiso   1.00
C393   C     0.59484   0.79464   0.01153   0.00000  Uiso   1.00
C394   C     0.49217   0.83135   0.47518   0.00000  Uiso   1.00
C395   C     0.50816   0.84023   0.02565   0.00000  Uiso   1.00
C396   C     0.47076   0.85689   0.11077   0.00000  Uiso   1.00
C397   C     0.53250   0.81912   0.39072   0.00000  Uiso   1.00
C398   C     0.46871   0.86248   0.05743   0.00000  Uiso   1.00
C399   C     0.53185   0.81009   0.44323   0.00000  Uiso   1.00
C400   C     0.42089   0.88455   0.03762   0.00000  Uiso   1.00
C401   C     0.57860   0.78644   0.46242   0.00000  Uiso   1.00
C402   C     0.35618   0.98613   0.24804   0.00000  Uiso   1.00
C403   C     0.64381   0.68053   0.25190   0.00000  Uiso   1.00
C404   C     0.35441   0.83762   0.34098   0.00000  Uiso   1.00
H405   H     0.39274   0.90419   0.06130   0.00000  Uiso   1.00
H406   H     0.60077   0.99668   0.25559   0.00000  Uiso   1.00
H407   H     0.49561   0.79038   0.21487   0.00000  Uiso   1.00
H408   H     0.50435   0.87687   0.28438   0.00000  Uiso   1.00
H409   H     0.48905   0.82343   0.12586   0.00000  Uiso   1.00
H410   H     0.54892   0.79049   0.36563   0.00000  Uiso   1.00
H411   H     0.60644   0.76712   0.43819   0.00000  Uiso   1.00
H412   H     0.57232   0.87725   0.10768   0.00000  Uiso   1.00
H413   H     0.43034   0.79294   0.39302   0.00000  Uiso   1.00
H414   H     0.36759   0.76968   0.09350   0.00000  Uiso   1.00
H415   H     0.63199   0.89795   0.40562   0.00000  Uiso   1.00
H416   H     0.66214   0.91830   0.49196   0.00000  Uiso   1.00
H417   H     0.33648   0.75057   0.00716   0.00000  Uiso   1.00
H418   H     0.39922   0.66998   0.24435   0.00000  Uiso   1.00
N419   N     0.48029   0.81883   0.23739   0.00000  Uiso   1.00
N420   N     0.51971   0.84784   0.26260   0.00000  Uiso   1.00
O421   O     0.63052   0.91298   0.25309   0.00000  Uiso   1.00
O422   O     0.51782   0.86004   0.37560   0.00000  Uiso   1.00
O423   O     0.36948   0.75369   0.24691   0.00000  Uiso   1.00
O424   O     0.39155   0.90368   0.24501   0.00000  Uiso   1.00
O425   O     0.60845   0.76298   0.25498   0.00000  Uiso   1.00
O426   O     0.63662   0.84063   0.32247   0.00000  Uiso   1.00
O427   O     0.36338   0.82603   0.17753   0.00000  Uiso   1.00
O428   O     0.39764   0.83134   0.31439   0.00000  Uiso   1.00
O429   O     0.60236   0.83533   0.18561   0.00000  Uiso   1.00
O430   O     0.45216   0.88964   0.13833   0.00000  Uiso   1.00
Zn431  Zn    0.60366   0.83954   0.25539   0.00000  Uiso   1.00
Zn432  Zn    0.39634   0.82713   0.24460   0.00000  Uiso   1.00
C433   C     0.68171   0.93154   0.24878   0.00000  Uiso   1.00
C434   C     0.97898   0.82928   0.15906   0.00000  Uiso   1.00
C435   C     0.69865   0.84580   0.39323   0.00000  Uiso   1.00
C436   C     0.96822   0.82223   0.10684   0.00000  Uiso   1.00
C437   C     0.68702   0.89351   0.46966   0.00000  Uiso   1.00
C438   C     0.97878   0.77538   0.02992   0.00000  Uiso   1.00
C439   C     0.66875   0.88061   0.42119   0.00000  Uiso   1.00
C440   C     0.99754   0.78748   0.07836   0.00000  Uiso   1.00
C441   C     0.74566   0.82411   0.41368   0.00000  Uiso   1.00
C442   C     0.92186   0.84523   0.08687   0.00000  Uiso   1.00
C443   C     0.77048   0.84391   0.45866   0.00000  Uiso   1.00
C444   C     0.98495   0.73512   0.25120   0.00000  Uiso   1.00
C445   C     0.89629   0.82638   0.04193   0.00000  Uiso   1.00
C446   C     0.73789   0.87521   0.48859   0.00000  Uiso   1.00
C447   C     0.92817   0.79464   0.01153   0.00000  Uiso   1.00
C448   C     0.82551   0.83135   0.47518   0.00000  Uiso   1.00
C449   C     0.84150   0.84023   0.02565   0.00000  Uiso   1.00
C450   C     0.80410   0.85689   0.11077   0.00000  Uiso   1.00
C451   C     0.86583   0.81912   0.39072   0.00000  Uiso   1.00
C452   C     0.80204   0.86248   0.05743   0.00000  Uiso   1.00
C453   C     0.86518   0.81009   0.44323   0.00000  Uiso   1.00
C454   C     0.75423   0.88455   0.03762   0.00000  Uiso   1.00
C455   C     0.91193   0.78644   0.46242   0.00000  Uiso   1.00
C456   C     0.68951   0.98613   0.24804   0.00000  Uiso   1.00
C457   C     0.97714   0.68053   0.25190   0.00000  Uiso   1.00
C458   C     0.68774   0.83762   0.34098   0.00000  Uiso   1.00
H459   H     0.72607   0.90419   0.06130   0.00000  Uiso   1.00
H460   H     0.93410   0.99668   0.25559   0.00000  Uiso   1.00
H461   H     0.82894   0.79038   0.21487   0.00000  Uiso   1.00
H462   H     0.83768   0.87687   0.28438   0.00000  Uiso   1.00
H463   H     0.82239   0.82343   0.12586   0.00000  Uiso   1.00
H464   H     0.88225   0.79049   0.36563   0.00000  Uiso   1.00
H465   H     0.93977   0.76712   0.43819   0.00000  Uiso   1.00
H466   H     0.90566   0.87725   0.10768   0.00000  Uiso   1.00
H467   H     0.76367   0.79294   0.39302   0.00000  Uiso   1.00
H468   H     0.70093   0.76968   0.09350   0.00000  Uiso   1.00
H469   H     0.96532   0.89795   0.40562   0.00000  Uiso   1.00
H470   H     0.99547   0.91830   0.49196   0.00000  Uiso   1.00
H471   H     0.66981   0.75057   0.00716   0.00000  Uiso   1.00
H472   H     0.73256   0.66998   0.24435   0.00000  Uiso   1.00
N473   N     0.81362   0.81883   0.23739   0.00000  Uiso   1.00
N474   N     0.85305   0.84784   0.26260   0.00000  Uiso   1.00
O475   O     0.96386   0.91298   0.25309   0.00000  Uiso   1.00
O476   O     0.85115   0.86004   0.37560   0.00000  Uiso   1.00
O477   O     0.70281   0.75369   0.24691   0.00000  Uiso   1.00
O478   O     0.72488   0.90368   0.24501   0.00000  Uiso   1.00
O479   O     0.94178   0.76298   0.25498   0.00000  Uiso   1.00
O480   O     0.96995   0.84063   0.32247   0.00000  Uiso   1.00
O481   O     0.69672   0.82603   0.17753   0.00000  Uiso   1.00
O482   O     0.73098   0.83134   0.31439   0.00000  Uiso   1.00
O483   O     0.93569   0.83533   0.18561   0.00000  Uiso   1.00
O484   O     0.78549   0.88964   0.13833   0.00000  Uiso   1.00
Zn485  Zn    0.93700   0.83954   0.25539   0.00000  Uiso   1.00
Zn486  Zn    0.72967   0.82713   0.24460   0.00000  Uiso   1.00
C487   C     0.01505   0.26488   0.74878   0.00000  Uiso   1.00
C488   C     0.31232   0.16262   0.65906   0.00000  Uiso   1.00
C489   C     0.03198   0.17913   0.89323   0.00000  Uiso   1.00
C490   C     0.30155   0.15557   0.60684   0.00000  Uiso   1.00
C491   C     0.02035   0.22684   0.96966   0.00000  Uiso   1.00
C492   C     0.31211   0.10871   0.52992   0.00000  Uiso   1.00
C493   C     0.00209   0.21394   0.92119   0.00000  Uiso   1.00
C494   C     0.33087   0.12081   0.57836   0.00000  Uiso   1.00
C495   C     0.07899   0.15745   0.91368   0.00000  Uiso   1.00
C496   C     0.25519   0.17857   0.58687   0.00000  Uiso   1.00
C497   C     0.10381   0.17724   0.95866   0.00000  Uiso   1.00
C498   C     0.31828   0.06845   0.75120   0.00000  Uiso   1.00
C499   C     0.22963   0.15972   0.54193   0.00000  Uiso   1.00
C500   C     0.07123   0.20854   0.98859   0.00000  Uiso   1.00
C501   C     0.26150   0.12798   0.51153   0.00000  Uiso   1.00
C502   C     0.15884   0.16469   0.97518   0.00000  Uiso   1.00
C503   C     0.17483   0.17356   0.52565   0.00000  Uiso   1.00
C504   C     0.13743   0.19023   0.61077   0.00000  Uiso   1.00
C505   C     0.19917   0.15245   0.89072   0.00000  Uiso   1.00
C506   C     0.13537   0.19582   0.55743   0.00000  Uiso   1.00
C507   C     0.19852   0.14343   0.94323   0.00000  Uiso   1.00
C508   C     0.08756   0.21788   0.53762   0.00000  Uiso   1.00
C509   C     0.24526   0.11978   0.96242   0.00000  Uiso   1.00
C510   C     0.02285   0.31947   0.74804   0.00000  Uiso   1.00
C511   C     0.31048   0.01386   0.75190   0.00000  Uiso   1.00
C512   C     0.02107   0.17096   0.84098   0.00000  Uiso   1.00
H513   H     0.05941   0.23753   0.56130   0.00000  Uiso   1.00
H514   H     0.26743   0.33001   0.75559   0.00000  Uiso   1.00
H515   H     0.16227   0.12372   0.71487   0.00000  Uiso   1.00
H516   H     0.17101   0.21020   0.78438   0.00000  Uiso   1.00
H517   H     0.15572   0.15676   0.62586   0.00000  Uiso   1.00
H518   H     0.21558   0.12382   0.86563   0.00000  Uiso   1.00
H519   H     0.27311   0.10045   0.93819   0.00000  Uiso   1.00
H520   H     0.23899   0.21058   0.60768   0.00000  Uiso   1.00
H521   H     0.09701   0.12627   0.89302   0.00000  Uiso   1.00
H522   H     0.03426   0.10302   0.59350   0.00000  Uiso   1.00
H523   H     0.29865   0.23128   0.90562   0.00000  Uiso   1.00
H524   H     0.32881   0.25164   0.99196   0.00000  Uiso   1.00
H525   H     0.00314   0.08390   0.50716   0.00000  Uiso   1.00
H526   H     0.06589   0.00331   0.74435   0.00000  Uiso   1.00
N527   N     0.14695   0.15216   0.73739   0.00000  Uiso   1.00
N528   N     0.18638   0.18117   0.76260   0.00000  Uiso   1.00
O529   O     0.29719   0.24631   0.75309   0.00000  Uiso   1.00
O530   O     0.18448   0.19337   0.87560   0.00000  Uiso   1.00
O531   O     0.03614   0.08702   0.74691   0.00000  Uiso   1.00
O532   O     0.05822   0.23702   0.74501   0.00000  Uiso   1.00
O533   O     0.27512   0.09632   0.75498   0.00000  Uiso   1.00
O534   O     0.30328   0.17397   0.82247   0.00000  Uiso   1.00
O535   O     0.03005   0.15937   0.67753   0.00000  Uiso   1.00
O536   O     0.06431   0.16467   0.81439   0.00000  Uiso   1.00
O537   O     0.26902   0.16866   0.68561   0.00000  Uiso   1.00
O538   O     0.11882   0.22298   0.63833   0.00000  Uiso   1.00
Zn539  Zn    0.27033   0.17287   0.75539   0.00000  Uiso   1.00
Zn540  Zn    0.06300   0.16046   0.74460   0.00000  Uiso   1.00
C541   C     0.34838   0.26488   0.74878   0.00000  Uiso   1.00
C542   C     0.64565   0.16262   0.65906   0.00000  Uiso   1.00
C543   C     0.36532   0.17913   0.89323   0.00000  Uiso   1.00
C544   C     0.63488   0.15557   0.60684   0.00000  Uiso   1.00
C545   C     0.35368   0.22684   0.96966   0.00000  Uiso   1.00
C546   C     0.64544   0.10871   0.52992   0.00000  Uiso   1.00
C547   C     0.33542   0.21394   0.92119   0.00000  Uiso   1.00
C548   C     0.66420   0.12081   0.57836   0.00000  Uiso   1.00
C549   C     0.41232   0.15745   0.91368   0.00000  Uiso   1.00
C550   C     0.58852   0.17857   0.58687   0.00000  Uiso   1.00
C551   C     0.43714   0.17724   0.95866   0.00000  Uiso   1.00
C552   C     0.65162   0.06845   0.75120   0.00000  Uiso   1.00
C553   C     0.56296   0.15972   0.54193   0.00000  Uiso   1.00
C554   C     0.40456   0.20854   0.98859   0.00000  Uiso   1.00
C555   C     0.59484   0.12798   0.51153   0.00000  Uiso   1.00
C556   C     0.49217   0.16469   0.97518   0.00000  Uiso   1.00
C557   C     0.50816   0.17356   0.52565   0.00000  Uiso   1.00
C558   C     0.47076   0.19023   0.61077   0.00000  Uiso   1.00
C559   C     0.53250   0.15245   0.89072   0.00000  Uiso   1.00
C560   C     0.46871   0.19582   0.55743   0.00000  Uiso   1.00
C561   C     0.53185   0.14343   0.94323   0.00000  Uiso   1.00
C562   C     0.42089   0.21788   0.53762   0.00000  Uiso   1.00
C563   C     0.57860   0.11978   0.96242   0.00000  Uiso   1.00
C564   C     0.35618   0.31947   0.74804   0.00000  Uiso   1.00
C565   C     0.64381   0.01386   0.75190   0.00000  Uiso   1.00
C566   C     0.35441   0.17096   0.84098   0.00000  Uiso   1.00
H567   H     0.39274   0.23753   0.56130   0.00000  Uiso   1.00
H568   H     0.60077   0.33001   0.75559   0.00000  Uiso   1.00
H569   H     0.49561   0.12372   0.71487   0.00000  Uiso   1.00
H570   H     0.50435   0.21020   0.78438   0.00000  Uiso   1.00
H571   H     0.48905   0.15676   0.62586   0.00000  Uiso   1.00
H572   H     0.54892   0.12382   0.86563   0.00000  Uiso   1.00
H573   H     0.60644   0.10045   0.93819   0.00000  Uiso   1.00
H574   H     0.57232   0.21058   0.60768   0.00000  Uiso   1.00
H575   H     0.43034   0.12627   0.89302   0.00000  Uiso   1.00
H576   H     0.36759   0.10302   0.59350   0.00000  Uiso   1.00
H577   H     0.63199   0.23128   0.90562   0.00000  Uiso   1.00
H578   H     0.66214   0.25164   0.99196   0.00000  Uiso   1.00
H579   H     0.33648   0.08390   0.50716   0.00000  Uiso   1.00
H580   H     0.39922   0.00331   0.74435   0.00000  Uiso   1.00
N581   N     0.48029   0.15216   0.73739   0.00000  Uiso   1.00
N582   N     0.51971   0.18117   0.76260   0.00000  Uiso   1.00
O583   O     0.63052   0.24631   0.75309   0.00000  Uiso   1.00
O584   O     0.51782   0.19337   0.87560   0.00000  Uiso   1.00
O585   O     0.36948   0.08702   0.74691   0.00000  Uiso   1.00
O586   O     0.39155   0.23702   0.74501   0.00000  Uiso   1.00
O587   O     0.60845   0.09632   0.75498   0.00000  Uiso   1.00
O588   O     0.63662   0.17397   0.82247   0.00000  Uiso   1.00
O589   O     0.36338   0.15937   0.67753   0.00000  Uiso   1.00
O590   O     0.39764   0.16467   0.81439   0.00000  Uiso   1.00
O591   O     0.60236   0.16866   0.68561   0.00000  Uiso   1.00
O592   O     0.45216   0.22298   0.63833   0.00000  Uiso   1.00
Zn593  Zn    0.60366   0.17287   0.75539   0.00000  Uiso   1.00
Zn594  Zn    0.39634   0.16046   0.74460   0.00000  Uiso   1.00
C595   C     0.68171   0.26488   0.74878   0.00000  Uiso   1.00
C596   C     0.97898   0.16262   0.65906   0.00000  Uiso   1.00
C597   C     0.69865   0.17913   0.89323   0.00000  Uiso   1.00
C598   C     0.96822   0.15557   0.60684   0.00000  Uiso   1.00
C599   C     0.68702   0.22684   0.96966   0.00000  Uiso   1.00
C600   C     0.97878   0.10871   0.52992   0.00000  Uiso   1.00
C601   C     0.66875   0.21394   0.92119   0.00000  Uiso   1.00
C602   C     0.99754   0.12081   0.57836   0.00000  Uiso   1.00
C603   C     0.74566   0.15745   0.91368   0.00000  Uiso   1.00
C604   C     0.92186   0.17857   0.58687   0.00000  Uiso   1.00
C605   C     0.77048   0.17724   0.95866   0.00000  Uiso   1.00
C606   C     0.98495   0.06845   0.75120   0.00000  Uiso   1.00
C607   C     0.89629   0.15972   0.54193   0.00000  Uiso   1.00
C608   C     0.73789   0.20854   0.98859   0.00000  Uiso   1.00
C609   C     0.92817   0.12798   0.51153   0.00000  Uiso   1.00
C610   C     0.82551   0.16469   0.97518   0.00000  Uiso   1.00
C611   C     0.84150   0.17356   0.52565   0.00000  Uiso   1.00
C612   C     0.80410   0.19023   0.61077   0.00000  Uiso   1.00
C613   C     0.86583   0.15245   0.89072   0.00000  Uiso   1.00
C614   C     0.80204   0.19582   0.55743   0.00000  Uiso   1.00
C615   C     0.86518   0.14343   0.94323   0.00000  Uiso   1.00
C616   C     0.75423   0.21788   0.53762   0.00000  Uiso   1.00
C617   C     0.91193   0.11978   0.96242   0.00000  Uiso   1.00
C618   C     0.68951   0.31947   0.74804   0.00000  Uiso   1.00
C619   C     0.97714   0.01386   0.75190   0.00000  Uiso   1.00
C620   C     0.68774   0.17096   0.84098   0.00000  Uiso   1.00
H621   H     0.72607   0.23753   0.56130   0.00000  Uiso   1.00
H622   H     0.93410   0.33001   0.75559   0.00000  Uiso   1.00
H623   H     0.82894   0.12372   0.71487   0.00000  Uiso   1.00
H624   H     0.83768   0.21020   0.78438   0.00000  Uiso   1.00
H625   H     0.82239   0.15676   0.62586   0.00000  Uiso   1.00
H626   H     0.88225   0.12382   0.86563   0.00000  Uiso   1.00
H627   H     0.93977   0.10045   0.93819   0.00000  Uiso   1.00
H628   H     0.90566   0.21058   0.60768   0.00000  Uiso   1.00
H629   H     0.76367   0.12627   0.89302   0.00000  Uiso   1.00
H630   H     0.70093   0.10302   0.59350   0.00000  Uiso   1.00
H631   H     0.96532   0.23128   0.90562   0.00000  Uiso   1.00
H632   H     0.99547   0.25164   0.99196   0.00000  Uiso   1.00
H633   H     0.66981   0.08390   0.50716   0.00000  Uiso   1.00
H634   H     0.73256   0.00331   0.74435   0.00000  Uiso   1.00
N635   N     0.81362   0.15216   0.73739   0.00000  Uiso   1.00
N636   N     0.85305   0.18117   0.76260   0.00000  Uiso   1.00
O637   O     0.96386   0.24631   0.75309   0.00000  Uiso   1.00
O638   O     0.85115   0.19337   0.87560   0.00000  Uiso   1.00
O639   O     0.70281   0.08702   0.74691   0.00000  Uiso   1.00
O640   O     0.72488   0.23702   0.74501   0.00000  Uiso   1.00
O641   O     0.94178   0.09632   0.75498   0.00000  Uiso   1.00
O642   O     0.96995   0.17397   0.82247   0.00000  Uiso   1.00
O643   O     0.69672   0.15937   0.67753   0.00000  Uiso   1.00
O644   O     0.73098   0.16467   0.81439   0.00000  Uiso   1.00
O645   O     0.93569   0.16866   0.68561   0.00000  Uiso   1.00
O646   O     0.78549   0.22298   0.63833   0.00000  Uiso   1.00
Zn647  Zn    0.93700   0.17287   0.75539   0.00000  Uiso   1.00
Zn648  Zn    0.72967   0.16046   0.74460   0.00000  Uiso   1.00
C649   C     0.01505   0.59821   0.74878   0.00000  Uiso   1.00
C650   C     0.31232   0.49595   0.65906   0.00000  Uiso   1.00
C651   C     0.03198   0.51247   0.89323   0.00000  Uiso   1.00
C652   C     0.30155   0.48890   0.60684   0.00000  Uiso   1.00
C653   C     0.02035   0.56017   0.96966   0.00000  Uiso   1.00
C654   C     0.31211   0.44204   0.52992   0.00000  Uiso   1.00
C655   C     0.00209   0.54727   0.92119   0.00000  Uiso   1.00
C656   C     0.33087   0.45414   0.57836   0.00000  Uiso   1.00
C657   C     0.07899   0.49078   0.91368   0.00000  Uiso   1.00
C658   C     0.25519   0.51190   0.58687   0.00000  Uiso   1.00
C659   C     0.10381   0.51058   0.95866   0.00000  Uiso   1.00
C660   C     0.31828   0.40179   0.75120   0.00000  Uiso   1.00
C661   C     0.22963   0.49305   0.54193   0.00000  Uiso   1.00
C662   C     0.07123   0.54188   0.98859   0.00000  Uiso   1.00
C663   C     0.26150   0.46131   0.51153   0.00000  Uiso   1.00
C664   C     0.15884   0.49802   0.97518   0.00000  Uiso   1.00
C665   C     0.17483   0.50689   0.52565   0.00000  Uiso   1.00
C666   C     0.13743   0.52356   0.61077   0.00000  Uiso   1.00
C667   C     0.19917   0.48578   0.89072   0.00000  Uiso   1.00
C668   C     0.13537   0.52915   0.55743   0.00000  Uiso   1.00
C669   C     0.19852   0.47676   0.94323   0.00000  Uiso   1.00
C670   C     0.08756   0.55122   0.53762   0.00000  Uiso   1.00
C671   C     0.24526   0.45311   0.96242   0.00000  Uiso   1.00
C672   C     0.02285   0.65280   0.74804   0.00000  Uiso   1.00
C673   C     0.31048   0.34719   0.75190   0.00000  Uiso   1.00
C674   C     0.02107   0.50429   0.84098   0.00000  Uiso   1.00
H675   H     0.05941   0.57086   0.56130   0.00000  Uiso   1.00
H676   H     0.26743   0.66335   0.75559   0.00000  Uiso   1.00
H677   H     0.16227   0.45705   0.71487   0.00000  Uiso   1.00
H678   H     0.17101   0.54354   0.78438   0.00000  Uiso   1.00
H679   H     0.15572   0.49009   0.62586   0.00000  Uiso   1.00
H680   H     0.21558   0.45715   0.86563   0.00000  Uiso   1.00
H681   H     0.27311   0.43379   0.93819   0.00000  Uiso   1.00
H682   H     0.23899   0.54391   0.60768   0.00000  Uiso   1.00
H683   H     0.09701   0.45960   0.89302   0.00000  Uiso   1.00
H684   H     0.03426   0.43635   0.59350   0.00000  Uiso   1.00
H685   H     0.29865   0.56461   0.90562   0.00000  Uiso   1.00
H686   H     0.32881   0.58497   0.99196   0.00000  Uiso   1.00
H687   H     0.00314   0.41723   0.50716   0.00000  Uiso   1.00
H688   H     0.06589   0.33664   0.74435   0.00000  Uiso   1.00
N689   N     0.14695   0.48550   0.73739   0.00000  Uiso   1.00
N690   N     0.18638   0.51450   0.76260   0.00000  Uiso   1.00
O691   O     0.29719   0.57964   0.75309   0.00000  Uiso   1.00
O692   O     0.18448   0.52670   0.87560   0.00000  Uiso   1.00
O693   O     0.03614   0.42036   0.74691   0.00000  Uiso   1.00
O694   O     0.05822   0.57035   0.74501   0.00000  Uiso   1.00
O695   O     0.27512   0.42965   0.75498   0.00000  Uiso   1.00
O696   O     0.30328   0.50730   0.82247   0.00000  Uiso   1.00
O697   O     0.03005   0.49270   0.67753   0.00000  Uiso   1.00
O698   O     0.06431   0.49801   0.81439   0.00000  Uiso   1.00
O699   O     0.26902   0.50199   0.68561   0.00000  Uiso   1.00
O700   O     0.11882   0.55631   0.63833   0.00000  Uiso   1.00
Zn701  Zn    0.27033   0.50621   0.75539   0.00000  Uiso   1.00
Zn702  Zn    0.06300   0.49379   0.74460   0.00000  Uiso   1.00
C703   C     0.34838   0.59821   0.74878   0.00000  Uiso   1.00
C704   C     0.64565   0.49595   0.65906   0.00000  Uiso   1.00
C705   C     0.36532   0.51247   0.89323   0.00000  Uiso   1.00
C706   C     0.63488   0.48890   0.60684   0.00000  Uiso   1.00
C707   C     0.35368   0.56017   0.96966   0.00000  Uiso   1.00
C708   C     0.64544   0.44204   0.52992   0.00000  Uiso   1.00
C709   C     0.33542   0.54727   0.92119   0.00000  Uiso   1.00
C710   C     0.66420   0.45414   0.57836   0.00000  Uiso   1.00
C711   C     0.41232   0.49078   0.91368   0.00000  Uiso   1.00
C712   C     0.58852   0.51190   0.58687   0.00000  Uiso   1.00
C713   C     0.43714   0.51058   0.95866   0.00000  Uiso   1.00
C714   C     0.65162   0.40179   0.75120   0.00000  Uiso   1.00
C715   C     0.56296   0.49305   0.54193   0.00000  Uiso   1.00
C716   C     0.40456   0.54188   0.98859   0.00000  Uiso   1.00
C717   C     0.59484   0.46131   0.51153   0.00000  Uiso   1.00
C718   C     0.49217   0.49802   0.97518   0.00000  Uiso   1.00
C719   C     0.50816   0.50689   0.52565   0.00000  Uiso   1.00
C720   C     0.47076   0.52356   0.61077   0.00000  Uiso   1.00
C721   C     0.53250   0.48578   0.89072   0.00000  Uiso   1.00
C722   C     0.46871   0.52915   0.55743   0.00000  Uiso   1.00
C723   C     0.53185   0.47676   0.94323   0.00000  Uiso   1.00
C724   C     0.42089   0.55122   0.53762   0.00000  Uiso   1.00
C725   C     0.57860   0.45311   0.96242   0.00000  Uiso   1.00
C726   C     0.35618   0.65280   0.74804   0.00000  Uiso   1.00
C727   C     0.64381   0.34719   0.75190   0.00000  Uiso   1.00
C728   C     0.35441   0.50429   0.84098   0.00000  Uiso   1.00
H729   H     0.39274   0.57086   0.56130   0.00000  Uiso   1.00
H730   H     0.60077   0.66335   0.75559   0.00000  Uiso   1.00
H731   H     0.49561   0.45705   0.71487   0.00000  Uiso   1.00
H732   H     0.50435   0.54354   0.78438   0.00000  Uiso   1.00
H733   H     0.48905   0.49009   0.62586   0.00000  Uiso   1.00
H734   H     0.54892   0.45715   0.86563   0.00000  Uiso   1.00
H735   H     0.60644   0.43379   0.93819   0.00000  Uiso   1.00
H736   H     0.57232   0.54391   0.60768   0.00000  Uiso   1.00
H737   H     0.43034   0.45960   0.89302   0.00000  Uiso   1.00
H738   H     0.36759   0.43635   0.59350   0.00000  Uiso   1.00
H739   H     0.63199   0.56461   0.90562   0.00000  Uiso   1.00
H740   H     0.66214   0.58497   0.99196   0.00000  Uiso   1.00
H741   H     0.33648   0.41723   0.50716   0.00000  Uiso   1.00
H742   H     0.39922   0.33664   0.74435   0.00000  Uiso   1.00
N743   N     0.48029   0.48550   0.73739   0.00000  Uiso   1.00
N744   N     0.51971   0.51450   0.76260   0.00000  Uiso   1.00
O745   O     0.63052   0.57964   0.75309   0.00000  Uiso   1.00
O746   O     0.51782   0.52670   0.87560   0.00000  Uiso   1.00
O747   O     0.36948   0.42036   0.74691   0.00000  Uiso   1.00
O748   O     0.39155   0.57035   0.74501   0.00000  Uiso   1.00
O749   O     0.60845   0.42965   0.75498   0.00000  Uiso   1.00
O750   O     0.63662   0.50730   0.82247   0.00000  Uiso   1.00
O751   O     0.36338   0.49270   0.67753   0.00000  Uiso   1.00
O752   O     0.39764   0.49801   0.81439   0.00000  Uiso   1.00
O753   O     0.60236   0.50199   0.68561   0.00000  Uiso   1.00
O754   O     0.45216   0.55631   0.63833   0.00000  Uiso   1.00
Zn755  Zn    0.60366   0.50621   0.75539   0.00000  Uiso   1.00
Zn756  Zn    0.39634   0.49379   0.74460   0.00000  Uiso   1.00
C757   C     0.68171   0.59821   0.74878   0.00000  Uiso   1.00
C758   C     0.97898   0.49595   0.65906   0.00000  Uiso   1.00
C759   C     0.69865   0.51247   0.89323   0.00000  Uiso   1.00
C760   C     0.96822   0.48890   0.60684   0.00000  Uiso   1.00
C761   C     0.68702   0.56017   0.96966   0.00000  Uiso   1.00
C762   C     0.97878   0.44204   0.52992   0.00000  Uiso   1.00
C763   C     0.66875   0.54727   0.92119   0.00000  Uiso   1.00
C764   C     0.99754   0.45414   0.57836   0.00000  Uiso   1.00
C765   C     0.74566   0.49078   0.91368   0.00000  Uiso   1.00
C766   C     0.92186   0.51190   0.58687   0.00000  Uiso   1.00
C767   C     0.77048   0.51058   0.95866   0.00000  Uiso   1.00
C768   C     0.98495   0.40179   0.75120   0.00000  Uiso   1.00
C769   C     0.89629   0.49305   0.54193   0.00000  Uiso   1.00
C770   C     0.73789   0.54188   0.98859   0.00000  Uiso   1.00
C771   C     0.92817   0.46131   0.51153   0.00000  Uiso   1.00
C772   C     0.82551   0.49802   0.97518   0.00000  Uiso   1.00
C773   C     0.84150   0.50689   0.52565   0.00000  Uiso   1.00
C774   C     0.80410   0.52356   0.61077   0.00000  Uiso   1.00
C775   C     0.86583   0.48578   0.89072   0.00000  Uiso   1.00
C776   C     0.80204   0.52915   0.55743   0.00000  Uiso   1.00
C777   C     0.86518   0.47676   0.94323   0.00000  Uiso   1.00
C778   C     0.75423   0.55122   0.53762   0.00000  Uiso   1.00
C779   C     0.91193   0.45311   0.96242   0.00000  Uiso   1.00
C780   C     0.68951   0.65280   0.74804   0.00000  Uiso   1.00
C781   C     0.97714   0.34719   0.75190   0.00000  Uiso   1.00
C782   C     0.68774   0.50429   0.84098   0.00000  Uiso   1.00
H783   H     0.72607   0.57086   0.56130   0.00000  Uiso   1.00
H784   H     0.93410   0.66335   0.75559   0.00000  Uiso   1.00
H785   H     0.82894   0.45705   0.71487   0.00000  Uiso   1.00
H786   H     0.83768   0.54354   0.78438   0.00000  Uiso   1.00
H787   H     0.82239   0.49009   0.62586   0.00000  Uiso   1.00
H788   H     0.88225   0.45715   0.86563   0.00000  Uiso   1.00
H789   H     0.93977   0.43379   0.93819   0.00000  Uiso   1.00
H790   H     0.90566   0.54391   0.60768   0.00000  Uiso   1.00
H791   H     0.76367   0.45960   0.89302   0.00000  Uiso   1.00
H792   H     0.70093   0.43635   0.59350   0.00000  Uiso   1.00
H793   H     0.96532   0.56461   0.90562   0.00000  Uiso   1.00
H794   H     0.99547   0.58497   0.99196   0.00000  Uiso   1.00
H795   H     0.66981   0.41723   0.50716   0.00000  Uiso   1.00
H796   H     0.73256   0.33664   0.74435   0.00000  Uiso   1.00
N797   N     0.81362   0.48550   0.73739   0.00000  Uiso   1.00
N798   N     0.85305   0.51450   0.76260   0.00000  Uiso   1.00
O799   O     0.96386   0.57964   0.75309   0.00000  Uiso   1.00
O800   O     0.85115   0.52670   0.87560   0.00000  Uiso   1.00
O801   O     0.70281   0.42036   0.74691   0.00000  Uiso   1.00
O802   O     0.72488   0.57035   0.74501   0.00000  Uiso   1.00
O803   O     0.94178   0.42965   0.75498   0.00000  Uiso   1.00
O804   O     0.96995   0.50730   0.82247   0.00000  Uiso   1.00
O805   O     0.69672   0.49270   0.67753   0.00000  Uiso   1.00
O806   O     0.73098   0.49801   0.81439   0.00000  Uiso   1.00
O807   O     0.93569   0.50199   0.68561   0.00000  Uiso   1.00
O808   O     0.78549   0.55631   0.63833   0.00000  Uiso   1.00
Zn809  Zn    0.93700   0.50621   0.75539   0.00000  Uiso   1.00
Zn810  Zn    0.72967   0.49379   0.74460   0.00000  Uiso   1.00
C811   C     0.01505   0.93154   0.74878   0.00000  Uiso   1.00
C812   C     0.31232   0.82928   0.65906   0.00000  Uiso   1.00
C813   C     0.03198   0.84580   0.89323   0.00000  Uiso   1.00
C814   C     0.30155   0.82223   0.60684   0.00000  Uiso   1.00
C815   C     0.02035   0.89351   0.96966   0.00000  Uiso   1.00
C816   C     0.31211   0.77538   0.52992   0.00000  Uiso   1.00
C817   C     0.00209   0.88061   0.92119   0.00000  Uiso   1.00
C818   C     0.33087   0.78748   0.57836   0.00000  Uiso   1.00
C819   C     0.07899   0.82411   0.91368   0.00000  Uiso   1.00
C820   C     0.25519   0.84523   0.58687   0.00000  Uiso   1.00
C821   C     0.10381   0.84391   0.95866   0.00000  Uiso   1.00
C822   C     0.31828   0.73512   0.75120   0.00000  Uiso   1.00
C823   C     0.22963   0.82638   0.54193   0.00000  Uiso   1.00
C824   C     0.07123   0.87521   0.98859   0.00000  Uiso   1.00
C825   C     0.26150   0.79464   0.51153   0.00000  Uiso   1.00
C826   C     0.15884   0.83135   0.97518   0.00000  Uiso   1.00
C827   C     0.17483   0.84023   0.52565   0.00000  Uiso   1.00
C828   C     0.13743   0.85689   0.61077   0.00000  Uiso   1.00
C829   C     0.19917   0.81912   0.89072   0.00000  Uiso   1.00
C830   C     0.13537   0.86248   0.55743   0.00000  Uiso   1.00
C831   C     0.19852   0.81009   0.94323   0.00000  Uiso   1.00
C832   C     0.08756   0.88455   0.53762   0.00000  Uiso   1.00
C833   C     0.24526   0.78644   0.96242   0.00000  Uiso   1.00
C834   C     0.02285   0.98613   0.74804   0.00000  Uiso   1.00
C835   C     0.31048   0.68053   0.75190   0.00000  Uiso   1.00
C836   C     0.02107   0.83762   0.84098   0.00000  Uiso   1.00
H837   H     0.05941   0.90419   0.56130   0.00000  Uiso   1.00
H838   H     0.26743   0.99668   0.75559   0.00000  Uiso   1.00
H839   H     0.16227   0.79038   0.71487   0.00000  Uiso   1.00
H840   H     0.17101   0.87687   0.78438   0.00000  Uiso   1.00
H841   H     0.15572   0.82343   0.62586   0.00000  Uiso   1.00
H842   H     0.21558   0.79049   0.86563   0.00000  Uiso   1.00
H843   H     0.27311   0.76712   0.93819   0.00000  Uiso   1.00
H844   H     0.23899   0.87725   0.60768   0.00000  Uiso   1.00
H845   H     0.09701   0.79294   0.89302   0.00000  Uiso   1.00
H846   H     0.03426   0.76968   0.59350   0.00000  Uiso   1.00
H847   H     0.29865   0.89795   0.90562   0.00000  Uiso   1.00
H848   H     0.32881   0.91830   0.99196   0.00000  Uiso   1.00
H849   H     0.00314   0.75057   0.50716   0.00000  Uiso   1.00
H850   H     0.06589   0.66998   0.74435   0.00000  Uiso   1.00
N851   N     0.14695   0.81883   0.73739   0.00000  Uiso   1.00
N852   N     0.18638   0.84784   0.76260   0.00000  Uiso   1.00
O853   O     0.29719   0.91298   0.75309   0.00000  Uiso   1.00
O854   O     0.18448   0.86004   0.87560   0.00000  Uiso   1.00
O855   O     0.03614   0.75369   0.74691   0.00000  Uiso   1.00
O856   O     0.05822   0.90368   0.74501   0.00000  Uiso   1.00
O857   O     0.27512   0.76298   0.75498   0.00000  Uiso   1.00
O858   O     0.30328   0.84063   0.82247   0.00000  Uiso   1.00
O859   O     0.03005   0.82603   0.67753   0.00000  Uiso   1.00
O860   O     0.06431   0.83134   0.81439   0.00000  Uiso   1.00
O861   O     0.26902   0.83533   0.68561   0.00000  Uiso   1.00
O862   O     0.11882   0.88964   0.63833   0.00000  Uiso   1.00
Zn863  Zn    0.27033   0.83954   0.75539   0.00000  Uiso   1.00
Zn864  Zn    0.06300   0.82713   0.74460   0.00000  Uiso   1.00
C865   C     0.34838   0.93154   0.74878   0.00000  Uiso   1.00
C866   C     0.64565   0.82928   0.65906   0.00000  Uiso   1.00
C867   C     0.36532   0.84580   0.89323   0.00000  Uiso   1.00
C868   C     0.63488   0.82223   0.60684   0.00000  Uiso   1.00
C869   C     0.35368   0.89351   0.96966   0.00000  Uiso   1.00
C870   C     0.64544   0.77538   0.52992   0.00000  Uiso   1.00
C871   C     0.33542   0.88061   0.92119   0.00000  Uiso   1.00
C872   C     0.66420   0.78748   0.57836   0.00000  Uiso   1.00
C873   C     0.41232   0.82411   0.91368   0.00000  Uiso   1.00
C874   C     0.58852   0.84523   0.58687   0.00000  Uiso   1.00
C875   C     0.43714   0.84391   0.95866   0.00000  Uiso   1.00
C876   C     0.65162   0.73512   0.75120   0.00000  Uiso   1.00
C877   C     0.56296   0.82638   0.54193   0.00000  Uiso   1.00
C878   C     0.40456   0.87521   0.98859   0.00000  Uiso   1.00
C879   C     0.59484   0.79464   0.51153   0.00000  Uiso   1.00
C880   C     0.49217   0.83135   0.97518   0.00000  Uiso   1.00
C881   C     0.50816   0.84023   0.52565   0.00000  Uiso   1.00
C882   C     0.47076   0.85689   0.61077   0.00000  Uiso   1.00
C883   C     0.53250   0.81912   0.89072   0.00000  Uiso   1.00
C884   C     0.46871   0.86248   0.55743   0.00000  Uiso   1.00
C885   C     0.53185   0.81009   0.94323   0.00000  Uiso   1.00
C886   C     0.42089   0.88455   0.53762   0.00000  Uiso   1.00
C887   C     0.57860   0.78644   0.96242   0.00000  Uiso   1.00
C888   C     0.35618   0.98613   0.74804   0.00000  Uiso   1.00
C889   C     0.64381   0.68053   0.75190   0.00000  Uiso   1.00
C890   C     0.35441   0.83762   0.84098   0.00000  Uiso   1.00
H891   H     0.39274   0.90419   0.56130   0.00000  Uiso   1.00
H892   H     0.60077   0.99668   0.75559   0.00000  Uiso   1.00
H893   H     0.49561   0.79038   0.71487   0.00000  Uiso   1.00
H894   H     0.50435   0.87687   0.78438   0.00000  Uiso   1.00
H895   H     0.48905   0.82343   0.62586   0.00000  Uiso   1.00
H896   H     0.54892   0.79049   0.86563   0.00000  Uiso   1.00
H897   H     0.60644   0.76712   0.93819   0.00000  Uiso   1.00
H898   H     0.57232   0.87725   0.60768   0.00000  Uiso   1.00
H899   H     0.43034   0.79294   0.89302   0.00000  Uiso   1.00
H900   H     0.36759   0.76968   0.59350   0.00000  Uiso   1.00
H901   H     0.63199   0.89795   0.90562   0.00000  Uiso   1.00
H902   H     0.66214   0.91830   0.99196   0.00000  Uiso   1.00
H903   H     0.33648   0.75057   0.50716   0.00000  Uiso   1.00
H904   H     0.39922   0.66998   0.74435   0.00000  Uiso   1.00
N905   N     0.48029   0.81883   0.73739   0.00000  Uiso   1.00
N906   N     0.51971   0.84784   0.76260   0.00000  Uiso   1.00
O907   O     0.63052   0.91298   0.75309   0.00000  Uiso   1.00
O908   O     0.51782   0.86004   0.87560   0.00000  Uiso   1.00
O909   O     0.36948   0.75369   0.74691   0.00000  Uiso   1.00
O910   O     0.39155   0.90368   0.74501   0.00000  Uiso   1.00
O911   O     0.60845   0.76298   0.75498   0.00000  Uiso   1.00
O912   O     0.63662   0.84063   0.82247   0.00000  Uiso   1.00
O913   O     0.36338   0.82603   0.67753   0.00000  Uiso   1.00
O914   O     0.39764   0.83134   0.81439   0.00000  Uiso   1.00
O915   O     0.60236   0.83533   0.68561   0.00000  Uiso   1.00
O916   O     0.45216   0.88964   0.63833   0.00000  Uiso   1.00
Zn917  Zn    0.60366   0.83954   0.75539   0.00000  Uiso   1.00
Zn918  Zn    0.39634   0.82713   0.74460   0.00000  Uiso   1.00
C919   C     0.68171   0.93154   0.74878   0.00000  Uiso   1.00
C920   C     0.97898   0.82928   0.65906   0.00000  Uiso   1.00
C921   C     0.69865   0.84580   0.89323   0.00000  Uiso   1.00
C922   C     0.96822   0.82223   0.60684   0.00000  Uiso   1.00
C923   C     0.68702   0.89351   0.96966   0.00000  Uiso   1.00
C924   C     0.97878   0.77538   0.52992   0.00000  Uiso   1.00
C925   C     0.66875   0.88061   0.92119   0.00000  Uiso   1.00
C926   C     0.99754   0.78748   0.57836   0.00000  Uiso   1.00
C927   C     0.74566   0.82411   0.91368   0.00000  Uiso   1.00
C928   C     0.92186   0.84523   0.58687   0.00000  Uiso   1.00
C929   C     0.77048   0.84391   0.95866   0.00000  Uiso   1.00
C930   C     0.98495   0.73512   0.75120   0.00000  Uiso   1.00
C931   C     0.89629   0.82638   0.54193   0.00000  Uiso   1.00
C932   C     0.73789   0.87521   0.98859   0.00000  Uiso   1.00
C933   C     0.92817   0.79464   0.51153   0.00000  Uiso   1.00
C934   C     0.82551   0.83135   0.97518   0.00000  Uiso   1.00
C935   C     0.84150   0.84023   0.52565   0.00000  Uiso   1.00
C936   C     0.80410   0.85689   0.61077   0.00000  Uiso   1.00
C937   C     0.86583   0.81912   0.89072   0.00000  Uiso   1.00
C938   C     0.80204   0.86248   0.55743   0.00000  Uiso   1.00
C939   C     0.86518   0.81009   0.94323   0.00000  Uiso   1.00
C940   C     0.75423   0.88455   0.53762   0.00000  Uiso   1.00
C941   C     0.91193   0.78644   0.96242   0.00000  Uiso   1.00
C942   C     0.68951   0.98613   0.74804   0.00000  Uiso   1.00
C943   C     0.97714   0.68053   0.75190   0.00000  Uiso   1.00
C944   C     0.68774   0.83762   0.84098   0.00000  Uiso   1.00
H945   H     0.72607   0.90419   0.56130   0.00000  Uiso   1.00
H946   H     0.93410   0.99668   0.75559   0.00000  Uiso   1.00
H947   H     0.82894   0.79038   0.71487   0.00000  Uiso   1.00
H948   H     0.83768   0.87687   0.78438   0.00000  Uiso   1.00
H949   H     0.82239   0.82343   0.62586   0.00000  Uiso   1.00
H950   H     0.88225   0.79049   0.86563   0.00000  Uiso   1.00
H951   H     0.93977   0.76712   0.93819   0.00000  Uiso   1.00
H952   H     0.90566   0.87725   0.60768   0.00000  Uiso   1.00
H953   H     0.76367   0.79294   0.89302   0.00000  Uiso   1.00
H954   H     0.70093   0.76968   0.59350   0.00000  Uiso   1.00
H955   H     0.96532   0.89795   0.90562   0.00000  Uiso   1.00
H956   H     0.99547   0.91830   0.99196   0.00000  Uiso   1.00
H957   H     0.66981   0.75057   0.50716   0.00000  Uiso   1.00
H958   H     0.73256   0.66998   0.74435   0.00000  Uiso   1.00
N959   N     0.81362   0.81883   0.73739   0.00000  Uiso   1.00
N960   N     0.85305   0.84784   0.76260   0.00000  Uiso   1.00
O961   O     0.96386   0.91298   0.75309   0.00000  Uiso   1.00
O962   O     0.85115   0.86004   0.87560   0.00000  Uiso   1.00
O963   O     0.70281   0.75369   0.74691   0.00000  Uiso   1.00
O964   O     0.72488   0.90368   0.74501   0.00000  Uiso   1.00
O965   O     0.94178   0.76298   0.75498   0.00000  Uiso   1.00
O966   O     0.96995   0.84063   0.82247   0.00000  Uiso   1.00
O967   O     0.69672   0.82603   0.67753   0.00000  Uiso   1.00
O968   O     0.73098   0.83134   0.81439   0.00000  Uiso   1.00
O969   O     0.93569   0.83533   0.68561   0.00000  Uiso   1.00
O970   O     0.78549   0.88964   0.63833   0.00000  Uiso   1.00
Zn971  Zn    0.93700   0.83954   0.75539   0.00000  Uiso   1.00
Zn972  Zn    0.72967   0.82713   0.74460   0.00000  Uiso   1.00
loop_
_geom_bond_atom_site_label_1
_geom_bond_atom_site_label_2
_geom_bond_distance
_geom_bond_site_symmetry_2
_ccdc_geom_bond_type
C1     O46     1.291   .     A
C1     C24     1.403   .     S
C1     O151    1.278   1_455 S
C2     C4      1.446   .     S
C2     O51     1.300   .     A
C2     O103    1.290   .     S
C3     C9      1.384   .     A
C3     C7      1.400   .     A
C3     C26     1.449   .     S
C4     C8      1.399   .     A
C4     C10     1.383   .     A
C5     C14     1.405   .     A
C5     C7      1.394   .     A
C5     H146    1.084   1_455 S
C6     C8      1.392   .     A
C6     C15     1.405   .     A
C6     H93     1.084   .     S
C7     H145    1.082   1_455 S
C8     H90     1.083   .     S
C9     C11     1.392   .     A
C9     H35     1.081   .     S
C10    H34     1.079   .     S
C10    C13     1.391   .     A
C11    C14     1.413   .     A
C11    C16     1.416   .     A
C12    C25     1.403   .     S
C12    O47     1.291   .     A
C12    O99     1.278   .     S
C13    C17     1.420   .     A
C13    C15     1.417   .     A
C14    C508    1.386   .     S
C15    C509    1.386   1_554 S
C16    C21     1.433   .     A
C16    C503    1.421   .     S
C17    C20     1.437   .     A
C17    C502    1.421   1_554 S
C18    C20     1.484   .     S
C18    O52     1.221   .     D
C18    H31     1.085   .     S
C19    H32     1.086   .     S
C19    O44     1.221   .     D
C19    C21     1.480   .     S
C20    C22     1.397   .     A
C21    C23     1.391   .     A
C22    H27     1.085   .     S
C22    C500    1.386   1_554 S
C23    H33     1.086   .     S
C23    C501    1.386   .     S
C24    C295    1.339   1_455 S
C24    H202    1.088   .     S
C25    C402    1.339   1_545 S
C25    H352    1.088   1_545 S
C26    O50     1.301   .     A
C26    O156    1.291   1_455 S
H28    C187    1.088   .     S
H29    N41     1.029   .     S
H30    N42     1.029   .     S
H36    C116    1.083   1_455 S
H37    C61     1.082   .     S
H38    C59     1.084   .     S
H39    C114    1.084   1_455 S
H40    C348    1.088   1_545 S
N41    N42     1.290   .     D
N41    Zn54    2.023   .     S
N42    Zn53    2.023   .     S
O43    Zn53    1.952   .     S
O43    C55     1.278   .     S
O45    Zn54    1.952   .     S
O45    C120    1.278   1_455 S
O46    Zn54    1.979   .     S
O47    Zn53    1.979   .     S
O48    Zn53    1.963   .     S
O48    C80     1.291   .     S
O49    Zn54    1.963   .     S
O49    C110    1.290   1_455 S
O50    Zn54    1.918   .     S
O51    Zn53    1.918   .     S
C55    O100    1.291   .     A
C55    C78     1.403   .     S
C56    C58     1.446   .     S
C56    O105    1.300   .     A
C56    O157    1.290   .     S
C57    C63     1.384   .     A
C57    C61     1.400   .     A
C57    C80     1.449   .     S
C58    C62     1.399   .     A
C58    C64     1.383   .     A
C59    C68     1.405   .     A
C59    C61     1.394   .     A
C60    C62     1.392   .     A
C60    C69     1.405   .     A
C60    H147    1.084   .     S
C62    H144    1.083   .     S
C63    C65     1.392   .     A
C63    H89     1.081   .     S
C64    H88     1.079   .     S
C64    C67     1.391   .     A
C65    C68     1.413   .     A
C65    C70     1.416   .     A
C66    C79     1.403   .     S
C66    O101    1.291   .     A
C66    O153    1.278   .     S
C67    C71     1.420   .     A
C67    C69     1.417   .     A
C68    C562    1.386   .     S
C69    C563    1.386   1_554 S
C70    C75     1.433   .     A
C70    C557    1.421   .     S
C71    C74     1.437   .     A
C71    C556    1.421   1_554 S
C72    C74     1.484   .     S
C72    O106    1.221   .     D
C72    H85     1.085   .     S
C73    H86     1.086   .     S
C73    O98     1.221   .     D
C73    C75     1.480   .     S
C74    C76     1.397   .     A
C75    C77     1.391   .     A
C76    H81     1.085   .     S
C76    C554    1.386   1_554 S
C77    H87     1.086   .     S
C77    C555    1.386   .     S
C78    C187    1.339   .     S
C78    H256    1.088   .     S
C79    C456    1.339   1_545 S
C79    H406    1.088   1_545 S
C80    O104    1.301   .     A
H82    C241    1.088   .     S
H83    N95     1.029   .     S
H84    N96     1.029   .     S
H91    C115    1.082   .     S
H92    C113    1.084   .     S
H94    C402    1.088   1_545 S
N95    N96     1.290   .     D
N95    Zn108   2.023   .     S
N96    Zn107   2.023   .     S
O97    Zn107   1.952   .     S
O97    C109    1.278   .     S
O99    Zn108   1.952   .     S
O100   Zn108   1.979   .     S
O101   Zn107   1.979   .     S
O102   Zn107   1.963   .     S
O102   C134    1.291   .     S
O103   Zn108   1.963   .     S
O104   Zn108   1.918   .     S
O105   Zn107   1.918   .     S
C109   O154    1.291   .     A
C109   C132    1.403   .     S
C110   C112    1.446   .     S
C110   O159    1.300   .     A
C110   O49     1.290   1_655 S
C111   C117    1.384   .     A
C111   C115    1.400   .     A
C111   C134    1.449   .     S
C112   C116    1.399   .     A
C112   C118    1.383   .     A
C113   C122    1.405   .     A
C113   C115    1.394   .     A
C114   C116    1.392   .     A
C114   C123    1.405   .     A
C114   H39     1.084   1_655 S
C116   H36     1.083   1_655 S
C117   C119    1.392   .     A
C117   H143    1.081   .     S
C118   H142    1.079   .     S
C118   C121    1.391   .     A
C119   C122    1.413   .     A
C119   C124    1.416   .     A
C120   C133    1.403   .     S
C120   O155    1.291   .     A
C120   O45     1.278   1_655 S
C121   C125    1.420   .     A
C121   C123    1.417   .     A
C122   C616    1.386   .     S
C123   C617    1.386   1_554 S
C124   C129    1.433   .     A
C124   C611    1.421   .     S
C125   C128    1.437   .     A
C125   C610    1.421   1_554 S
C126   C128    1.484   .     S
C126   O160    1.221   .     D
C126   H139    1.085   .     S
C127   H140    1.086   .     S
C127   O152    1.221   .     D
C127   C129    1.480   .     S
C128   C130    1.397   .     A
C129   C131    1.391   .     A
C130   H135    1.085   .     S
C130   C608    1.386   1_554 S
C131   H141    1.086   .     S
C131   C609    1.386   .     S
C132   C241    1.339   .     S
C132   H310    1.088   .     S
C133   C348    1.339   1_645 S
C133   H460    1.088   1_545 S
C134   O158    1.301   .     A
H136   C295    1.088   .     S
H137   N149    1.029   .     S
H138   N150    1.029   .     S
H145   C7      1.082   1_655 S
H146   C5      1.084   1_655 S
H148   C456    1.088   1_545 S
N149   N150    1.290   .     D
N149   Zn162   2.023   .     S
N150   Zn161   2.023   .     S
O151   Zn161   1.952   .     S
O151   C1      1.278   1_655 S
O153   Zn162   1.952   .     S
O154   Zn162   1.979   .     S
O155   Zn161   1.979   .     S
O156   Zn161   1.963   .     S
O156   C26     1.291   1_655 S
O157   Zn162   1.963   .     S
O158   Zn162   1.918   .     S
O159   Zn161   1.918   .     S
C163   O208    1.291   .     A
C163   C186    1.403   .     S
C163   O313    1.278   1_455 S
C164   C166    1.446   .     S
C164   O213    1.300   .     A
C164   O265    1.290   .     S
C165   C171    1.384   .     A
C165   C169    1.400   .     A
C165   C188    1.449   .     S
C166   C170    1.399   .     A
C166   C172    1.383   .     A
C167   C176    1.405   .     A
C167   C169    1.394   .     A
C167   H308    1.084   1_455 S
C168   C170    1.392   .     A
C168   C177    1.405   .     A
C168   H255    1.084   .     S
C169   H307    1.082   1_455 S
C170   H252    1.083   .     S
C171   C173    1.392   .     A
C171   H197    1.081   .     S
C172   H196    1.079   .     S
C172   C175    1.391   .     A
C173   C176    1.413   .     A
C173   C178    1.416   .     A
C174   C187    1.403   .     S
C174   O209    1.291   .     A
C174   O261    1.278   .     S
C175   C179    1.420   .     A
C175   C177    1.417   .     A
C176   C670    1.386   .     S
C177   C671    1.386   1_554 S
C178   C183    1.433   .     A
C178   C665    1.421   .     S
C179   C182    1.437   .     A
C179   C664    1.421   1_554 S
C180   C182    1.484   .     S
C180   O214    1.221   .     D
C180   H193    1.085   .     S
C181   H194    1.086   .     S
C181   O206    1.221   .     D
C181   C183    1.480   .     S
C182   C184    1.397   .     A
C183   C185    1.391   .     A
C184   H189    1.085   .     S
C184   C662    1.386   1_554 S
C185   H195    1.086   .     S
C185   C663    1.386   .     S
C186   C457    1.339   1_455 S
C186   H364    1.088   .     S
C188   O212    1.301   .     A
C188   O318    1.291   1_455 S
H190   C349    1.088   .     S
H191   N203    1.029   .     S
H192   N204    1.029   .     S
H198   C278    1.083   1_455 S
H199   C223    1.082   .     S
H200   C221    1.084   .     S
H201   C276    1.084   1_455 S
N203   N204    1.290   .     D
N203   Zn216   2.023   .     S
N204   Zn215   2.023   .     S
O205   Zn215   1.952   .     S
O205   C217    1.278   .     S
O207   Zn216   1.952   .     S
O207   C282    1.278   1_455 S
O208   Zn216   1.979   .     S
O209   Zn215   1.979   .     S
O210   Zn215   1.963   .     S
O210   C242    1.291   .     S
O211   Zn216   1.963   .     S
O211   C272    1.290   1_455 S
O212   Zn216   1.918   .     S
O213   Zn215   1.918   .     S
C217   O262    1.291   .     A
C217   C240    1.403   .     S
C218   C220    1.446   .     S
C218   O267    1.300   .     A
C218   O319    1.290   .     S
C219   C225    1.384   .     A
C219   C223    1.400   .     A
C219   C242    1.449   .     S
C220   C224    1.399   .     A
C220   C226    1.383   .     A
C221   C230    1.405   .     A
C221   C223    1.394   .     A
C222   C224    1.392   .     A
C222   C231    1.405   .     A
C222   H309    1.084   .     S
C224   H306    1.083   .     S
C225   C227    1.392   .     A
C225   H251    1.081   .     S
C226   H250    1.079   .     S
C226   C229    1.391   .     A
C227   C230    1.413   .     A
C227   C232    1.416   .     A
C228   C241    1.403   .     S
C228   O263    1.291   .     A
C228   O315    1.278   .     S
C229   C233    1.420   .     A
C229   C231    1.417   .     A
C230   C724    1.386   .     S
C231   C725    1.386   1_554 S
C232   C237    1.433   .     A
C232   C719    1.421   .     S
C233   C236    1.437   .     A
C233   C718    1.421   1_554 S
C234   C236    1.484   .     S
C234   O268    1.221   .     D
C234   H247    1.085   .     S
C235   H248    1.086   .     S
C235   O260    1.221   .     D
C235   C237    1.480   .     S
C236   C238    1.397   .     A
C237   C239    1.391   .     A
C238   H243    1.085   .     S
C238   C716    1.386   1_554 S
C239   H249    1.086   .     S
C239   C717    1.386   .     S
C240   C349    1.339   .     S
C240   H418    1.088   .     S
C242   O266    1.301   .     A
H244   C403    1.088   .     S
H245   N257    1.029   .     S
H246   N258    1.029   .     S
H253   C277    1.082   .     S
H254   C275    1.084   .     S
N257   N258    1.290   .     D
N257   Zn270   2.023   .     S
N258   Zn269   2.023   .     S
O259   Zn269   1.952   .     S
O259   C271    1.278   .     S
O261   Zn270   1.952   .     S
O262   Zn270   1.979   .     S
O263   Zn269   1.979   .     S
O264   Zn269   1.963   .     S
O264   C296    1.291   .     S
O265   Zn270   1.963   .     S
O266   Zn270   1.918   .     S
O267   Zn269   1.918   .     S
C271   O316    1.291   .     A
C271   C294    1.403   .     S
C272   C274    1.446   .     S
C272   O321    1.300   .     A
C272   O211    1.290   1_655 S
C273   C279    1.384   .     A
C273   C277    1.400   .     A
C273   C296    1.449   .     S
C274   C278    1.399   .     A
C274   C280    1.383   .     A
C275   C284    1.405   .     A
C275   C277    1.394   .     A
C276   C278    1.392   .     A
C276   C285    1.405   .     A
C276   H201    1.084   1_655 S
C278   H198    1.083   1_655 S
C279   C281    1.392   .     A
C279   H305    1.081   .     S
C280   H304    1.079   .     S
C280   C283    1.391   .     A
C281   C284    1.413   .     A
C281   C286    1.416   .     A
C282   C295    1.403   .     S
C282   O317    1.291   .     A
C282   O207    1.278   1_655 S
C283   C287    1.420   .     A
C283   C285    1.417   .     A
C284   C778    1.386   .     S
C285   C779    1.386   1_554 S
C286   C291    1.433   .     A
C286   C773    1.421   .     S
C287   C290    1.437   .     A
C287   C772    1.421   1_554 S
C288   C290    1.484   .     S
C288   O322    1.221   .     D
C288   H301    1.085   .     S
C289   H302    1.086   .     S
C289   O314    1.221   .     D
C289   C291    1.480   .     S
C290   C292    1.397   .     A
C291   C293    1.391   .     A
C292   H297    1.085   .     S
C292   C770    1.386   1_554 S
C293   H303    1.086   .     S
C293   C771    1.386   .     S
C294   C403    1.339   .     S
C294   H472    1.088   .     S
C295   C24     1.339   1_655 S
C296   O320    1.301   .     A
H298   C457    1.088   .     S
H299   N311    1.029   .     S
H300   N312    1.029   .     S
H307   C169    1.082   1_655 S
H308   C167    1.084   1_655 S
N311   N312    1.290   .     D
N311   Zn324   2.023   .     S
N312   Zn323   2.023   .     S
O313   Zn323   1.952   .     S
O313   C163    1.278   1_655 S
O315   Zn324   1.952   .     S
O316   Zn324   1.979   .     S
O317   Zn323   1.979   .     S
O318   Zn323   1.963   .     S
O318   C188    1.291   1_655 S
O319   Zn324   1.963   .     S
O320   Zn324   1.918   .     S
O321   Zn323   1.918   .     S
C325   O370    1.291   .     A
C325   C348    1.403   .     S
C325   O475    1.278   1_455 S
C326   C328    1.446   .     S
C326   O375    1.300   .     A
C326   O427    1.290   .     S
C327   C333    1.384   .     A
C327   C331    1.400   .     A
C327   C350    1.449   .     S
C328   C332    1.399   .     A
C328   C334    1.383   .     A
C329   C338    1.405   .     A
C329   C331    1.394   .     A
C329   H470    1.084   1_455 S
C330   C332    1.392   .     A
C330   C339    1.405   .     A
C330   H417    1.084   .     S
C331   H469    1.082   1_455 S
C332   H414    1.083   .     S
C333   C335    1.392   .     A
C333   H359    1.081   .     S
C334   H358    1.079   .     S
C334   C337    1.391   .     A
C335   C338    1.413   .     A
C335   C340    1.416   .     A
C336   C349    1.403   .     S
C336   O371    1.291   .     A
C336   O423    1.278   .     S
C337   C341    1.420   .     A
C337   C339    1.417   .     A
C338   C832    1.386   .     S
C339   C833    1.386   1_554 S
C340   C345    1.433   .     A
C340   C827    1.421   .     S
C341   C344    1.437   .     A
C341   C826    1.421   1_554 S
C342   C344    1.484   .     S
C342   O376    1.221   .     D
C342   H355    1.085   .     S
C343   H356    1.086   .     S
C343   O368    1.221   .     D
C343   C345    1.480   .     S
C344   C346    1.397   .     A
C345   C347    1.391   .     A
C346   H351    1.085   .     S
C346   C824    1.386   1_554 S
C347   H357    1.086   .     S
C347   C825    1.386   .     S
C348   C133    1.339   1_465 S
C348   H40     1.088   1_565 S
C350   O374    1.301   .     A
C350   O480    1.291   1_455 S
H352   C25     1.088   1_565 S
H353   N365    1.029   .     S
H354   N366    1.029   .     S
H360   C440    1.083   1_455 S
H361   C385    1.082   .     S
H362   C383    1.084   .     S
H363   C438    1.084   1_455 S
N365   N366    1.290   .     D
N365   Zn378   2.023   .     S
N366   Zn377   2.023   .     S
O367   Zn377   1.952   .     S
O367   C379    1.278   .     S
O369   Zn378   1.952   .     S
O369   C444    1.278   1_455 S
O370   Zn378   1.979   .     S
O371   Zn377   1.979   .     S
O372   Zn377   1.963   .     S
O372   C404    1.291   .     S
O373   Zn378   1.963   .     S
O373   C434    1.290   1_455 S
O374   Zn378   1.918   .     S
O375   Zn377   1.918   .     S
C379   O424    1.291   .     A
C379   C402    1.403   .     S
C380   C382    1.446   .     S
C380   O429    1.300   .     A
C380   O481    1.290   .     S
C381   C387    1.384   .     A
C381   C385    1.400   .     A
C381   C404    1.449   .     S
C382   C386    1.399   .     A
C382   C388    1.383   .     A
C383   C392    1.405   .     A
C383   C385    1.394   .     A
C384   C386    1.392   .     A
C384   C393    1.405   .     A
C384   H471    1.084   .     S
C386   H468    1.083   .     S
C387   C389    1.392   .     A
C387   H413    1.081   .     S
C388   H412    1.079   .     S
C388   C391    1.391   .     A
C389   C392    1.413   .     A
C389   C394    1.416   .     A
C390   C403    1.403   .     S
C390   O425    1.291   .     A
C390   O477    1.278   .     S
C391   C395    1.420   .     A
C391   C393    1.417   .     A
C392   C886    1.386   .     S
C393   C887    1.386   1_554 S
C394   C399    1.433   .     A
C394   C881    1.421   .     S
C395   C398    1.437   .     A
C395   C880    1.421   1_554 S
C396   C398    1.484   .     S
C396   O430    1.221   .     D
C396   H409    1.085   .     S
C397   H410    1.086   .     S
C397   O422    1.221   .     D
C397   C399    1.480   .     S
C398   C400    1.397   .     A
C399   C401    1.391   .     A
C400   H405    1.085   .     S
C400   C878    1.386   1_554 S
C401   H411    1.086   .     S
C401   C879    1.386   .     S
C402   C25     1.339   1_565 S
C402   H94     1.088   1_565 S
C404   O428    1.301   .     A
H406   C79     1.088   1_565 S
H407   N419    1.029   .     S
H408   N420    1.029   .     S
H415   C439    1.082   .     S
H416   C437    1.084   .     S
N419   N420    1.290   .     D
N419   Zn432   2.023   .     S
N420   Zn431   2.023   .     S
O421   Zn431   1.952   .     S
O421   C433    1.278   .     S
O423   Zn432   1.952   .     S
O424   Zn432   1.979   .     S
O425   Zn431   1.979   .     S
O426   Zn431   1.963   .     S
O426   C458    1.291   .     S
O427   Zn432   1.963   .     S
O428   Zn432   1.918   .     S
O429   Zn431   1.918   .     S
C433   O478    1.291   .     A
C433   C456    1.403   .     S
C434   C436    1.446   .     S
C434   O483    1.300   .     A
C434   O373    1.290   1_655 S
C435   C441    1.384   .     A
C435   C439    1.400   .     A
C435   C458    1.449   .     S
C436   C440    1.399   .     A
C436   C442    1.383   .     A
C437   C446    1.405   .     A
C437   C439    1.394   .     A
C438   C440    1.392   .     A
C438   C447    1.405   .     A
C438   H363    1.084   1_655 S
C440   H360    1.083   1_655 S
C441   C443    1.392   .     A
C441   H467    1.081   .     S
C442   H466    1.079   .     S
C442   C445    1.391   .     A
C443   C446    1.413   .     A
C443   C448    1.416   .     A
C444   C457    1.403   .     S
C444   O479    1.291   .     A
C444   O369    1.278   1_655 S
C445   C449    1.420   .     A
C445   C447    1.417   .     A
C446   C940    1.386   .     S
C447   C941    1.386   1_554 S
C448   C453    1.433   .     A
C448   C935    1.421   .     S
C449   C452    1.437   .     A
C449   C934    1.421   1_554 S
C450   C452    1.484   .     S
C450   O484    1.221   .     D
C450   H463    1.085   .     S
C451   H464    1.086   .     S
C451   O476    1.221   .     D
C451   C453    1.480   .     S
C452   C454    1.397   .     A
C453   C455    1.391   .     A
C454   H459    1.085   .     S
C454   C932    1.386   1_554 S
C455   H465    1.086   .     S
C455   C933    1.386   .     S
C456   C79     1.339   1_565 S
C456   H148    1.088   1_565 S
C457   C186    1.339   1_655 S
C458   O482    1.301   .     A
H460   C133    1.088   1_565 S
H461   N473    1.029   .     S
H462   N474    1.029   .     S
H469   C331    1.082   1_655 S
H470   C329    1.084   1_655 S
N473   N474    1.290   .     D
N473   Zn486   2.023   .     S
N474   Zn485   2.023   .     S
O475   Zn485   1.952   .     S
O475   C325    1.278   1_655 S
O477   Zn486   1.952   .     S
O478   Zn486   1.979   .     S
O479   Zn485   1.979   .     S
O480   Zn485   1.963   .     S
O480   C350    1.291   1_655 S
O481   Zn486   1.963   .     S
O482   Zn486   1.918   .     S
O483   Zn485   1.918   .     S
C487   O532    1.291   .     A
C487   C510    1.403   .     S
C487   O637    1.278   1_455 S
C488   C490    1.446   .     S
C488   O537    1.300   .     A
C488   O589    1.290   .     S
C489   C495    1.384   .     A
C489   C493    1.400   .     A
C489   C512    1.449   .     S
C490   C494    1.399   .     A
C490   C496    1.383   .     A
C491   C500    1.405   .     A
C491   C493    1.394   .     A
C491   H632    1.084   1_455 S
C492   C494    1.392   .     A
C492   C501    1.405   .     A
C492   H579    1.084   .     S
C493   H631    1.082   1_455 S
C494   H576    1.083   .     S
C495   C497    1.392   .     A
C495   H521    1.081   .     S
C496   H520    1.079   .     S
C496   C499    1.391   .     A
C497   C500    1.413   .     A
C497   C502    1.416   .     A
C498   C511    1.403   .     S
C498   O533    1.291   .     A
C498   O585    1.278   .     S
C499   C503    1.420   .     A
C499   C501    1.417   .     A
C500   C22     1.386   1_556 S
C502   C507    1.433   .     A
C502   C17     1.421   1_556 S
C503   C506    1.437   .     A
C504   C506    1.484   .     S
C504   O538    1.221   .     D
C504   H517    1.085   .     S
C505   H518    1.086   .     S
C505   O530    1.221   .     D
C505   C507    1.480   .     S
C506   C508    1.397   .     A
C507   C509    1.391   .     A
C508   H513    1.085   .     S
C509   H519    1.086   .     S
C509   C15     1.386   1_556 S
C510   C781    1.339   1_455 S
C510   H688    1.088   .     S
C511   C888    1.339   1_545 S
C511   H838    1.088   1_545 S
C512   O536    1.301   .     A
C512   O642    1.291   1_455 S
H514   C673    1.088   .     S
H515   N527    1.029   .     S
H516   N528    1.029   .     S
H522   C602    1.083   1_455 S
H523   C547    1.082   .     S
H524   C545    1.084   .     S
H525   C600    1.084   1_455 S
H526   C834    1.088   1_545 S
N527   N528    1.290   .     D
N527   Zn540   2.023   .     S
N528   Zn539   2.023   .     S
O529   Zn539   1.952   .     S
O529   C541    1.278   .     S
O531   Zn540   1.952   .     S
O531   C606    1.278   1_455 S
O532   Zn540   1.979   .     S
O533   Zn539   1.979   .     S
O534   Zn539   1.963   .     S
O534   C566    1.291   .     S
O535   Zn540   1.963   .     S
O535   C596    1.290   1_455 S
O536   Zn540   1.918   .     S
O537   Zn539   1.918   .     S
C541   O586    1.291   .     A
C541   C564    1.403   .     S
C542   C544    1.446   .     S
C542   O591    1.300   .     A
C542   O643    1.290   .     S
C543   C549    1.384   .     A
C543   C547    1.400   .     A
C543   C566    1.449   .     S
C544   C548    1.399   .     A
C544   C550    1.383   .     A
C545   C554    1.405   .     A
C545   C547    1.394   .     A
C546   C548    1.392   .     A
C546   C555    1.405   .     A
C546   H633    1.084   .     S
C548   H630    1.083   .     S
C549   C551    1.392   .     A
C549   H575    1.081   .     S
C550   H574    1.079   .     S
C550   C553    1.391   .     A
C551   C554    1.413   .     A
C551   C556    1.416   .     A
C552   C565    1.403   .     S
C552   O587    1.291   .     A
C552   O639    1.278   .     S
C553   C557    1.420   .     A
C553   C555    1.417   .     A
C554   C76     1.386   1_556 S
C556   C561    1.433   .     A
C556   C71     1.421   1_556 S
C557   C560    1.437   .     A
C558   C560    1.484   .     S
C558   O592    1.221   .     D
C558   H571    1.085   .     S
C559   H572    1.086   .     S
C559   O584    1.221   .     D
C559   C561    1.480   .     S
C560   C562    1.397   .     A
C561   C563    1.391   .     A
C562   H567    1.085   .     S
C563   H573    1.086   .     S
C563   C69     1.386   1_556 S
C564   C673    1.339   .     S
C564   H742    1.088   .     S
C565   C942    1.339   1_545 S
C565   H892    1.088   1_545 S
C566   O590    1.301   .     A
H568   C727    1.088   .     S
H569   N581    1.029   .     S
H570   N582    1.029   .     S
H577   C601    1.082   .     S
H578   C599    1.084   .     S
H580   C888    1.088   1_545 S
N581   N582    1.290   .     D
N581   Zn594   2.023   .     S
N582   Zn593   2.023   .     S
O583   Zn593   1.952   .     S
O583   C595    1.278   .     S
O585   Zn594   1.952   .     S
O586   Zn594   1.979   .     S
O587   Zn593   1.979   .     S
O588   Zn593   1.963   .     S
O588   C620    1.291   .     S
O589   Zn594   1.963   .     S
O590   Zn594   1.918   .     S
O591   Zn593   1.918   .     S
C595   O640    1.291   .     A
C595   C618    1.403   .     S
C596   C598    1.446   .     S
C596   O645    1.300   .     A
C596   O535    1.290   1_655 S
C597   C603    1.384   .     A
C597   C601    1.400   .     A
C597   C620    1.449   .     S
C598   C602    1.399   .     A
C598   C604    1.383   .     A
C599   C608    1.405   .     A
C599   C601    1.394   .     A
C600   C602    1.392   .     A
C600   C609    1.405   .     A
C600   H525    1.084   1_655 S
C602   H522    1.083   1_655 S
C603   C605    1.392   .     A
C603   H629    1.081   .     S
C604   H628    1.079   .     S
C604   C607    1.391   .     A
C605   C608    1.413   .     A
C605   C610    1.416   .     A
C606   C619    1.403   .     S
C606   O641    1.291   .     A
C606   O531    1.278   1_655 S
C607   C611    1.420   .     A
C607   C609    1.417   .     A
C608   C130    1.386   1_556 S
C610   C615    1.433   .     A
C610   C125    1.421   1_556 S
C611   C614    1.437   .     A
C612   C614    1.484   .     S
C612   O646    1.221   .     D
C612   H625    1.085   .     S
C613   H626    1.086   .     S
C613   O638    1.221   .     D
C613   C615    1.480   .     S
C614   C616    1.397   .     A
C615   C617    1.391   .     A
C616   H621    1.085   .     S
C617   H627    1.086   .     S
C617   C123    1.386   1_556 S
C618   C727    1.339   .     S
C618   H796    1.088   .     S
C619   C834    1.339   1_645 S
C619   H946    1.088   1_545 S
C620   O644    1.301   .     A
H622   C781    1.088   .     S
H623   N635    1.029   .     S
H624   N636    1.029   .     S
H631   C493    1.082   1_655 S
H632   C491    1.084   1_655 S
H634   C942    1.088   1_545 S
N635   N636    1.290   .     D
N635   Zn648   2.023   .     S
N636   Zn647   2.023   .     S
O637   Zn647   1.952   .     S
O637   C487    1.278   1_655 S
O639   Zn648   1.952   .     S
O640   Zn648   1.979   .     S
O641   Zn647   1.979   .     S
O642   Zn647   1.963   .     S
O642   C512    1.291   1_655 S
O643   Zn648   1.963   .     S
O644   Zn648   1.918   .     S
O645   Zn647   1.918   .     S
C649   O694    1.291   .     A
C649   C672    1.403   .     S
C649   O799    1.278   1_455 S
C650   C652    1.446   .     S
C650   O699    1.300   .     A
C650   O751    1.290   .     S
C651   C657    1.384   .     A
C651   C655    1.400   .     A
C651   C674    1.449   .     S
C652   C656    1.399   .     A
C652   C658    1.383   .     A
C653   C662    1.405   .     A
C653   C655    1.394   .     A
C653   H794    1.084   1_455 S
C654   C656    1.392   .     A
C654   C663    1.405   .     A
C654   H741    1.084   .     S
C655   H793    1.082   1_455 S
C656   H738    1.083   .     S
C657   C659    1.392   .     A
C657   H683    1.081   .     S
C658   H682    1.079   .     S
C658   C661    1.391   .     A
C659   C662    1.413   .     A
C659   C664    1.416   .     A
C660   C673    1.403   .     S
C660   O695    1.291   .     A
C660   O747    1.278   .     S
C661   C665    1.420   .     A
C661   C663    1.417   .     A
C662   C184    1.386   1_556 S
C664   C669    1.433   .     A
C664   C179    1.421   1_556 S
C665   C668    1.437   .     A
C666   C668    1.484   .     S
C666   O700    1.221   .     D
C666   H679    1.085   .     S
C667   H680    1.086   .     S
C667   O692    1.221   .     D
C667   C669    1.480   .     S
C668   C670    1.397   .     A
C669   C671    1.391   .     A
C670   H675    1.085   .     S
C671   H681    1.086   .     S
C671   C177    1.386   1_556 S
C672   C943    1.339   1_455 S
C672   H850    1.088   .     S
C674   O698    1.301   .     A
C674   O804    1.291   1_455 S
H676   C835    1.088   .     S
H677   N689    1.029   .     S
H678   N690    1.029   .     S
H684   C764    1.083   1_455 S
H685   C709    1.082   .     S
H686   C707    1.084   .     S
H687   C762    1.084   1_455 S
N689   N690    1.290   .     D
N689   Zn702   2.023   .     S
N690   Zn701   2.023   .     S
O691   Zn701   1.952   .     S
O691   C703    1.278   .     S
O693   Zn702   1.952   .     S
O693   C768    1.278   1_455 S
O694   Zn702   1.979   .     S
O695   Zn701   1.979   .     S
O696   Zn701   1.963   .     S
O696   C728    1.291   .     S
O697   Zn702   1.963   .     S
O697   C758    1.290   1_455 S
O698   Zn702   1.918   .     S
O699   Zn701   1.918   .     S
C703   O748    1.291   .     A
C703   C726    1.403   .     S
C704   C706    1.446   .     S
C704   O753    1.300   .     A
C704   O805    1.290   .     S
C705   C711    1.384   .     A
C705   C709    1.400   .     A
C705   C728    1.449   .     S
C706   C710    1.399   .     A
C706   C712    1.383   .     A
C707   C716    1.405   .     A
C707   C709    1.394   .     A
C708   C710    1.392   .     A
C708   C717    1.405   .     A
C708   H795    1.084   .     S
C710   H792    1.083   .     S
C711   C713    1.392   .     A
C711   H737    1.081   .     S
C712   H736    1.079   .     S
C712   C715    1.391   .     A
C713   C716    1.413   .     A
C713   C718    1.416   .     A
C714   C727    1.403   .     S
C714   O749    1.291   .     A
C714   O801    1.278   .     S
C715   C719    1.420   .     A
C715   C717    1.417   .     A
C716   C238    1.386   1_556 S
C718   C723    1.433   .     A
C718   C233    1.421   1_556 S
C719   C722    1.437   .     A
C720   C722    1.484   .     S
C720   O754    1.221   .     D
C720   H733    1.085   .     S
C721   H734    1.086   .     S
C721   O746    1.221   .     D
C721   C723    1.480   .     S
C722   C724    1.397   .     A
C723   C725    1.391   .     A
C724   H729    1.085   .     S
C725   H735    1.086   .     S
C725   C231    1.386   1_556 S
C726   C835    1.339   .     S
C726   H904    1.088   .     S
C728   O752    1.301   .     A
H730   C889    1.088   .     S
H731   N743    1.029   .     S
H732   N744    1.029   .     S
H739   C763    1.082   .     S
H740   C761    1.084   .     S
N743   N744    1.290   .     D
N743   Zn756   2.023   .     S
N744   Zn755   2.023   .     S
O745   Zn755   1.952   .     S
O745   C757    1.278   .     S
O747   Zn756   1.952   .     S
O748   Zn756   1.979   .     S
O749   Zn755   1.979   .     S
O750   Zn755   1.963   .     S
O750   C782    1.291   .     S
O751   Zn756   1.963   .     S
O752   Zn756   1.918   .     S
O753   Zn755   1.918   .     S
C757   O802    1.291   .     A
C757   C780    1.403   .     S
C758   C760    1.446   .     S
C758   O807    1.300   .     A
C758   O697    1.290   1_655 S
C759   C765    1.384   .     A
C759   C763    1.400   .     A
C759   C782    1.449   .     S
C760   C764    1.399   .     A
C760   C766    1.383   .     A
C761   C770    1.405   .     A
C761   C763    1.394   .     A
C762   C764    1.392   .     A
C762   C771    1.405   .     A
C762   H687    1.084   1_655 S
C764   H684    1.083   1_655 S
C765   C767    1.392   .     A
C765   H791    1.081   .     S
C766   H790    1.079   .     S
C766   C769    1.391   .     A
C767   C770    1.413   .     A
C767   C772    1.416   .     A
C768   C781    1.403   .     S
C768   O803    1.291   .     A
C768   O693    1.278   1_655 S
C769   C773    1.420   .     A
C769   C771    1.417   .     A
C770   C292    1.386   1_556 S
C772   C777    1.433   .     A
C772   C287    1.421   1_556 S
C773   C776    1.437   .     A
C774   C776    1.484   .     S
C774   O808    1.221   .     D
C774   H787    1.085   .     S
C775   H788    1.086   .     S
C775   O800    1.221   .     D
C775   C777    1.480   .     S
C776   C778    1.397   .     A
C777   C779    1.391   .     A
C778   H783    1.085   .     S
C779   H789    1.086   .     S
C779   C285    1.386   1_556 S
C780   C889    1.339   .     S
C780   H958    1.088   .     S
C781   C510    1.339   1_655 S
C782   O806    1.301   .     A
H784   C943    1.088   .     S
H785   N797    1.029   .     S
H786   N798    1.029   .     S
H793   C655    1.082   1_655 S
H794   C653    1.084   1_655 S
N797   N798    1.290   .     D
N797   Zn810   2.023   .     S
N798   Zn809   2.023   .     S
O799   Zn809   1.952   .     S
O799   C649    1.278   1_655 S
O801   Zn810   1.952   .     S
O802   Zn810   1.979   .     S
O803   Zn809   1.979   .     S
O804   Zn809   1.963   .     S
O804   C674    1.291   1_655 S
O805   Zn810   1.963   .     S
O806   Zn810   1.918   .     S
O807   Zn809   1.918   .     S
C811   O856    1.291   .     A
C811   C834    1.403   .     S
C811   O961    1.278   1_455 S
C812   C814    1.446   .     S
C812   O861    1.300   .     A
C812   O913    1.290   .     S
C813   C819    1.384   .     A
C813   C817    1.400   .     A
C813   C836    1.449   .     S
C814   C818    1.399   .     A
C814   C820    1.383   .     A
C815   C824    1.405   .     A
C815   C817    1.394   .     A
C815   H956    1.084   1_455 S
C816   C818    1.392   .     A
C816   C825    1.405   .     A
C816   H903    1.084   .     S
C817   H955    1.082   1_455 S
C818   H900    1.083   .     S
C819   C821    1.392   .     A
C819   H845    1.081   .     S
C820   H844    1.079   .     S
C820   C823    1.391   .     A
C821   C824    1.413   .     A
C821   C826    1.416   .     A
C822   C835    1.403   .     S
C822   O857    1.291   .     A
C822   O909    1.278   .     S
C823   C827    1.420   .     A
C823   C825    1.417   .     A
C824   C346    1.386   1_556 S
C826   C831    1.433   .     A
C826   C341    1.421   1_556 S
C827   C830    1.437   .     A
C828   C830    1.484   .     S
C828   O862    1.221   .     D
C828   H841    1.085   .     S
C829   H842    1.086   .     S
C829   O854    1.221   .     D
C829   C831    1.480   .     S
C830   C832    1.397   .     A
C831   C833    1.391   .     A
C832   H837    1.085   .     S
C833   H843    1.086   .     S
C833   C339    1.386   1_556 S
C834   C619    1.339   1_465 S
C834   H526    1.088   1_565 S
C836   O860    1.301   .     A
C836   O966    1.291   1_455 S
H838   C511    1.088   1_565 S
H839   N851    1.029   .     S
H840   N852    1.029   .     S
H846   C926    1.083   1_455 S
H847   C871    1.082   .     S
H848   C869    1.084   .     S
H849   C924    1.084   1_455 S
N851   N852    1.290   .     D
N851   Zn864   2.023   .     S
N852   Zn863   2.023   .     S
O853   Zn863   1.952   .     S
O853   C865    1.278   .     S
O855   Zn864   1.952   .     S
O855   C930    1.278   1_455 S
O856   Zn864   1.979   .     S
O857   Zn863   1.979   .     S
O858   Zn863   1.963   .     S
O858   C890    1.291   .     S
O859   Zn864   1.963   .     S
O859   C920    1.290   1_455 S
O860   Zn864   1.918   .     S
O861   Zn863   1.918   .     S
C865   O910    1.291   .     A
C865   C888    1.403   .     S
C866   C868    1.446   .     S
C866   O915    1.300   .     A
C866   O967    1.290   .     S
C867   C873    1.384   .     A
C867   C871    1.400   .     A
C867   C890    1.449   .     S
C868   C872    1.399   .     A
C868   C874    1.383   .     A
C869   C878    1.405   .     A
C869   C871    1.394   .     A
C870   C872    1.392   .     A
C870   C879    1.405   .     A
C870   H957    1.084   .     S
C872   H954    1.083   .     S
C873   C875    1.392   .     A
C873   H899    1.081   .     S
C874   H898    1.079   .     S
C874   C877    1.391   .     A
C875   C878    1.413   .     A
C875   C880    1.416   .     A
C876   C889    1.403   .     S
C876   O911    1.291   .     A
C876   O963    1.278   .     S
C877   C881    1.420   .     A
C877   C879    1.417   .     A
C878   C400    1.386   1_556 S
C880   C885    1.433   .     A
C880   C395    1.421   1_556 S
C881   C884    1.437   .     A
C882   C884    1.484   .     S
C882   O916    1.221   .     D
C882   H895    1.085   .     S
C883   H896    1.086   .     S
C883   O908    1.221   .     D
C883   C885    1.480   .     S
C884   C886    1.397   .     A
C885   C887    1.391   .     A
C886   H891    1.085   .     S
C887   H897    1.086   .     S
C887   C393    1.386   1_556 S
C888   C511    1.339   1_565 S
C888   H580    1.088   1_565 S
C890   O914    1.301   .     A
H892   C565    1.088   1_565 S
H893   N905    1.029   .     S
H894   N906    1.029   .     S
H901   C925    1.082   .     S
H902   C923    1.084   .     S
N905   N906    1.290   .     D
N905   Zn918   2.023   .     S
N906   Zn917   2.023   .     S
O907   Zn917   1.952   .     S
O907   C919    1.278   .     S
O909   Zn918   1.952   .     S
O910   Zn918   1.979   .     S
O911   Zn917   1.979   .     S
O912   Zn917   1.963   .     S
O912   C944    1.291   .     S
O913   Zn918   1.963   .     S
O914   Zn918   1.918   .     S
O915   Zn917   1.918   .     S
C919   O964    1.291   .     A
C919   C942    1.403   .     S
C920   C922    1.446   .     S
C920   O969    1.300   .     A
C920   O859    1.290   1_655 S
C921   C927    1.384   .     A
C921   C925    1.400   .     A
C921   C944    1.449   .     S
C922   C926    1.399   .     A
C922   C928    1.383   .     A
C923   C932    1.405   .     A
C923   C925    1.394   .     A
C924   C926    1.392   .     A
C924   C933    1.405   .     A
C924   H849    1.084   1_655 S
C926   H846    1.083   1_655 S
C927   C929    1.392   .     A
C927   H953    1.081   .     S
C928   H952    1.079   .     S
C928   C931    1.391   .     A
C929   C932    1.413   .     A
C929   C934    1.416   .     A
C930   C943    1.403   .     S
C930   O965    1.291   .     A
C930   O855    1.278   1_655 S
C931   C935    1.420   .     A
C931   C933    1.417   .     A
C932   C454    1.386   1_556 S
C934   C939    1.433   .     A
C934   C449    1.421   1_556 S
C935   C938    1.437   .     A
C936   C938    1.484   .     S
C936   O970    1.221   .     D
C936   H949    1.085   .     S
C937   H950    1.086   .     S
C937   O962    1.221   .     D
C937   C939    1.480   .     S
C938   C940    1.397   .     A
C939   C941    1.391   .     A
C940   H945    1.085   .     S
C941   H951    1.086   .     S
C941   C447    1.386   1_556 S
C942   C565    1.339   1_565 S
C942   H634    1.088   1_565 S
C943   C672    1.339   1_655 S
C944   O968    1.301   .     A
H946   C619    1.088   1_565 S
H947   N959    1.029   .     S
H948   N960    1.029   .     S
H955   C817    1.082   1_655 S
H956   C815    1.084   1_655 S
N959   N960    1.290   .     D
N959   Zn972   2.023   .     S
N960   Zn971   2.023   .     S
O961   Zn971   1.952   .     S
O961   C811    1.278   1_655 S
O963   Zn972   1.952   .     S
O964   Zn972   1.979   .     S
O965   Zn971   1.979   .     S
O966   Zn971   1.963   .     S
O966   C836    1.291   1_655 S
O967   Zn972   1.963   .     S
O968   Zn972   1.918   .     S
O969   Zn971   1.918   .     S
