data_str_m3_o10_o17_pcu_sym.153
_audit_creation_date              2020-01-03
_audit_creation_method            'Materials Studio'
_symmetry_space_group_name_H-M    'P1'
_symmetry_Int_Tables_number       1
_symmetry_cell_setting            triclinic
loop_
_symmetry_equiv_pos_as_xyz
  x,y,z
_cell_length_a                    23.3085
_cell_length_b                    25.7356
_cell_length_c                    29.7166
_cell_angle_alpha                 91.0652
_cell_angle_beta                  86.1129
_cell_angle_gamma                 93.1263
loop_
_atom_site_label
_atom_site_type_symbol
_atom_site_fract_x
_atom_site_fract_y
_atom_site_fract_z
_atom_site_U_iso_or_equiv
_atom_site_adp_type
_atom_site_occupancy
C1     C     0.18151   0.26479   0.24889   0.00000  Uiso   1.00
C2     C     0.19151   0.20954   0.40593   0.00000  Uiso   1.00
C3     C     0.16409   0.16758   0.11616   0.00000  Uiso   1.00
C4     C     0.16924   0.16575   0.38384   0.00000  Uiso   1.00
C5     C     0.18666   0.21146   0.09324   0.00000  Uiso   1.00
C6     C     0.14667   0.12187   0.40677   0.00000  Uiso   1.00
C7     C     0.18749   0.21213   0.04646   0.00000  Uiso   1.00
C8     C     0.14584   0.12120   0.45354   0.00000  Uiso   1.00
C9     C     0.16596   0.16714   0.02346   0.00000  Uiso   1.00
C10    C     0.16738   0.16619   0.47654   0.00000  Uiso   1.00
C11    C     0.14308   0.12297   0.04748   0.00000  Uiso   1.00
C12    C     0.15182   0.06854   0.25111   0.00000  Uiso   1.00
C13    C     0.19025   0.21036   0.45252   0.00000  Uiso   1.00
C14    C     0.20955   0.25612   0.02209   0.00000  Uiso   1.00
C15    C     0.12379   0.07721   0.47791   0.00000  Uiso   1.00
C16    C     0.21087   0.25483   0.47526   0.00000  Uiso   1.00
C17    C     0.12246   0.07850   0.02474   0.00000  Uiso   1.00
C18    C     0.18794   0.31857   0.25590   0.00000  Uiso   1.00
C19    C     0.14539   0.01476   0.24410   0.00000  Uiso   1.00
C20    C     0.16750   0.16653   0.33637   0.00000  Uiso   1.00
C21    C     0.16583   0.16680   0.16363   0.00000  Uiso   1.00
C22    C     0.14182   0.12379   0.09407   0.00000  Uiso   1.00
Cl23   Cl    0.23559   0.31382   0.04853   0.00000  Uiso   1.00
Cl24   Cl    0.09775   0.01952   0.45147   0.00000  Uiso   1.00
Cl25   Cl    0.24458   0.00623   0.29043   0.00000  Uiso   1.00
Cl26   Cl    0.08876   0.32710   0.20957   0.00000  Uiso   1.00
H27    H     0.12487   0.09017   0.11323   0.00000  Uiso   1.00
H28    H     0.20846   0.24316   0.38677   0.00000  Uiso   1.00
H29    H     0.20346   0.24453   0.11231   0.00000  Uiso   1.00
H30    H     0.12987   0.08881   0.38769   0.00000  Uiso   1.00
H31    H     0.22787   0.28873   0.45659   0.00000  Uiso   1.00
H32    H     0.10547   0.04460   0.04341   0.00000  Uiso   1.00
H33    H     0.00464   0.12744   0.21606   0.00000  Uiso   1.00
H34    H     0.32869   0.20589   0.28394   0.00000  Uiso   1.00
N35    N     0.31678   0.15265   0.23783   0.00000  Uiso   1.00
N36    N     0.01656   0.18068   0.26217   0.00000  Uiso   1.00
O37    O     0.12975   0.24619   0.25299   0.00000  Uiso   1.00
O38    O     0.20358   0.08714   0.24702   0.00000  Uiso   1.00
O39    O     0.22613   0.23721   0.24519   0.00000  Uiso   1.00
O40    O     0.10720   0.09613   0.25482   0.00000  Uiso   1.00
O41    O     0.11847   0.17117   0.31998   0.00000  Uiso   1.00
O42    O     0.21486   0.16216   0.18003   0.00000  Uiso   1.00
O43    O     0.21485   0.16219   0.31218   0.00000  Uiso   1.00
O44    O     0.11848   0.17115   0.18783   0.00000  Uiso   1.00
Zn45   Zn    0.10231   0.17266   0.25521   0.00000  Uiso   1.00
Zn46   Zn    0.23102   0.16067   0.24479   0.00000  Uiso   1.00
C47    C     0.51484   0.26479   0.24889   0.00000  Uiso   1.00
C48    C     0.52484   0.20954   0.40593   0.00000  Uiso   1.00
C49    C     0.49743   0.16758   0.11616   0.00000  Uiso   1.00
C50    C     0.50257   0.16575   0.38384   0.00000  Uiso   1.00
C51    C     0.52000   0.21146   0.09324   0.00000  Uiso   1.00
C52    C     0.48000   0.12187   0.40677   0.00000  Uiso   1.00
C53    C     0.52083   0.21213   0.04646   0.00000  Uiso   1.00
C54    C     0.47917   0.12120   0.45354   0.00000  Uiso   1.00
C55    C     0.49929   0.16714   0.02346   0.00000  Uiso   1.00
C56    C     0.50071   0.16619   0.47654   0.00000  Uiso   1.00
C57    C     0.47642   0.12297   0.04748   0.00000  Uiso   1.00
C58    C     0.48516   0.06854   0.25111   0.00000  Uiso   1.00
C59    C     0.52358   0.21036   0.45252   0.00000  Uiso   1.00
C60    C     0.54288   0.25612   0.02209   0.00000  Uiso   1.00
C61    C     0.45712   0.07721   0.47791   0.00000  Uiso   1.00
C62    C     0.54421   0.25483   0.47526   0.00000  Uiso   1.00
C63    C     0.45579   0.07850   0.02474   0.00000  Uiso   1.00
C64    C     0.52127   0.31857   0.25590   0.00000  Uiso   1.00
C65    C     0.47873   0.01476   0.24410   0.00000  Uiso   1.00
C66    C     0.50083   0.16653   0.33637   0.00000  Uiso   1.00
C67    C     0.49917   0.16680   0.16363   0.00000  Uiso   1.00
C68    C     0.47516   0.12379   0.09407   0.00000  Uiso   1.00
Cl69   Cl    0.56892   0.31382   0.04853   0.00000  Uiso   1.00
Cl70   Cl    0.43108   0.01952   0.45147   0.00000  Uiso   1.00
Cl71   Cl    0.57791   0.00623   0.29043   0.00000  Uiso   1.00
Cl72   Cl    0.42209   0.32710   0.20957   0.00000  Uiso   1.00
H73    H     0.45820   0.09017   0.11323   0.00000  Uiso   1.00
H74    H     0.54180   0.24316   0.38677   0.00000  Uiso   1.00
H75    H     0.53679   0.24453   0.11231   0.00000  Uiso   1.00
H76    H     0.46321   0.08881   0.38769   0.00000  Uiso   1.00
H77    H     0.56120   0.28873   0.45659   0.00000  Uiso   1.00
H78    H     0.43880   0.04460   0.04341   0.00000  Uiso   1.00
H79    H     0.33798   0.12744   0.21606   0.00000  Uiso   1.00
H80    H     0.66202   0.20589   0.28394   0.00000  Uiso   1.00
N81    N     0.65011   0.15265   0.23783   0.00000  Uiso   1.00
N82    N     0.34989   0.18068   0.26217   0.00000  Uiso   1.00
O83    O     0.46308   0.24619   0.25299   0.00000  Uiso   1.00
O84    O     0.53692   0.08714   0.24702   0.00000  Uiso   1.00
O85    O     0.55946   0.23721   0.24519   0.00000  Uiso   1.00
O86    O     0.44054   0.09613   0.25482   0.00000  Uiso   1.00
O87    O     0.45181   0.17117   0.31998   0.00000  Uiso   1.00
O88    O     0.54819   0.16216   0.18003   0.00000  Uiso   1.00
O89    O     0.54819   0.16219   0.31218   0.00000  Uiso   1.00
O90    O     0.45181   0.17115   0.18783   0.00000  Uiso   1.00
Zn91   Zn    0.43565   0.17266   0.25521   0.00000  Uiso   1.00
Zn92   Zn    0.56435   0.16067   0.24479   0.00000  Uiso   1.00
C93    C     0.84818   0.26479   0.24889   0.00000  Uiso   1.00
C94    C     0.85817   0.20954   0.40593   0.00000  Uiso   1.00
C95    C     0.83076   0.16758   0.11616   0.00000  Uiso   1.00
C96    C     0.83591   0.16575   0.38384   0.00000  Uiso   1.00
C97    C     0.85333   0.21146   0.09324   0.00000  Uiso   1.00
C98    C     0.81334   0.12187   0.40677   0.00000  Uiso   1.00
C99    C     0.85416   0.21213   0.04646   0.00000  Uiso   1.00
C100   C     0.81251   0.12120   0.45354   0.00000  Uiso   1.00
C101   C     0.83262   0.16714   0.02346   0.00000  Uiso   1.00
C102   C     0.83404   0.16619   0.47654   0.00000  Uiso   1.00
C103   C     0.80975   0.12297   0.04748   0.00000  Uiso   1.00
C104   C     0.81849   0.06854   0.25111   0.00000  Uiso   1.00
C105   C     0.85691   0.21036   0.45252   0.00000  Uiso   1.00
C106   C     0.87621   0.25612   0.02209   0.00000  Uiso   1.00
C107   C     0.79045   0.07721   0.47791   0.00000  Uiso   1.00
C108   C     0.87754   0.25483   0.47526   0.00000  Uiso   1.00
C109   C     0.78913   0.07850   0.02474   0.00000  Uiso   1.00
C110   C     0.85461   0.31857   0.25590   0.00000  Uiso   1.00
C111   C     0.81206   0.01476   0.24410   0.00000  Uiso   1.00
C112   C     0.83417   0.16653   0.33637   0.00000  Uiso   1.00
C113   C     0.83250   0.16680   0.16363   0.00000  Uiso   1.00
C114   C     0.80849   0.12379   0.09407   0.00000  Uiso   1.00
Cl115  Cl    0.90225   0.31382   0.04853   0.00000  Uiso   1.00
Cl116  Cl    0.76441   0.01952   0.45147   0.00000  Uiso   1.00
Cl117  Cl    0.91124   0.00623   0.29043   0.00000  Uiso   1.00
Cl118  Cl    0.75542   0.32710   0.20957   0.00000  Uiso   1.00
H119   H     0.79154   0.09017   0.11323   0.00000  Uiso   1.00
H120   H     0.87513   0.24316   0.38677   0.00000  Uiso   1.00
H121   H     0.87013   0.24453   0.11231   0.00000  Uiso   1.00
H122   H     0.79654   0.08881   0.38769   0.00000  Uiso   1.00
H123   H     0.89453   0.28873   0.45659   0.00000  Uiso   1.00
H124   H     0.77213   0.04460   0.04341   0.00000  Uiso   1.00
H125   H     0.67131   0.12744   0.21606   0.00000  Uiso   1.00
H126   H     0.99536   0.20589   0.28394   0.00000  Uiso   1.00
N127   N     0.98344   0.15265   0.23783   0.00000  Uiso   1.00
N128   N     0.68322   0.18068   0.26217   0.00000  Uiso   1.00
O129   O     0.79642   0.24619   0.25299   0.00000  Uiso   1.00
O130   O     0.87025   0.08714   0.24702   0.00000  Uiso   1.00
O131   O     0.89280   0.23721   0.24519   0.00000  Uiso   1.00
O132   O     0.77387   0.09613   0.25482   0.00000  Uiso   1.00
O133   O     0.78514   0.17117   0.31998   0.00000  Uiso   1.00
O134   O     0.88153   0.16216   0.18003   0.00000  Uiso   1.00
O135   O     0.88152   0.16219   0.31218   0.00000  Uiso   1.00
O136   O     0.78515   0.17115   0.18783   0.00000  Uiso   1.00
Zn137  Zn    0.76898   0.17266   0.25521   0.00000  Uiso   1.00
Zn138  Zn    0.89769   0.16067   0.24479   0.00000  Uiso   1.00
C139   C     0.18151   0.59812   0.24889   0.00000  Uiso   1.00
C140   C     0.19151   0.54288   0.40593   0.00000  Uiso   1.00
C141   C     0.16409   0.50092   0.11616   0.00000  Uiso   1.00
C142   C     0.16924   0.49908   0.38384   0.00000  Uiso   1.00
C143   C     0.18666   0.54480   0.09324   0.00000  Uiso   1.00
C144   C     0.14667   0.45520   0.40677   0.00000  Uiso   1.00
C145   C     0.18749   0.54546   0.04646   0.00000  Uiso   1.00
C146   C     0.14584   0.45454   0.45354   0.00000  Uiso   1.00
C147   C     0.16596   0.50047   0.02346   0.00000  Uiso   1.00
C148   C     0.16738   0.49953   0.47654   0.00000  Uiso   1.00
C149   C     0.14308   0.45630   0.04748   0.00000  Uiso   1.00
C150   C     0.15182   0.40188   0.25111   0.00000  Uiso   1.00
C151   C     0.19025   0.54370   0.45252   0.00000  Uiso   1.00
C152   C     0.20955   0.58945   0.02209   0.00000  Uiso   1.00
C153   C     0.12379   0.41055   0.47791   0.00000  Uiso   1.00
C154   C     0.21087   0.58817   0.47526   0.00000  Uiso   1.00
C155   C     0.12246   0.41183   0.02474   0.00000  Uiso   1.00
C156   C     0.18794   0.65191   0.25590   0.00000  Uiso   1.00
C157   C     0.14539   0.34809   0.24410   0.00000  Uiso   1.00
C158   C     0.16750   0.49987   0.33637   0.00000  Uiso   1.00
C159   C     0.16583   0.50013   0.16363   0.00000  Uiso   1.00
C160   C     0.14182   0.45712   0.09407   0.00000  Uiso   1.00
Cl161  Cl    0.23559   0.64715   0.04853   0.00000  Uiso   1.00
Cl162  Cl    0.09775   0.35285   0.45147   0.00000  Uiso   1.00
Cl163  Cl    0.24458   0.33957   0.29043   0.00000  Uiso   1.00
Cl164  Cl    0.08876   0.66043   0.20957   0.00000  Uiso   1.00
H165   H     0.12487   0.42350   0.11323   0.00000  Uiso   1.00
H166   H     0.20846   0.57650   0.38677   0.00000  Uiso   1.00
H167   H     0.20346   0.57786   0.11231   0.00000  Uiso   1.00
H168   H     0.12987   0.42214   0.38769   0.00000  Uiso   1.00
H169   H     0.22787   0.62207   0.45659   0.00000  Uiso   1.00
H170   H     0.10547   0.37793   0.04341   0.00000  Uiso   1.00
H171   H     0.00464   0.46077   0.21606   0.00000  Uiso   1.00
H172   H     0.32869   0.53923   0.28394   0.00000  Uiso   1.00
N173   N     0.31678   0.48598   0.23783   0.00000  Uiso   1.00
N174   N     0.01656   0.51402   0.26217   0.00000  Uiso   1.00
O175   O     0.12975   0.57952   0.25299   0.00000  Uiso   1.00
O176   O     0.20358   0.42048   0.24702   0.00000  Uiso   1.00
O177   O     0.22613   0.57054   0.24519   0.00000  Uiso   1.00
O178   O     0.10720   0.42946   0.25482   0.00000  Uiso   1.00
O179   O     0.11847   0.50450   0.31998   0.00000  Uiso   1.00
O180   O     0.21486   0.49550   0.18003   0.00000  Uiso   1.00
O181   O     0.21485   0.49552   0.31218   0.00000  Uiso   1.00
O182   O     0.11848   0.50448   0.18783   0.00000  Uiso   1.00
Zn183  Zn    0.10231   0.50600   0.25521   0.00000  Uiso   1.00
Zn184  Zn    0.23102   0.49400   0.24479   0.00000  Uiso   1.00
C185   C     0.51484   0.59812   0.24889   0.00000  Uiso   1.00
C186   C     0.52484   0.54288   0.40593   0.00000  Uiso   1.00
C187   C     0.49743   0.50092   0.11616   0.00000  Uiso   1.00
C188   C     0.50257   0.49908   0.38384   0.00000  Uiso   1.00
C189   C     0.52000   0.54480   0.09324   0.00000  Uiso   1.00
C190   C     0.48000   0.45520   0.40677   0.00000  Uiso   1.00
C191   C     0.52083   0.54546   0.04646   0.00000  Uiso   1.00
C192   C     0.47917   0.45454   0.45354   0.00000  Uiso   1.00
C193   C     0.49929   0.50047   0.02346   0.00000  Uiso   1.00
C194   C     0.50071   0.49953   0.47654   0.00000  Uiso   1.00
C195   C     0.47642   0.45630   0.04748   0.00000  Uiso   1.00
C196   C     0.48516   0.40188   0.25111   0.00000  Uiso   1.00
C197   C     0.52358   0.54370   0.45252   0.00000  Uiso   1.00
C198   C     0.54288   0.58945   0.02209   0.00000  Uiso   1.00
C199   C     0.45712   0.41055   0.47791   0.00000  Uiso   1.00
C200   C     0.54421   0.58817   0.47526   0.00000  Uiso   1.00
C201   C     0.45579   0.41183   0.02474   0.00000  Uiso   1.00
C202   C     0.52127   0.65191   0.25590   0.00000  Uiso   1.00
C203   C     0.47873   0.34809   0.24410   0.00000  Uiso   1.00
C204   C     0.50083   0.49987   0.33637   0.00000  Uiso   1.00
C205   C     0.49917   0.50013   0.16363   0.00000  Uiso   1.00
C206   C     0.47516   0.45712   0.09407   0.00000  Uiso   1.00
Cl207  Cl    0.56892   0.64715   0.04853   0.00000  Uiso   1.00
Cl208  Cl    0.43108   0.35285   0.45147   0.00000  Uiso   1.00
Cl209  Cl    0.57791   0.33957   0.29043   0.00000  Uiso   1.00
Cl210  Cl    0.42209   0.66043   0.20957   0.00000  Uiso   1.00
H211   H     0.45820   0.42350   0.11323   0.00000  Uiso   1.00
H212   H     0.54180   0.57650   0.38677   0.00000  Uiso   1.00
H213   H     0.53679   0.57786   0.11231   0.00000  Uiso   1.00
H214   H     0.46321   0.42214   0.38769   0.00000  Uiso   1.00
H215   H     0.56120   0.62207   0.45659   0.00000  Uiso   1.00
H216   H     0.43880   0.37793   0.04341   0.00000  Uiso   1.00
H217   H     0.33798   0.46077   0.21606   0.00000  Uiso   1.00
H218   H     0.66202   0.53923   0.28394   0.00000  Uiso   1.00
N219   N     0.65011   0.48598   0.23783   0.00000  Uiso   1.00
N220   N     0.34989   0.51402   0.26217   0.00000  Uiso   1.00
O221   O     0.46308   0.57952   0.25299   0.00000  Uiso   1.00
O222   O     0.53692   0.42048   0.24702   0.00000  Uiso   1.00
O223   O     0.55946   0.57054   0.24519   0.00000  Uiso   1.00
O224   O     0.44054   0.42946   0.25482   0.00000  Uiso   1.00
O225   O     0.45181   0.50450   0.31998   0.00000  Uiso   1.00
O226   O     0.54819   0.49550   0.18003   0.00000  Uiso   1.00
O227   O     0.54819   0.49552   0.31218   0.00000  Uiso   1.00
O228   O     0.45181   0.50448   0.18783   0.00000  Uiso   1.00
Zn229  Zn    0.43565   0.50600   0.25521   0.00000  Uiso   1.00
Zn230  Zn    0.56435   0.49400   0.24479   0.00000  Uiso   1.00
C231   C     0.84818   0.59812   0.24889   0.00000  Uiso   1.00
C232   C     0.85817   0.54288   0.40593   0.00000  Uiso   1.00
C233   C     0.83076   0.50092   0.11616   0.00000  Uiso   1.00
C234   C     0.83591   0.49908   0.38384   0.00000  Uiso   1.00
C235   C     0.85333   0.54480   0.09324   0.00000  Uiso   1.00
C236   C     0.81334   0.45520   0.40677   0.00000  Uiso   1.00
C237   C     0.85416   0.54546   0.04646   0.00000  Uiso   1.00
C238   C     0.81251   0.45454   0.45354   0.00000  Uiso   1.00
C239   C     0.83262   0.50047   0.02346   0.00000  Uiso   1.00
C240   C     0.83404   0.49953   0.47654   0.00000  Uiso   1.00
C241   C     0.80975   0.45630   0.04748   0.00000  Uiso   1.00
C242   C     0.81849   0.40188   0.25111   0.00000  Uiso   1.00
C243   C     0.85691   0.54370   0.45252   0.00000  Uiso   1.00
C244   C     0.87621   0.58945   0.02209   0.00000  Uiso   1.00
C245   C     0.79045   0.41055   0.47791   0.00000  Uiso   1.00
C246   C     0.87754   0.58817   0.47526   0.00000  Uiso   1.00
C247   C     0.78913   0.41183   0.02474   0.00000  Uiso   1.00
C248   C     0.85461   0.65191   0.25590   0.00000  Uiso   1.00
C249   C     0.81206   0.34809   0.24410   0.00000  Uiso   1.00
C250   C     0.83417   0.49987   0.33637   0.00000  Uiso   1.00
C251   C     0.83250   0.50013   0.16363   0.00000  Uiso   1.00
C252   C     0.80849   0.45712   0.09407   0.00000  Uiso   1.00
Cl253  Cl    0.90225   0.64715   0.04853   0.00000  Uiso   1.00
Cl254  Cl    0.76441   0.35285   0.45147   0.00000  Uiso   1.00
Cl255  Cl    0.91124   0.33957   0.29043   0.00000  Uiso   1.00
Cl256  Cl    0.75542   0.66043   0.20957   0.00000  Uiso   1.00
H257   H     0.79154   0.42350   0.11323   0.00000  Uiso   1.00
H258   H     0.87513   0.57650   0.38677   0.00000  Uiso   1.00
H259   H     0.87013   0.57786   0.11231   0.00000  Uiso   1.00
H260   H     0.79654   0.42214   0.38769   0.00000  Uiso   1.00
H261   H     0.89453   0.62207   0.45659   0.00000  Uiso   1.00
H262   H     0.77213   0.37793   0.04341   0.00000  Uiso   1.00
H263   H     0.67131   0.46077   0.21606   0.00000  Uiso   1.00
H264   H     0.99536   0.53923   0.28394   0.00000  Uiso   1.00
N265   N     0.98344   0.48598   0.23783   0.00000  Uiso   1.00
N266   N     0.68322   0.51402   0.26217   0.00000  Uiso   1.00
O267   O     0.79642   0.57952   0.25299   0.00000  Uiso   1.00
O268   O     0.87025   0.42048   0.24702   0.00000  Uiso   1.00
O269   O     0.89280   0.57054   0.24519   0.00000  Uiso   1.00
O270   O     0.77387   0.42946   0.25482   0.00000  Uiso   1.00
O271   O     0.78514   0.50450   0.31998   0.00000  Uiso   1.00
O272   O     0.88153   0.49550   0.18003   0.00000  Uiso   1.00
O273   O     0.88152   0.49552   0.31218   0.00000  Uiso   1.00
O274   O     0.78515   0.50448   0.18783   0.00000  Uiso   1.00
Zn275  Zn    0.76898   0.50600   0.25521   0.00000  Uiso   1.00
Zn276  Zn    0.89769   0.49400   0.24479   0.00000  Uiso   1.00
C277   C     0.18151   0.93146   0.24889   0.00000  Uiso   1.00
C278   C     0.19151   0.87621   0.40593   0.00000  Uiso   1.00
C279   C     0.16409   0.83425   0.11616   0.00000  Uiso   1.00
C280   C     0.16924   0.83242   0.38384   0.00000  Uiso   1.00
C281   C     0.18666   0.87813   0.09324   0.00000  Uiso   1.00
C282   C     0.14667   0.78853   0.40677   0.00000  Uiso   1.00
C283   C     0.18749   0.87880   0.04646   0.00000  Uiso   1.00
C284   C     0.14584   0.78787   0.45354   0.00000  Uiso   1.00
C285   C     0.16596   0.83381   0.02346   0.00000  Uiso   1.00
C286   C     0.16738   0.83286   0.47654   0.00000  Uiso   1.00
C287   C     0.14308   0.78964   0.04748   0.00000  Uiso   1.00
C288   C     0.15182   0.73521   0.25111   0.00000  Uiso   1.00
C289   C     0.19025   0.87703   0.45252   0.00000  Uiso   1.00
C290   C     0.20955   0.92279   0.02209   0.00000  Uiso   1.00
C291   C     0.12379   0.74388   0.47791   0.00000  Uiso   1.00
C292   C     0.21087   0.92150   0.47526   0.00000  Uiso   1.00
C293   C     0.12246   0.74517   0.02474   0.00000  Uiso   1.00
C294   C     0.18794   0.98524   0.25590   0.00000  Uiso   1.00
C295   C     0.14539   0.68143   0.24410   0.00000  Uiso   1.00
C296   C     0.16750   0.83320   0.33637   0.00000  Uiso   1.00
C297   C     0.16583   0.83347   0.16363   0.00000  Uiso   1.00
C298   C     0.14182   0.79046   0.09407   0.00000  Uiso   1.00
Cl299  Cl    0.23559   0.98048   0.04853   0.00000  Uiso   1.00
Cl300  Cl    0.09775   0.68618   0.45147   0.00000  Uiso   1.00
Cl301  Cl    0.24458   0.67290   0.29043   0.00000  Uiso   1.00
Cl302  Cl    0.08876   0.99376   0.20957   0.00000  Uiso   1.00
H303   H     0.12487   0.75684   0.11323   0.00000  Uiso   1.00
H304   H     0.20846   0.90983   0.38677   0.00000  Uiso   1.00
H305   H     0.20346   0.91119   0.11231   0.00000  Uiso   1.00
H306   H     0.12987   0.75547   0.38769   0.00000  Uiso   1.00
H307   H     0.22787   0.95540   0.45659   0.00000  Uiso   1.00
H308   H     0.10547   0.71127   0.04341   0.00000  Uiso   1.00
H309   H     0.00464   0.79411   0.21606   0.00000  Uiso   1.00
H310   H     0.32869   0.87256   0.28394   0.00000  Uiso   1.00
N311   N     0.31678   0.81932   0.23783   0.00000  Uiso   1.00
N312   N     0.01656   0.84735   0.26217   0.00000  Uiso   1.00
O313   O     0.12975   0.91286   0.25299   0.00000  Uiso   1.00
O314   O     0.20358   0.75381   0.24702   0.00000  Uiso   1.00
O315   O     0.22613   0.90387   0.24519   0.00000  Uiso   1.00
O316   O     0.10720   0.76279   0.25482   0.00000  Uiso   1.00
O317   O     0.11847   0.83784   0.31998   0.00000  Uiso   1.00
O318   O     0.21486   0.82883   0.18003   0.00000  Uiso   1.00
O319   O     0.21485   0.82885   0.31218   0.00000  Uiso   1.00
O320   O     0.11848   0.83781   0.18783   0.00000  Uiso   1.00
Zn321  Zn    0.10231   0.83933   0.25521   0.00000  Uiso   1.00
Zn322  Zn    0.23102   0.82734   0.24479   0.00000  Uiso   1.00
C323   C     0.51484   0.93146   0.24889   0.00000  Uiso   1.00
C324   C     0.52484   0.87621   0.40593   0.00000  Uiso   1.00
C325   C     0.49743   0.83425   0.11616   0.00000  Uiso   1.00
C326   C     0.50257   0.83242   0.38384   0.00000  Uiso   1.00
C327   C     0.52000   0.87813   0.09324   0.00000  Uiso   1.00
C328   C     0.48000   0.78853   0.40677   0.00000  Uiso   1.00
C329   C     0.52083   0.87880   0.04646   0.00000  Uiso   1.00
C330   C     0.47917   0.78787   0.45354   0.00000  Uiso   1.00
C331   C     0.49929   0.83381   0.02346   0.00000  Uiso   1.00
C332   C     0.50071   0.83286   0.47654   0.00000  Uiso   1.00
C333   C     0.47642   0.78964   0.04748   0.00000  Uiso   1.00
C334   C     0.48516   0.73521   0.25111   0.00000  Uiso   1.00
C335   C     0.52358   0.87703   0.45252   0.00000  Uiso   1.00
C336   C     0.54288   0.92279   0.02209   0.00000  Uiso   1.00
C337   C     0.45712   0.74388   0.47791   0.00000  Uiso   1.00
C338   C     0.54421   0.92150   0.47526   0.00000  Uiso   1.00
C339   C     0.45579   0.74517   0.02474   0.00000  Uiso   1.00
C340   C     0.52127   0.98524   0.25590   0.00000  Uiso   1.00
C341   C     0.47873   0.68143   0.24410   0.00000  Uiso   1.00
C342   C     0.50083   0.83320   0.33637   0.00000  Uiso   1.00
C343   C     0.49917   0.83347   0.16363   0.00000  Uiso   1.00
C344   C     0.47516   0.79046   0.09407   0.00000  Uiso   1.00
Cl345  Cl    0.56892   0.98048   0.04853   0.00000  Uiso   1.00
Cl346  Cl    0.43108   0.68618   0.45147   0.00000  Uiso   1.00
Cl347  Cl    0.57791   0.67290   0.29043   0.00000  Uiso   1.00
Cl348  Cl    0.42209   0.99376   0.20957   0.00000  Uiso   1.00
H349   H     0.45820   0.75684   0.11323   0.00000  Uiso   1.00
H350   H     0.54180   0.90983   0.38677   0.00000  Uiso   1.00
H351   H     0.53679   0.91119   0.11231   0.00000  Uiso   1.00
H352   H     0.46321   0.75547   0.38769   0.00000  Uiso   1.00
H353   H     0.56120   0.95540   0.45659   0.00000  Uiso   1.00
H354   H     0.43880   0.71127   0.04341   0.00000  Uiso   1.00
H355   H     0.33798   0.79411   0.21606   0.00000  Uiso   1.00
H356   H     0.66202   0.87256   0.28394   0.00000  Uiso   1.00
N357   N     0.65011   0.81932   0.23783   0.00000  Uiso   1.00
N358   N     0.34989   0.84735   0.26217   0.00000  Uiso   1.00
O359   O     0.46308   0.91286   0.25299   0.00000  Uiso   1.00
O360   O     0.53692   0.75381   0.24702   0.00000  Uiso   1.00
O361   O     0.55946   0.90387   0.24519   0.00000  Uiso   1.00
O362   O     0.44054   0.76279   0.25482   0.00000  Uiso   1.00
O363   O     0.45181   0.83784   0.31998   0.00000  Uiso   1.00
O364   O     0.54819   0.82883   0.18003   0.00000  Uiso   1.00
O365   O     0.54819   0.82885   0.31218   0.00000  Uiso   1.00
O366   O     0.45181   0.83781   0.18783   0.00000  Uiso   1.00
Zn367  Zn    0.43565   0.83933   0.25521   0.00000  Uiso   1.00
Zn368  Zn    0.56435   0.82734   0.24479   0.00000  Uiso   1.00
C369   C     0.84818   0.93146   0.24889   0.00000  Uiso   1.00
C370   C     0.85817   0.87621   0.40593   0.00000  Uiso   1.00
C371   C     0.83076   0.83425   0.11616   0.00000  Uiso   1.00
C372   C     0.83591   0.83242   0.38384   0.00000  Uiso   1.00
C373   C     0.85333   0.87813   0.09324   0.00000  Uiso   1.00
C374   C     0.81334   0.78853   0.40677   0.00000  Uiso   1.00
C375   C     0.85416   0.87880   0.04646   0.00000  Uiso   1.00
C376   C     0.81251   0.78787   0.45354   0.00000  Uiso   1.00
C377   C     0.83262   0.83381   0.02346   0.00000  Uiso   1.00
C378   C     0.83404   0.83286   0.47654   0.00000  Uiso   1.00
C379   C     0.80975   0.78964   0.04748   0.00000  Uiso   1.00
C380   C     0.81849   0.73521   0.25111   0.00000  Uiso   1.00
C381   C     0.85691   0.87703   0.45252   0.00000  Uiso   1.00
C382   C     0.87621   0.92279   0.02209   0.00000  Uiso   1.00
C383   C     0.79045   0.74388   0.47791   0.00000  Uiso   1.00
C384   C     0.87754   0.92150   0.47526   0.00000  Uiso   1.00
C385   C     0.78913   0.74517   0.02474   0.00000  Uiso   1.00
C386   C     0.85461   0.98524   0.25590   0.00000  Uiso   1.00
C387   C     0.81206   0.68143   0.24410   0.00000  Uiso   1.00
C388   C     0.83417   0.83320   0.33637   0.00000  Uiso   1.00
C389   C     0.83250   0.83347   0.16363   0.00000  Uiso   1.00
C390   C     0.80849   0.79046   0.09407   0.00000  Uiso   1.00
Cl391  Cl    0.90225   0.98048   0.04853   0.00000  Uiso   1.00
Cl392  Cl    0.76441   0.68618   0.45147   0.00000  Uiso   1.00
Cl393  Cl    0.91124   0.67290   0.29043   0.00000  Uiso   1.00
Cl394  Cl    0.75542   0.99376   0.20957   0.00000  Uiso   1.00
H395   H     0.79154   0.75684   0.11323   0.00000  Uiso   1.00
H396   H     0.87513   0.90983   0.38677   0.00000  Uiso   1.00
H397   H     0.87013   0.91119   0.11231   0.00000  Uiso   1.00
H398   H     0.79654   0.75547   0.38769   0.00000  Uiso   1.00
H399   H     0.89453   0.95540   0.45659   0.00000  Uiso   1.00
H400   H     0.77213   0.71127   0.04341   0.00000  Uiso   1.00
H401   H     0.67131   0.79411   0.21606   0.00000  Uiso   1.00
H402   H     0.99536   0.87256   0.28394   0.00000  Uiso   1.00
N403   N     0.98344   0.81932   0.23783   0.00000  Uiso   1.00
N404   N     0.68322   0.84735   0.26217   0.00000  Uiso   1.00
O405   O     0.79642   0.91286   0.25299   0.00000  Uiso   1.00
O406   O     0.87025   0.75381   0.24702   0.00000  Uiso   1.00
O407   O     0.89280   0.90387   0.24519   0.00000  Uiso   1.00
O408   O     0.77387   0.76279   0.25482   0.00000  Uiso   1.00
O409   O     0.78514   0.83784   0.31998   0.00000  Uiso   1.00
O410   O     0.88153   0.82883   0.18003   0.00000  Uiso   1.00
O411   O     0.88152   0.82885   0.31218   0.00000  Uiso   1.00
O412   O     0.78515   0.83781   0.18783   0.00000  Uiso   1.00
Zn413  Zn    0.76898   0.83933   0.25521   0.00000  Uiso   1.00
Zn414  Zn    0.89769   0.82734   0.24479   0.00000  Uiso   1.00
C415   C     0.18151   0.26479   0.74889   0.00000  Uiso   1.00
C416   C     0.19151   0.20954   0.90593   0.00000  Uiso   1.00
C417   C     0.16409   0.16758   0.61616   0.00000  Uiso   1.00
C418   C     0.16924   0.16575   0.88384   0.00000  Uiso   1.00
C419   C     0.18666   0.21146   0.59324   0.00000  Uiso   1.00
C420   C     0.14667   0.12187   0.90677   0.00000  Uiso   1.00
C421   C     0.18749   0.21213   0.54646   0.00000  Uiso   1.00
C422   C     0.14584   0.12120   0.95354   0.00000  Uiso   1.00
C423   C     0.16596   0.16714   0.52346   0.00000  Uiso   1.00
C424   C     0.16738   0.16619   0.97654   0.00000  Uiso   1.00
C425   C     0.14308   0.12297   0.54748   0.00000  Uiso   1.00
C426   C     0.15182   0.06854   0.75111   0.00000  Uiso   1.00
C427   C     0.19025   0.21036   0.95252   0.00000  Uiso   1.00
C428   C     0.20955   0.25612   0.52209   0.00000  Uiso   1.00
C429   C     0.12379   0.07721   0.97791   0.00000  Uiso   1.00
C430   C     0.21087   0.25483   0.97526   0.00000  Uiso   1.00
C431   C     0.12246   0.07850   0.52474   0.00000  Uiso   1.00
C432   C     0.18794   0.31857   0.75590   0.00000  Uiso   1.00
C433   C     0.14539   0.01476   0.74410   0.00000  Uiso   1.00
C434   C     0.16750   0.16653   0.83637   0.00000  Uiso   1.00
C435   C     0.16583   0.16680   0.66363   0.00000  Uiso   1.00
C436   C     0.14182   0.12379   0.59407   0.00000  Uiso   1.00
Cl437  Cl    0.23559   0.31382   0.54853   0.00000  Uiso   1.00
Cl438  Cl    0.09775   0.01952   0.95147   0.00000  Uiso   1.00
Cl439  Cl    0.24458   0.00623   0.79043   0.00000  Uiso   1.00
Cl440  Cl    0.08876   0.32710   0.70957   0.00000  Uiso   1.00
H441   H     0.12487   0.09017   0.61323   0.00000  Uiso   1.00
H442   H     0.20846   0.24316   0.88677   0.00000  Uiso   1.00
H443   H     0.20346   0.24453   0.61231   0.00000  Uiso   1.00
H444   H     0.12987   0.08881   0.88769   0.00000  Uiso   1.00
H445   H     0.22787   0.28873   0.95659   0.00000  Uiso   1.00
H446   H     0.10547   0.04460   0.54341   0.00000  Uiso   1.00
H447   H     0.00464   0.12744   0.71606   0.00000  Uiso   1.00
H448   H     0.32869   0.20589   0.78394   0.00000  Uiso   1.00
N449   N     0.31678   0.15265   0.73783   0.00000  Uiso   1.00
N450   N     0.01656   0.18068   0.76217   0.00000  Uiso   1.00
O451   O     0.12975   0.24619   0.75299   0.00000  Uiso   1.00
O452   O     0.20358   0.08714   0.74702   0.00000  Uiso   1.00
O453   O     0.22613   0.23721   0.74519   0.00000  Uiso   1.00
O454   O     0.10720   0.09613   0.75482   0.00000  Uiso   1.00
O455   O     0.11847   0.17117   0.81998   0.00000  Uiso   1.00
O456   O     0.21486   0.16216   0.68003   0.00000  Uiso   1.00
O457   O     0.21485   0.16219   0.81218   0.00000  Uiso   1.00
O458   O     0.11848   0.17115   0.68783   0.00000  Uiso   1.00
Zn459  Zn    0.10231   0.17266   0.75521   0.00000  Uiso   1.00
Zn460  Zn    0.23102   0.16067   0.74479   0.00000  Uiso   1.00
C461   C     0.51484   0.26479   0.74889   0.00000  Uiso   1.00
C462   C     0.52484   0.20954   0.90593   0.00000  Uiso   1.00
C463   C     0.49743   0.16758   0.61616   0.00000  Uiso   1.00
C464   C     0.50257   0.16575   0.88384   0.00000  Uiso   1.00
C465   C     0.52000   0.21146   0.59324   0.00000  Uiso   1.00
C466   C     0.48000   0.12187   0.90677   0.00000  Uiso   1.00
C467   C     0.52083   0.21213   0.54646   0.00000  Uiso   1.00
C468   C     0.47917   0.12120   0.95354   0.00000  Uiso   1.00
C469   C     0.49929   0.16714   0.52346   0.00000  Uiso   1.00
C470   C     0.50071   0.16619   0.97654   0.00000  Uiso   1.00
C471   C     0.47642   0.12297   0.54748   0.00000  Uiso   1.00
C472   C     0.48516   0.06854   0.75111   0.00000  Uiso   1.00
C473   C     0.52358   0.21036   0.95252   0.00000  Uiso   1.00
C474   C     0.54288   0.25612   0.52209   0.00000  Uiso   1.00
C475   C     0.45712   0.07721   0.97791   0.00000  Uiso   1.00
C476   C     0.54421   0.25483   0.97526   0.00000  Uiso   1.00
C477   C     0.45579   0.07850   0.52474   0.00000  Uiso   1.00
C478   C     0.52127   0.31857   0.75590   0.00000  Uiso   1.00
C479   C     0.47873   0.01476   0.74410   0.00000  Uiso   1.00
C480   C     0.50083   0.16653   0.83637   0.00000  Uiso   1.00
C481   C     0.49917   0.16680   0.66363   0.00000  Uiso   1.00
C482   C     0.47516   0.12379   0.59407   0.00000  Uiso   1.00
Cl483  Cl    0.56892   0.31382   0.54853   0.00000  Uiso   1.00
Cl484  Cl    0.43108   0.01952   0.95147   0.00000  Uiso   1.00
Cl485  Cl    0.57791   0.00623   0.79043   0.00000  Uiso   1.00
Cl486  Cl    0.42209   0.32710   0.70957   0.00000  Uiso   1.00
H487   H     0.45820   0.09017   0.61323   0.00000  Uiso   1.00
H488   H     0.54180   0.24316   0.88677   0.00000  Uiso   1.00
H489   H     0.53679   0.24453   0.61231   0.00000  Uiso   1.00
H490   H     0.46321   0.08881   0.88769   0.00000  Uiso   1.00
H491   H     0.56120   0.28873   0.95659   0.00000  Uiso   1.00
H492   H     0.43880   0.04460   0.54341   0.00000  Uiso   1.00
H493   H     0.33798   0.12744   0.71606   0.00000  Uiso   1.00
H494   H     0.66202   0.20589   0.78394   0.00000  Uiso   1.00
N495   N     0.65011   0.15265   0.73783   0.00000  Uiso   1.00
N496   N     0.34989   0.18068   0.76217   0.00000  Uiso   1.00
O497   O     0.46308   0.24619   0.75299   0.00000  Uiso   1.00
O498   O     0.53692   0.08714   0.74702   0.00000  Uiso   1.00
O499   O     0.55946   0.23721   0.74519   0.00000  Uiso   1.00
O500   O     0.44054   0.09613   0.75482   0.00000  Uiso   1.00
O501   O     0.45181   0.17117   0.81998   0.00000  Uiso   1.00
O502   O     0.54819   0.16216   0.68003   0.00000  Uiso   1.00
O503   O     0.54819   0.16219   0.81218   0.00000  Uiso   1.00
O504   O     0.45181   0.17115   0.68783   0.00000  Uiso   1.00
Zn505  Zn    0.43565   0.17266   0.75521   0.00000  Uiso   1.00
Zn506  Zn    0.56435   0.16067   0.74479   0.00000  Uiso   1.00
C507   C     0.84818   0.26479   0.74889   0.00000  Uiso   1.00
C508   C     0.85817   0.20954   0.90593   0.00000  Uiso   1.00
C509   C     0.83076   0.16758   0.61616   0.00000  Uiso   1.00
C510   C     0.83591   0.16575   0.88384   0.00000  Uiso   1.00
C511   C     0.85333   0.21146   0.59324   0.00000  Uiso   1.00
C512   C     0.81334   0.12187   0.90677   0.00000  Uiso   1.00
C513   C     0.85416   0.21213   0.54646   0.00000  Uiso   1.00
C514   C     0.81251   0.12120   0.95354   0.00000  Uiso   1.00
C515   C     0.83262   0.16714   0.52346   0.00000  Uiso   1.00
C516   C     0.83404   0.16619   0.97654   0.00000  Uiso   1.00
C517   C     0.80975   0.12297   0.54748   0.00000  Uiso   1.00
C518   C     0.81849   0.06854   0.75111   0.00000  Uiso   1.00
C519   C     0.85691   0.21036   0.95252   0.00000  Uiso   1.00
C520   C     0.87621   0.25612   0.52209   0.00000  Uiso   1.00
C521   C     0.79045   0.07721   0.97791   0.00000  Uiso   1.00
C522   C     0.87754   0.25483   0.97526   0.00000  Uiso   1.00
C523   C     0.78913   0.07850   0.52474   0.00000  Uiso   1.00
C524   C     0.85461   0.31857   0.75590   0.00000  Uiso   1.00
C525   C     0.81206   0.01476   0.74410   0.00000  Uiso   1.00
C526   C     0.83417   0.16653   0.83637   0.00000  Uiso   1.00
C527   C     0.83250   0.16680   0.66363   0.00000  Uiso   1.00
C528   C     0.80849   0.12379   0.59407   0.00000  Uiso   1.00
Cl529  Cl    0.90225   0.31382   0.54853   0.00000  Uiso   1.00
Cl530  Cl    0.76441   0.01952   0.95147   0.00000  Uiso   1.00
Cl531  Cl    0.91124   0.00623   0.79043   0.00000  Uiso   1.00
Cl532  Cl    0.75542   0.32710   0.70957   0.00000  Uiso   1.00
H533   H     0.79154   0.09017   0.61323   0.00000  Uiso   1.00
H534   H     0.87513   0.24316   0.88677   0.00000  Uiso   1.00
H535   H     0.87013   0.24453   0.61231   0.00000  Uiso   1.00
H536   H     0.79654   0.08881   0.88769   0.00000  Uiso   1.00
H537   H     0.89453   0.28873   0.95659   0.00000  Uiso   1.00
H538   H     0.77213   0.04460   0.54341   0.00000  Uiso   1.00
H539   H     0.67131   0.12744   0.71606   0.00000  Uiso   1.00
H540   H     0.99536   0.20589   0.78394   0.00000  Uiso   1.00
N541   N     0.98344   0.15265   0.73783   0.00000  Uiso   1.00
N542   N     0.68322   0.18068   0.76217   0.00000  Uiso   1.00
O543   O     0.79642   0.24619   0.75299   0.00000  Uiso   1.00
O544   O     0.87025   0.08714   0.74702   0.00000  Uiso   1.00
O545   O     0.89280   0.23721   0.74519   0.00000  Uiso   1.00
O546   O     0.77387   0.09613   0.75482   0.00000  Uiso   1.00
O547   O     0.78514   0.17117   0.81998   0.00000  Uiso   1.00
O548   O     0.88153   0.16216   0.68003   0.00000  Uiso   1.00
O549   O     0.88152   0.16219   0.81218   0.00000  Uiso   1.00
O550   O     0.78515   0.17115   0.68783   0.00000  Uiso   1.00
Zn551  Zn    0.76898   0.17266   0.75521   0.00000  Uiso   1.00
Zn552  Zn    0.89769   0.16067   0.74479   0.00000  Uiso   1.00
C553   C     0.18151   0.59812   0.74889   0.00000  Uiso   1.00
C554   C     0.19151   0.54288   0.90593   0.00000  Uiso   1.00
C555   C     0.16409   0.50092   0.61616   0.00000  Uiso   1.00
C556   C     0.16924   0.49908   0.88384   0.00000  Uiso   1.00
C557   C     0.18666   0.54480   0.59324   0.00000  Uiso   1.00
C558   C     0.14667   0.45520   0.90677   0.00000  Uiso   1.00
C559   C     0.18749   0.54546   0.54646   0.00000  Uiso   1.00
C560   C     0.14584   0.45454   0.95354   0.00000  Uiso   1.00
C561   C     0.16596   0.50047   0.52346   0.00000  Uiso   1.00
C562   C     0.16738   0.49953   0.97654   0.00000  Uiso   1.00
C563   C     0.14308   0.45630   0.54748   0.00000  Uiso   1.00
C564   C     0.15182   0.40188   0.75111   0.00000  Uiso   1.00
C565   C     0.19025   0.54370   0.95252   0.00000  Uiso   1.00
C566   C     0.20955   0.58945   0.52209   0.00000  Uiso   1.00
C567   C     0.12379   0.41055   0.97791   0.00000  Uiso   1.00
C568   C     0.21087   0.58817   0.97526   0.00000  Uiso   1.00
C569   C     0.12246   0.41183   0.52474   0.00000  Uiso   1.00
C570   C     0.18794   0.65191   0.75590   0.00000  Uiso   1.00
C571   C     0.14539   0.34809   0.74410   0.00000  Uiso   1.00
C572   C     0.16750   0.49987   0.83637   0.00000  Uiso   1.00
C573   C     0.16583   0.50013   0.66363   0.00000  Uiso   1.00
C574   C     0.14182   0.45712   0.59407   0.00000  Uiso   1.00
Cl575  Cl    0.23559   0.64715   0.54853   0.00000  Uiso   1.00
Cl576  Cl    0.09775   0.35285   0.95147   0.00000  Uiso   1.00
Cl577  Cl    0.24458   0.33957   0.79043   0.00000  Uiso   1.00
Cl578  Cl    0.08876   0.66043   0.70957   0.00000  Uiso   1.00
H579   H     0.12487   0.42350   0.61323   0.00000  Uiso   1.00
H580   H     0.20846   0.57650   0.88677   0.00000  Uiso   1.00
H581   H     0.20346   0.57786   0.61231   0.00000  Uiso   1.00
H582   H     0.12987   0.42214   0.88769   0.00000  Uiso   1.00
H583   H     0.22787   0.62207   0.95659   0.00000  Uiso   1.00
H584   H     0.10547   0.37793   0.54341   0.00000  Uiso   1.00
H585   H     0.00464   0.46077   0.71606   0.00000  Uiso   1.00
H586   H     0.32869   0.53923   0.78394   0.00000  Uiso   1.00
N587   N     0.31678   0.48598   0.73783   0.00000  Uiso   1.00
N588   N     0.01656   0.51402   0.76217   0.00000  Uiso   1.00
O589   O     0.12975   0.57952   0.75299   0.00000  Uiso   1.00
O590   O     0.20358   0.42048   0.74702   0.00000  Uiso   1.00
O591   O     0.22613   0.57054   0.74519   0.00000  Uiso   1.00
O592   O     0.10720   0.42946   0.75482   0.00000  Uiso   1.00
O593   O     0.11847   0.50450   0.81998   0.00000  Uiso   1.00
O594   O     0.21486   0.49550   0.68003   0.00000  Uiso   1.00
O595   O     0.21485   0.49552   0.81218   0.00000  Uiso   1.00
O596   O     0.11848   0.50448   0.68783   0.00000  Uiso   1.00
Zn597  Zn    0.10231   0.50600   0.75521   0.00000  Uiso   1.00
Zn598  Zn    0.23102   0.49400   0.74479   0.00000  Uiso   1.00
C599   C     0.51484   0.59812   0.74889   0.00000  Uiso   1.00
C600   C     0.52484   0.54288   0.90593   0.00000  Uiso   1.00
C601   C     0.49743   0.50092   0.61616   0.00000  Uiso   1.00
C602   C     0.50257   0.49908   0.88384   0.00000  Uiso   1.00
C603   C     0.52000   0.54480   0.59324   0.00000  Uiso   1.00
C604   C     0.48000   0.45520   0.90677   0.00000  Uiso   1.00
C605   C     0.52083   0.54546   0.54646   0.00000  Uiso   1.00
C606   C     0.47917   0.45454   0.95354   0.00000  Uiso   1.00
C607   C     0.49929   0.50047   0.52346   0.00000  Uiso   1.00
C608   C     0.50071   0.49953   0.97654   0.00000  Uiso   1.00
C609   C     0.47642   0.45630   0.54748   0.00000  Uiso   1.00
C610   C     0.48516   0.40188   0.75111   0.00000  Uiso   1.00
C611   C     0.52358   0.54370   0.95252   0.00000  Uiso   1.00
C612   C     0.54288   0.58945   0.52209   0.00000  Uiso   1.00
C613   C     0.45712   0.41055   0.97791   0.00000  Uiso   1.00
C614   C     0.54421   0.58817   0.97526   0.00000  Uiso   1.00
C615   C     0.45579   0.41183   0.52474   0.00000  Uiso   1.00
C616   C     0.52127   0.65191   0.75590   0.00000  Uiso   1.00
C617   C     0.47873   0.34809   0.74410   0.00000  Uiso   1.00
C618   C     0.50083   0.49987   0.83637   0.00000  Uiso   1.00
C619   C     0.49917   0.50013   0.66363   0.00000  Uiso   1.00
C620   C     0.47516   0.45712   0.59407   0.00000  Uiso   1.00
Cl621  Cl    0.56892   0.64715   0.54853   0.00000  Uiso   1.00
Cl622  Cl    0.43108   0.35285   0.95147   0.00000  Uiso   1.00
Cl623  Cl    0.57791   0.33957   0.79043   0.00000  Uiso   1.00
Cl624  Cl    0.42209   0.66043   0.70957   0.00000  Uiso   1.00
H625   H     0.45820   0.42350   0.61323   0.00000  Uiso   1.00
H626   H     0.54180   0.57650   0.88677   0.00000  Uiso   1.00
H627   H     0.53679   0.57786   0.61231   0.00000  Uiso   1.00
H628   H     0.46321   0.42214   0.88769   0.00000  Uiso   1.00
H629   H     0.56120   0.62207   0.95659   0.00000  Uiso   1.00
H630   H     0.43880   0.37793   0.54341   0.00000  Uiso   1.00
H631   H     0.33798   0.46077   0.71606   0.00000  Uiso   1.00
H632   H     0.66202   0.53923   0.78394   0.00000  Uiso   1.00
N633   N     0.65011   0.48598   0.73783   0.00000  Uiso   1.00
N634   N     0.34989   0.51402   0.76217   0.00000  Uiso   1.00
O635   O     0.46308   0.57952   0.75299   0.00000  Uiso   1.00
O636   O     0.53692   0.42048   0.74702   0.00000  Uiso   1.00
O637   O     0.55946   0.57054   0.74519   0.00000  Uiso   1.00
O638   O     0.44054   0.42946   0.75482   0.00000  Uiso   1.00
O639   O     0.45181   0.50450   0.81998   0.00000  Uiso   1.00
O640   O     0.54819   0.49550   0.68003   0.00000  Uiso   1.00
O641   O     0.54819   0.49552   0.81218   0.00000  Uiso   1.00
O642   O     0.45181   0.50448   0.68783   0.00000  Uiso   1.00
Zn643  Zn    0.43565   0.50600   0.75521   0.00000  Uiso   1.00
Zn644  Zn    0.56435   0.49400   0.74479   0.00000  Uiso   1.00
C645   C     0.84818   0.59812   0.74889   0.00000  Uiso   1.00
C646   C     0.85817   0.54288   0.90593   0.00000  Uiso   1.00
C647   C     0.83076   0.50092   0.61616   0.00000  Uiso   1.00
C648   C     0.83591   0.49908   0.88384   0.00000  Uiso   1.00
C649   C     0.85333   0.54480   0.59324   0.00000  Uiso   1.00
C650   C     0.81334   0.45520   0.90677   0.00000  Uiso   1.00
C651   C     0.85416   0.54546   0.54646   0.00000  Uiso   1.00
C652   C     0.81251   0.45454   0.95354   0.00000  Uiso   1.00
C653   C     0.83262   0.50047   0.52346   0.00000  Uiso   1.00
C654   C     0.83404   0.49953   0.97654   0.00000  Uiso   1.00
C655   C     0.80975   0.45630   0.54748   0.00000  Uiso   1.00
C656   C     0.81849   0.40188   0.75111   0.00000  Uiso   1.00
C657   C     0.85691   0.54370   0.95252   0.00000  Uiso   1.00
C658   C     0.87621   0.58945   0.52209   0.00000  Uiso   1.00
C659   C     0.79045   0.41055   0.97791   0.00000  Uiso   1.00
C660   C     0.87754   0.58817   0.97526   0.00000  Uiso   1.00
C661   C     0.78913   0.41183   0.52474   0.00000  Uiso   1.00
C662   C     0.85461   0.65191   0.75590   0.00000  Uiso   1.00
C663   C     0.81206   0.34809   0.74410   0.00000  Uiso   1.00
C664   C     0.83417   0.49987   0.83637   0.00000  Uiso   1.00
C665   C     0.83250   0.50013   0.66363   0.00000  Uiso   1.00
C666   C     0.80849   0.45712   0.59407   0.00000  Uiso   1.00
Cl667  Cl    0.90225   0.64715   0.54853   0.00000  Uiso   1.00
Cl668  Cl    0.76441   0.35285   0.95147   0.00000  Uiso   1.00
Cl669  Cl    0.91124   0.33957   0.79043   0.00000  Uiso   1.00
Cl670  Cl    0.75542   0.66043   0.70957   0.00000  Uiso   1.00
H671   H     0.79154   0.42350   0.61323   0.00000  Uiso   1.00
H672   H     0.87513   0.57650   0.88677   0.00000  Uiso   1.00
H673   H     0.87013   0.57786   0.61231   0.00000  Uiso   1.00
H674   H     0.79654   0.42214   0.88769   0.00000  Uiso   1.00
H675   H     0.89453   0.62207   0.95659   0.00000  Uiso   1.00
H676   H     0.77213   0.37793   0.54341   0.00000  Uiso   1.00
H677   H     0.67131   0.46077   0.71606   0.00000  Uiso   1.00
H678   H     0.99536   0.53923   0.78394   0.00000  Uiso   1.00
N679   N     0.98344   0.48598   0.73783   0.00000  Uiso   1.00
N680   N     0.68322   0.51402   0.76217   0.00000  Uiso   1.00
O681   O     0.79642   0.57952   0.75299   0.00000  Uiso   1.00
O682   O     0.87025   0.42048   0.74702   0.00000  Uiso   1.00
O683   O     0.89280   0.57054   0.74519   0.00000  Uiso   1.00
O684   O     0.77387   0.42946   0.75482   0.00000  Uiso   1.00
O685   O     0.78514   0.50450   0.81998   0.00000  Uiso   1.00
O686   O     0.88153   0.49550   0.68003   0.00000  Uiso   1.00
O687   O     0.88152   0.49552   0.81218   0.00000  Uiso   1.00
O688   O     0.78515   0.50448   0.68783   0.00000  Uiso   1.00
Zn689  Zn    0.76898   0.50600   0.75521   0.00000  Uiso   1.00
Zn690  Zn    0.89769   0.49400   0.74479   0.00000  Uiso   1.00
C691   C     0.18151   0.93146   0.74889   0.00000  Uiso   1.00
C692   C     0.19151   0.87621   0.90593   0.00000  Uiso   1.00
C693   C     0.16409   0.83425   0.61616   0.00000  Uiso   1.00
C694   C     0.16924   0.83242   0.88384   0.00000  Uiso   1.00
C695   C     0.18666   0.87813   0.59324   0.00000  Uiso   1.00
C696   C     0.14667   0.78853   0.90677   0.00000  Uiso   1.00
C697   C     0.18749   0.87880   0.54646   0.00000  Uiso   1.00
C698   C     0.14584   0.78787   0.95354   0.00000  Uiso   1.00
C699   C     0.16596   0.83381   0.52346   0.00000  Uiso   1.00
C700   C     0.16738   0.83286   0.97654   0.00000  Uiso   1.00
C701   C     0.14308   0.78964   0.54748   0.00000  Uiso   1.00
C702   C     0.15182   0.73521   0.75111   0.00000  Uiso   1.00
C703   C     0.19025   0.87703   0.95252   0.00000  Uiso   1.00
C704   C     0.20955   0.92279   0.52209   0.00000  Uiso   1.00
C705   C     0.12379   0.74388   0.97791   0.00000  Uiso   1.00
C706   C     0.21087   0.92150   0.97526   0.00000  Uiso   1.00
C707   C     0.12246   0.74517   0.52474   0.00000  Uiso   1.00
C708   C     0.18794   0.98524   0.75590   0.00000  Uiso   1.00
C709   C     0.14539   0.68143   0.74410   0.00000  Uiso   1.00
C710   C     0.16750   0.83320   0.83637   0.00000  Uiso   1.00
C711   C     0.16583   0.83347   0.66363   0.00000  Uiso   1.00
C712   C     0.14182   0.79046   0.59407   0.00000  Uiso   1.00
Cl713  Cl    0.23559   0.98048   0.54853   0.00000  Uiso   1.00
Cl714  Cl    0.09775   0.68618   0.95147   0.00000  Uiso   1.00
Cl715  Cl    0.24458   0.67290   0.79043   0.00000  Uiso   1.00
Cl716  Cl    0.08876   0.99376   0.70957   0.00000  Uiso   1.00
H717   H     0.12487   0.75684   0.61323   0.00000  Uiso   1.00
H718   H     0.20846   0.90983   0.88677   0.00000  Uiso   1.00
H719   H     0.20346   0.91119   0.61231   0.00000  Uiso   1.00
H720   H     0.12987   0.75547   0.88769   0.00000  Uiso   1.00
H721   H     0.22787   0.95540   0.95659   0.00000  Uiso   1.00
H722   H     0.10547   0.71127   0.54341   0.00000  Uiso   1.00
H723   H     0.00464   0.79411   0.71606   0.00000  Uiso   1.00
H724   H     0.32869   0.87256   0.78394   0.00000  Uiso   1.00
N725   N     0.31678   0.81932   0.73783   0.00000  Uiso   1.00
N726   N     0.01656   0.84735   0.76217   0.00000  Uiso   1.00
O727   O     0.12975   0.91286   0.75299   0.00000  Uiso   1.00
O728   O     0.20358   0.75381   0.74702   0.00000  Uiso   1.00
O729   O     0.22613   0.90387   0.74519   0.00000  Uiso   1.00
O730   O     0.10720   0.76279   0.75482   0.00000  Uiso   1.00
O731   O     0.11847   0.83784   0.81998   0.00000  Uiso   1.00
O732   O     0.21486   0.82883   0.68003   0.00000  Uiso   1.00
O733   O     0.21485   0.82885   0.81218   0.00000  Uiso   1.00
O734   O     0.11848   0.83781   0.68783   0.00000  Uiso   1.00
Zn735  Zn    0.10231   0.83933   0.75521   0.00000  Uiso   1.00
Zn736  Zn    0.23102   0.82734   0.74479   0.00000  Uiso   1.00
C737   C     0.51484   0.93146   0.74889   0.00000  Uiso   1.00
C738   C     0.52484   0.87621   0.90593   0.00000  Uiso   1.00
C739   C     0.49743   0.83425   0.61616   0.00000  Uiso   1.00
C740   C     0.50257   0.83242   0.88384   0.00000  Uiso   1.00
C741   C     0.52000   0.87813   0.59324   0.00000  Uiso   1.00
C742   C     0.48000   0.78853   0.90677   0.00000  Uiso   1.00
C743   C     0.52083   0.87880   0.54646   0.00000  Uiso   1.00
C744   C     0.47917   0.78787   0.95354   0.00000  Uiso   1.00
C745   C     0.49929   0.83381   0.52346   0.00000  Uiso   1.00
C746   C     0.50071   0.83286   0.97654   0.00000  Uiso   1.00
C747   C     0.47642   0.78964   0.54748   0.00000  Uiso   1.00
C748   C     0.48516   0.73521   0.75111   0.00000  Uiso   1.00
C749   C     0.52358   0.87703   0.95252   0.00000  Uiso   1.00
C750   C     0.54288   0.92279   0.52209   0.00000  Uiso   1.00
C751   C     0.45712   0.74388   0.97791   0.00000  Uiso   1.00
C752   C     0.54421   0.92150   0.97526   0.00000  Uiso   1.00
C753   C     0.45579   0.74517   0.52474   0.00000  Uiso   1.00
C754   C     0.52127   0.98524   0.75590   0.00000  Uiso   1.00
C755   C     0.47873   0.68143   0.74410   0.00000  Uiso   1.00
C756   C     0.50083   0.83320   0.83637   0.00000  Uiso   1.00
C757   C     0.49917   0.83347   0.66363   0.00000  Uiso   1.00
C758   C     0.47516   0.79046   0.59407   0.00000  Uiso   1.00
Cl759  Cl    0.56892   0.98048   0.54853   0.00000  Uiso   1.00
Cl760  Cl    0.43108   0.68618   0.95147   0.00000  Uiso   1.00
Cl761  Cl    0.57791   0.67290   0.79043   0.00000  Uiso   1.00
Cl762  Cl    0.42209   0.99376   0.70957   0.00000  Uiso   1.00
H763   H     0.45820   0.75684   0.61323   0.00000  Uiso   1.00
H764   H     0.54180   0.90983   0.88677   0.00000  Uiso   1.00
H765   H     0.53679   0.91119   0.61231   0.00000  Uiso   1.00
H766   H     0.46321   0.75547   0.88769   0.00000  Uiso   1.00
H767   H     0.56120   0.95540   0.95659   0.00000  Uiso   1.00
H768   H     0.43880   0.71127   0.54341   0.00000  Uiso   1.00
H769   H     0.33798   0.79411   0.71606   0.00000  Uiso   1.00
H770   H     0.66202   0.87256   0.78394   0.00000  Uiso   1.00
N771   N     0.65011   0.81932   0.73783   0.00000  Uiso   1.00
N772   N     0.34989   0.84735   0.76217   0.00000  Uiso   1.00
O773   O     0.46308   0.91286   0.75299   0.00000  Uiso   1.00
O774   O     0.53692   0.75381   0.74702   0.00000  Uiso   1.00
O775   O     0.55946   0.90387   0.74519   0.00000  Uiso   1.00
O776   O     0.44054   0.76279   0.75482   0.00000  Uiso   1.00
O777   O     0.45181   0.83784   0.81998   0.00000  Uiso   1.00
O778   O     0.54819   0.82883   0.68003   0.00000  Uiso   1.00
O779   O     0.54819   0.82885   0.81218   0.00000  Uiso   1.00
O780   O     0.45181   0.83781   0.68783   0.00000  Uiso   1.00
Zn781  Zn    0.43565   0.83933   0.75521   0.00000  Uiso   1.00
Zn782  Zn    0.56435   0.82734   0.74479   0.00000  Uiso   1.00
C783   C     0.84818   0.93146   0.74889   0.00000  Uiso   1.00
C784   C     0.85817   0.87621   0.90593   0.00000  Uiso   1.00
C785   C     0.83076   0.83425   0.61616   0.00000  Uiso   1.00
C786   C     0.83591   0.83242   0.88384   0.00000  Uiso   1.00
C787   C     0.85333   0.87813   0.59324   0.00000  Uiso   1.00
C788   C     0.81334   0.78853   0.90677   0.00000  Uiso   1.00
C789   C     0.85416   0.87880   0.54646   0.00000  Uiso   1.00
C790   C     0.81251   0.78787   0.95354   0.00000  Uiso   1.00
C791   C     0.83262   0.83381   0.52346   0.00000  Uiso   1.00
C792   C     0.83404   0.83286   0.97654   0.00000  Uiso   1.00
C793   C     0.80975   0.78964   0.54748   0.00000  Uiso   1.00
C794   C     0.81849   0.73521   0.75111   0.00000  Uiso   1.00
C795   C     0.85691   0.87703   0.95252   0.00000  Uiso   1.00
C796   C     0.87621   0.92279   0.52209   0.00000  Uiso   1.00
C797   C     0.79045   0.74388   0.97791   0.00000  Uiso   1.00
C798   C     0.87754   0.92150   0.97526   0.00000  Uiso   1.00
C799   C     0.78913   0.74517   0.52474   0.00000  Uiso   1.00
C800   C     0.85461   0.98524   0.75590   0.00000  Uiso   1.00
C801   C     0.81206   0.68143   0.74410   0.00000  Uiso   1.00
C802   C     0.83417   0.83320   0.83637   0.00000  Uiso   1.00
C803   C     0.83250   0.83347   0.66363   0.00000  Uiso   1.00
C804   C     0.80849   0.79046   0.59407   0.00000  Uiso   1.00
Cl805  Cl    0.90225   0.98048   0.54853   0.00000  Uiso   1.00
Cl806  Cl    0.76441   0.68618   0.95147   0.00000  Uiso   1.00
Cl807  Cl    0.91124   0.67290   0.79043   0.00000  Uiso   1.00
Cl808  Cl    0.75542   0.99376   0.70957   0.00000  Uiso   1.00
H809   H     0.79154   0.75684   0.61323   0.00000  Uiso   1.00
H810   H     0.87513   0.90983   0.88677   0.00000  Uiso   1.00
H811   H     0.87013   0.91119   0.61231   0.00000  Uiso   1.00
H812   H     0.79654   0.75547   0.88769   0.00000  Uiso   1.00
H813   H     0.89453   0.95540   0.95659   0.00000  Uiso   1.00
H814   H     0.77213   0.71127   0.54341   0.00000  Uiso   1.00
H815   H     0.67131   0.79411   0.71606   0.00000  Uiso   1.00
H816   H     0.99536   0.87256   0.78394   0.00000  Uiso   1.00
N817   N     0.98344   0.81932   0.73783   0.00000  Uiso   1.00
N818   N     0.68322   0.84735   0.76217   0.00000  Uiso   1.00
O819   O     0.79642   0.91286   0.75299   0.00000  Uiso   1.00
O820   O     0.87025   0.75381   0.74702   0.00000  Uiso   1.00
O821   O     0.89280   0.90387   0.74519   0.00000  Uiso   1.00
O822   O     0.77387   0.76279   0.75482   0.00000  Uiso   1.00
O823   O     0.78514   0.83784   0.81998   0.00000  Uiso   1.00
O824   O     0.88153   0.82883   0.68003   0.00000  Uiso   1.00
O825   O     0.88152   0.82885   0.81218   0.00000  Uiso   1.00
O826   O     0.78515   0.83781   0.68783   0.00000  Uiso   1.00
Zn827  Zn    0.76898   0.83933   0.75521   0.00000  Uiso   1.00
Zn828  Zn    0.89769   0.82734   0.74479   0.00000  Uiso   1.00
loop_
_geom_bond_atom_site_label_1
_geom_bond_atom_site_label_2
_geom_bond_distance
_geom_bond_site_symmetry_2
_ccdc_geom_bond_type
C1     O37     1.272   .     A
C1     C18     1.397   .     S
C1     O39     1.288   .     A
C2     C4      1.387   .     A
C2     H28     1.086   .     S
C2     C13     1.383   .     A
C3     C21     1.415   .     S
C3     C22     1.387   .     A
C3     C5      1.390   .     A
C4     C6      1.390   .     A
C4     C20     1.415   .     S
C5     H29     1.084   .     S
C5     C7      1.389   .     A
C6     H30     1.084   .     S
C6     C8      1.389   .     A
C7     C9      1.419   .     A
C7     C14     1.410   .     A
C8     C15     1.410   .     A
C8     C10     1.419   .     A
C9     C11     1.414   .     A
C9     C424    1.392   1_554 S
C10    C13     1.414   .     A
C10    C423    1.392   .     S
C11    C22     1.383   .     A
C11    C17     1.397   .     A
C12    O40     1.288   .     A
C12    C19     1.397   .     S
C12    O38     1.272   .     A
C13    C16     1.397   .     A
C14    Cl23    1.764   .     S
C14    C430    1.390   1_554 S
C15    Cl24    1.764   .     S
C15    C431    1.390   .     S
C16    H31     1.085   .     S
C16    C428    1.390   .     S
C17    H32     1.085   .     S
C17    C429    1.390   1_554 S
C18    C157    1.350   .     S
C18    Cl163   1.781   .     S
C19    C294    1.350   1_545 S
C19    Cl302   1.781   1_545 S
C20    O41     1.284   .     A
C20    O43     1.285   .     A
C21    O44     1.285   .     A
C21    O42     1.284   .     A
C22    H27     1.086   .     S
Cl25   C294    1.781   1_545 S
Cl26   C157    1.781   .     S
H33    N127    1.029   1_455 S
H34    N82     1.029   .     S
N35    Zn46    2.017   .     S
N35    H79     1.029   .     S
N35    N82     1.279   .     S
N36    Zn45    2.017   .     S
N36    H126    1.029   1_455 S
N36    N127    1.279   1_455 S
O37    Zn45    1.965   .     S
O38    Zn46    1.965   .     S
O39    Zn46    1.979   .     S
O40    Zn45    1.979   .     S
O41    Zn45    1.987   .     S
O42    Zn46    1.987   .     S
O43    Zn46    2.012   .     S
O44    Zn45    2.012   .     S
C47    O83     1.272   .     A
C47    C64     1.397   .     S
C47    O85     1.288   .     A
C48    C50     1.387   .     A
C48    H74     1.086   .     S
C48    C59     1.383   .     A
C49    C67     1.415   .     S
C49    C68     1.387   .     A
C49    C51     1.390   .     A
C50    C52     1.390   .     A
C50    C66     1.415   .     S
C51    H75     1.084   .     S
C51    C53     1.389   .     A
C52    H76     1.084   .     S
C52    C54     1.389   .     A
C53    C55     1.419   .     A
C53    C60     1.410   .     A
C54    C61     1.410   .     A
C54    C56     1.419   .     A
C55    C57     1.414   .     A
C55    C470    1.392   1_554 S
C56    C59     1.414   .     A
C56    C469    1.392   .     S
C57    C68     1.383   .     A
C57    C63     1.397   .     A
C58    O86     1.288   .     A
C58    C65     1.397   .     S
C58    O84     1.272   .     A
C59    C62     1.397   .     A
C60    Cl69    1.764   .     S
C60    C476    1.390   1_554 S
C61    Cl70    1.764   .     S
C61    C477    1.390   .     S
C62    H77     1.085   .     S
C62    C474    1.390   .     S
C63    H78     1.085   .     S
C63    C475    1.390   1_554 S
C64    C203    1.350   .     S
C64    Cl209   1.781   .     S
C65    C340    1.350   1_545 S
C65    Cl348   1.781   1_545 S
C66    O87     1.284   .     A
C66    O89     1.285   .     A
C67    O90     1.285   .     A
C67    O88     1.284   .     A
C68    H73     1.086   .     S
Cl71   C340    1.781   1_545 S
Cl72   C203    1.781   .     S
H80    N128    1.029   .     S
N81    Zn92    2.017   .     S
N81    H125    1.029   .     S
N81    N128    1.279   .     S
N82    Zn91    2.017   .     S
O83    Zn91    1.965   .     S
O84    Zn92    1.965   .     S
O85    Zn92    1.979   .     S
O86    Zn91    1.979   .     S
O87    Zn91    1.987   .     S
O88    Zn92    1.987   .     S
O89    Zn92    2.012   .     S
O90    Zn91    2.012   .     S
C93    O129    1.272   .     A
C93    C110    1.397   .     S
C93    O131    1.288   .     A
C94    C96     1.387   .     A
C94    H120    1.086   .     S
C94    C105    1.383   .     A
C95    C113    1.415   .     S
C95    C114    1.387   .     A
C95    C97     1.390   .     A
C96    C98     1.390   .     A
C96    C112    1.415   .     S
C97    H121    1.084   .     S
C97    C99     1.389   .     A
C98    H122    1.084   .     S
C98    C100    1.389   .     A
C99    C101    1.419   .     A
C99    C106    1.410   .     A
C100   C107    1.410   .     A
C100   C102    1.419   .     A
C101   C103    1.414   .     A
C101   C516    1.392   1_554 S
C102   C105    1.414   .     A
C102   C515    1.392   .     S
C103   C114    1.383   .     A
C103   C109    1.397   .     A
C104   O132    1.288   .     A
C104   C111    1.397   .     S
C104   O130    1.272   .     A
C105   C108    1.397   .     A
C106   Cl115   1.764   .     S
C106   C522    1.390   1_554 S
C107   Cl116   1.764   .     S
C107   C523    1.390   .     S
C108   H123    1.085   .     S
C108   C520    1.390   .     S
C109   H124    1.085   .     S
C109   C521    1.390   1_554 S
C110   C249    1.350   .     S
C110   Cl255   1.781   .     S
C111   C386    1.350   1_545 S
C111   Cl394   1.781   1_545 S
C112   O133    1.284   .     A
C112   O135    1.285   .     A
C113   O136    1.285   .     A
C113   O134    1.284   .     A
C114   H119    1.086   .     S
Cl117  C386    1.781   1_545 S
Cl118  C249    1.781   .     S
H126   N36     1.029   1_655 S
N127   Zn138   2.017   .     S
N127   H33     1.029   1_655 S
N127   N36     1.279   1_655 S
N128   Zn137   2.017   .     S
O129   Zn137   1.965   .     S
O130   Zn138   1.965   .     S
O131   Zn138   1.979   .     S
O132   Zn137   1.979   .     S
O133   Zn137   1.987   .     S
O134   Zn138   1.987   .     S
O135   Zn138   2.012   .     S
O136   Zn137   2.012   .     S
C139   O175    1.272   .     A
C139   C156    1.397   .     S
C139   O177    1.288   .     A
C140   C142    1.387   .     A
C140   H166    1.086   .     S
C140   C151    1.383   .     A
C141   C159    1.415   .     S
C141   C160    1.387   .     A
C141   C143    1.390   .     A
C142   C144    1.390   .     A
C142   C158    1.415   .     S
C143   H167    1.084   .     S
C143   C145    1.389   .     A
C144   H168    1.084   .     S
C144   C146    1.389   .     A
C145   C147    1.419   .     A
C145   C152    1.410   .     A
C146   C153    1.410   .     A
C146   C148    1.419   .     A
C147   C149    1.414   .     A
C147   C562    1.392   1_554 S
C148   C151    1.414   .     A
C148   C561    1.392   .     S
C149   C160    1.383   .     A
C149   C155    1.397   .     A
C150   O178    1.288   .     A
C150   C157    1.397   .     S
C150   O176    1.272   .     A
C151   C154    1.397   .     A
C152   Cl161   1.764   .     S
C152   C568    1.390   1_554 S
C153   Cl162   1.764   .     S
C153   C569    1.390   .     S
C154   H169    1.085   .     S
C154   C566    1.390   .     S
C155   H170    1.085   .     S
C155   C567    1.390   1_554 S
C156   C295    1.350   .     S
C156   Cl301   1.781   .     S
C158   O179    1.284   .     A
C158   O181    1.285   .     A
C159   O182    1.285   .     A
C159   O180    1.284   .     A
C160   H165    1.086   .     S
Cl164  C295    1.781   .     S
H171   N265    1.029   1_455 S
H172   N220    1.029   .     S
N173   Zn184   2.017   .     S
N173   H217    1.029   .     S
N173   N220    1.279   .     S
N174   Zn183   2.017   .     S
N174   H264    1.029   1_455 S
N174   N265    1.279   1_455 S
O175   Zn183   1.965   .     S
O176   Zn184   1.965   .     S
O177   Zn184   1.979   .     S
O178   Zn183   1.979   .     S
O179   Zn183   1.987   .     S
O180   Zn184   1.987   .     S
O181   Zn184   2.012   .     S
O182   Zn183   2.012   .     S
C185   O221    1.272   .     A
C185   C202    1.397   .     S
C185   O223    1.288   .     A
C186   C188    1.387   .     A
C186   H212    1.086   .     S
C186   C197    1.383   .     A
C187   C205    1.415   .     S
C187   C206    1.387   .     A
C187   C189    1.390   .     A
C188   C190    1.390   .     A
C188   C204    1.415   .     S
C189   H213    1.084   .     S
C189   C191    1.389   .     A
C190   H214    1.084   .     S
C190   C192    1.389   .     A
C191   C193    1.419   .     A
C191   C198    1.410   .     A
C192   C199    1.410   .     A
C192   C194    1.419   .     A
C193   C195    1.414   .     A
C193   C608    1.392   1_554 S
C194   C197    1.414   .     A
C194   C607    1.392   .     S
C195   C206    1.383   .     A
C195   C201    1.397   .     A
C196   O224    1.288   .     A
C196   C203    1.397   .     S
C196   O222    1.272   .     A
C197   C200    1.397   .     A
C198   Cl207   1.764   .     S
C198   C614    1.390   1_554 S
C199   Cl208   1.764   .     S
C199   C615    1.390   .     S
C200   H215    1.085   .     S
C200   C612    1.390   .     S
C201   H216    1.085   .     S
C201   C613    1.390   1_554 S
C202   C341    1.350   .     S
C202   Cl347   1.781   .     S
C204   O225    1.284   .     A
C204   O227    1.285   .     A
C205   O228    1.285   .     A
C205   O226    1.284   .     A
C206   H211    1.086   .     S
Cl210  C341    1.781   .     S
H218   N266    1.029   .     S
N219   Zn230   2.017   .     S
N219   H263    1.029   .     S
N219   N266    1.279   .     S
N220   Zn229   2.017   .     S
O221   Zn229   1.965   .     S
O222   Zn230   1.965   .     S
O223   Zn230   1.979   .     S
O224   Zn229   1.979   .     S
O225   Zn229   1.987   .     S
O226   Zn230   1.987   .     S
O227   Zn230   2.012   .     S
O228   Zn229   2.012   .     S
C231   O267    1.272   .     A
C231   C248    1.397   .     S
C231   O269    1.288   .     A
C232   C234    1.387   .     A
C232   H258    1.086   .     S
C232   C243    1.383   .     A
C233   C251    1.415   .     S
C233   C252    1.387   .     A
C233   C235    1.390   .     A
C234   C236    1.390   .     A
C234   C250    1.415   .     S
C235   H259    1.084   .     S
C235   C237    1.389   .     A
C236   H260    1.084   .     S
C236   C238    1.389   .     A
C237   C239    1.419   .     A
C237   C244    1.410   .     A
C238   C245    1.410   .     A
C238   C240    1.419   .     A
C239   C241    1.414   .     A
C239   C654    1.392   1_554 S
C240   C243    1.414   .     A
C240   C653    1.392   .     S
C241   C252    1.383   .     A
C241   C247    1.397   .     A
C242   O270    1.288   .     A
C242   C249    1.397   .     S
C242   O268    1.272   .     A
C243   C246    1.397   .     A
C244   Cl253   1.764   .     S
C244   C660    1.390   1_554 S
C245   Cl254   1.764   .     S
C245   C661    1.390   .     S
C246   H261    1.085   .     S
C246   C658    1.390   .     S
C247   H262    1.085   .     S
C247   C659    1.390   1_554 S
C248   C387    1.350   .     S
C248   Cl393   1.781   .     S
C250   O271    1.284   .     A
C250   O273    1.285   .     A
C251   O274    1.285   .     A
C251   O272    1.284   .     A
C252   H257    1.086   .     S
Cl256  C387    1.781   .     S
H264   N174    1.029   1_655 S
N265   Zn276   2.017   .     S
N265   H171    1.029   1_655 S
N265   N174    1.279   1_655 S
N266   Zn275   2.017   .     S
O267   Zn275   1.965   .     S
O268   Zn276   1.965   .     S
O269   Zn276   1.979   .     S
O270   Zn275   1.979   .     S
O271   Zn275   1.987   .     S
O272   Zn276   1.987   .     S
O273   Zn276   2.012   .     S
O274   Zn275   2.012   .     S
C277   O313    1.272   .     A
C277   C294    1.397   .     S
C277   O315    1.288   .     A
C278   C280    1.387   .     A
C278   H304    1.086   .     S
C278   C289    1.383   .     A
C279   C297    1.415   .     S
C279   C298    1.387   .     A
C279   C281    1.390   .     A
C280   C282    1.390   .     A
C280   C296    1.415   .     S
C281   H305    1.084   .     S
C281   C283    1.389   .     A
C282   H306    1.084   .     S
C282   C284    1.389   .     A
C283   C285    1.419   .     A
C283   C290    1.410   .     A
C284   C291    1.410   .     A
C284   C286    1.419   .     A
C285   C287    1.414   .     A
C285   C700    1.392   1_554 S
C286   C289    1.414   .     A
C286   C699    1.392   .     S
C287   C298    1.383   .     A
C287   C293    1.397   .     A
C288   O316    1.288   .     A
C288   C295    1.397   .     S
C288   O314    1.272   .     A
C289   C292    1.397   .     A
C290   Cl299   1.764   .     S
C290   C706    1.390   1_554 S
C291   Cl300   1.764   .     S
C291   C707    1.390   .     S
C292   H307    1.085   .     S
C292   C704    1.390   .     S
C293   H308    1.085   .     S
C293   C705    1.390   1_554 S
C294   C19     1.350   1_565 S
C294   Cl25    1.781   1_565 S
C296   O317    1.284   .     A
C296   O319    1.285   .     A
C297   O320    1.285   .     A
C297   O318    1.284   .     A
C298   H303    1.086   .     S
Cl302  C19     1.781   1_565 S
H309   N403    1.029   1_455 S
H310   N358    1.029   .     S
N311   Zn322   2.017   .     S
N311   H355    1.029   .     S
N311   N358    1.279   .     S
N312   Zn321   2.017   .     S
N312   H402    1.029   1_455 S
N312   N403    1.279   1_455 S
O313   Zn321   1.965   .     S
O314   Zn322   1.965   .     S
O315   Zn322   1.979   .     S
O316   Zn321   1.979   .     S
O317   Zn321   1.987   .     S
O318   Zn322   1.987   .     S
O319   Zn322   2.012   .     S
O320   Zn321   2.012   .     S
C323   O359    1.272   .     A
C323   C340    1.397   .     S
C323   O361    1.288   .     A
C324   C326    1.387   .     A
C324   H350    1.086   .     S
C324   C335    1.383   .     A
C325   C343    1.415   .     S
C325   C344    1.387   .     A
C325   C327    1.390   .     A
C326   C328    1.390   .     A
C326   C342    1.415   .     S
C327   H351    1.084   .     S
C327   C329    1.389   .     A
C328   H352    1.084   .     S
C328   C330    1.389   .     A
C329   C331    1.419   .     A
C329   C336    1.410   .     A
C330   C337    1.410   .     A
C330   C332    1.419   .     A
C331   C333    1.414   .     A
C331   C746    1.392   1_554 S
C332   C335    1.414   .     A
C332   C745    1.392   .     S
C333   C344    1.383   .     A
C333   C339    1.397   .     A
C334   O362    1.288   .     A
C334   C341    1.397   .     S
C334   O360    1.272   .     A
C335   C338    1.397   .     A
C336   Cl345   1.764   .     S
C336   C752    1.390   1_554 S
C337   Cl346   1.764   .     S
C337   C753    1.390   .     S
C338   H353    1.085   .     S
C338   C750    1.390   .     S
C339   H354    1.085   .     S
C339   C751    1.390   1_554 S
C340   C65     1.350   1_565 S
C340   Cl71    1.781   1_565 S
C342   O363    1.284   .     A
C342   O365    1.285   .     A
C343   O366    1.285   .     A
C343   O364    1.284   .     A
C344   H349    1.086   .     S
Cl348  C65     1.781   1_565 S
H356   N404    1.029   .     S
N357   Zn368   2.017   .     S
N357   H401    1.029   .     S
N357   N404    1.279   .     S
N358   Zn367   2.017   .     S
O359   Zn367   1.965   .     S
O360   Zn368   1.965   .     S
O361   Zn368   1.979   .     S
O362   Zn367   1.979   .     S
O363   Zn367   1.987   .     S
O364   Zn368   1.987   .     S
O365   Zn368   2.012   .     S
O366   Zn367   2.012   .     S
C369   O405    1.272   .     A
C369   C386    1.397   .     S
C369   O407    1.288   .     A
C370   C372    1.387   .     A
C370   H396    1.086   .     S
C370   C381    1.383   .     A
C371   C389    1.415   .     S
C371   C390    1.387   .     A
C371   C373    1.390   .     A
C372   C374    1.390   .     A
C372   C388    1.415   .     S
C373   H397    1.084   .     S
C373   C375    1.389   .     A
C374   H398    1.084   .     S
C374   C376    1.389   .     A
C375   C377    1.419   .     A
C375   C382    1.410   .     A
C376   C383    1.410   .     A
C376   C378    1.419   .     A
C377   C379    1.414   .     A
C377   C792    1.392   1_554 S
C378   C381    1.414   .     A
C378   C791    1.392   .     S
C379   C390    1.383   .     A
C379   C385    1.397   .     A
C380   O408    1.288   .     A
C380   C387    1.397   .     S
C380   O406    1.272   .     A
C381   C384    1.397   .     A
C382   Cl391   1.764   .     S
C382   C798    1.390   1_554 S
C383   Cl392   1.764   .     S
C383   C799    1.390   .     S
C384   H399    1.085   .     S
C384   C796    1.390   .     S
C385   H400    1.085   .     S
C385   C797    1.390   1_554 S
C386   C111    1.350   1_565 S
C386   Cl117   1.781   1_565 S
C388   O409    1.284   .     A
C388   O411    1.285   .     A
C389   O412    1.285   .     A
C389   O410    1.284   .     A
C390   H395    1.086   .     S
Cl394  C111    1.781   1_565 S
H402   N312    1.029   1_655 S
N403   Zn414   2.017   .     S
N403   H309    1.029   1_655 S
N403   N312    1.279   1_655 S
N404   Zn413   2.017   .     S
O405   Zn413   1.965   .     S
O406   Zn414   1.965   .     S
O407   Zn414   1.979   .     S
O408   Zn413   1.979   .     S
O409   Zn413   1.987   .     S
O410   Zn414   1.987   .     S
O411   Zn414   2.012   .     S
O412   Zn413   2.012   .     S
C415   O451    1.272   .     A
C415   C432    1.397   .     S
C415   O453    1.288   .     A
C416   C418    1.387   .     A
C416   H442    1.086   .     S
C416   C427    1.383   .     A
C417   C435    1.415   .     S
C417   C436    1.387   .     A
C417   C419    1.390   .     A
C418   C420    1.390   .     A
C418   C434    1.415   .     S
C419   H443    1.084   .     S
C419   C421    1.389   .     A
C420   H444    1.084   .     S
C420   C422    1.389   .     A
C421   C423    1.419   .     A
C421   C428    1.410   .     A
C422   C429    1.410   .     A
C422   C424    1.419   .     A
C423   C425    1.414   .     A
C424   C427    1.414   .     A
C424   C9      1.392   1_556 S
C425   C436    1.383   .     A
C425   C431    1.397   .     A
C426   O454    1.288   .     A
C426   C433    1.397   .     S
C426   O452    1.272   .     A
C427   C430    1.397   .     A
C428   Cl437   1.764   .     S
C429   Cl438   1.764   .     S
C429   C17     1.390   1_556 S
C430   H445    1.085   .     S
C430   C14     1.390   1_556 S
C431   H446    1.085   .     S
C432   C571    1.350   .     S
C432   Cl577   1.781   .     S
C433   C708    1.350   1_545 S
C433   Cl716   1.781   1_545 S
C434   O455    1.284   .     A
C434   O457    1.285   .     A
C435   O458    1.285   .     A
C435   O456    1.284   .     A
C436   H441    1.086   .     S
Cl439  C708    1.781   1_545 S
Cl440  C571    1.781   .     S
H447   N541    1.029   1_455 S
H448   N496    1.029   .     S
N449   Zn460   2.017   .     S
N449   H493    1.029   .     S
N449   N496    1.279   .     S
N450   Zn459   2.017   .     S
N450   H540    1.029   1_455 S
N450   N541    1.279   1_455 S
O451   Zn459   1.965   .     S
O452   Zn460   1.965   .     S
O453   Zn460   1.979   .     S
O454   Zn459   1.979   .     S
O455   Zn459   1.987   .     S
O456   Zn460   1.987   .     S
O457   Zn460   2.012   .     S
O458   Zn459   2.012   .     S
C461   O497    1.272   .     A
C461   C478    1.397   .     S
C461   O499    1.288   .     A
C462   C464    1.387   .     A
C462   H488    1.086   .     S
C462   C473    1.383   .     A
C463   C481    1.415   .     S
C463   C482    1.387   .     A
C463   C465    1.390   .     A
C464   C466    1.390   .     A
C464   C480    1.415   .     S
C465   H489    1.084   .     S
C465   C467    1.389   .     A
C466   H490    1.084   .     S
C466   C468    1.389   .     A
C467   C469    1.419   .     A
C467   C474    1.410   .     A
C468   C475    1.410   .     A
C468   C470    1.419   .     A
C469   C471    1.414   .     A
C470   C473    1.414   .     A
C470   C55     1.392   1_556 S
C471   C482    1.383   .     A
C471   C477    1.397   .     A
C472   O500    1.288   .     A
C472   C479    1.397   .     S
C472   O498    1.272   .     A
C473   C476    1.397   .     A
C474   Cl483   1.764   .     S
C475   Cl484   1.764   .     S
C475   C63     1.390   1_556 S
C476   H491    1.085   .     S
C476   C60     1.390   1_556 S
C477   H492    1.085   .     S
C478   C617    1.350   .     S
C478   Cl623   1.781   .     S
C479   C754    1.350   1_545 S
C479   Cl762   1.781   1_545 S
C480   O501    1.284   .     A
C480   O503    1.285   .     A
C481   O504    1.285   .     A
C481   O502    1.284   .     A
C482   H487    1.086   .     S
Cl485  C754    1.781   1_545 S
Cl486  C617    1.781   .     S
H494   N542    1.029   .     S
N495   Zn506   2.017   .     S
N495   H539    1.029   .     S
N495   N542    1.279   .     S
N496   Zn505   2.017   .     S
O497   Zn505   1.965   .     S
O498   Zn506   1.965   .     S
O499   Zn506   1.979   .     S
O500   Zn505   1.979   .     S
O501   Zn505   1.987   .     S
O502   Zn506   1.987   .     S
O503   Zn506   2.012   .     S
O504   Zn505   2.012   .     S
C507   O543    1.272   .     A
C507   C524    1.397   .     S
C507   O545    1.288   .     A
C508   C510    1.387   .     A
C508   H534    1.086   .     S
C508   C519    1.383   .     A
C509   C527    1.415   .     S
C509   C528    1.387   .     A
C509   C511    1.390   .     A
C510   C512    1.390   .     A
C510   C526    1.415   .     S
C511   H535    1.084   .     S
C511   C513    1.389   .     A
C512   H536    1.084   .     S
C512   C514    1.389   .     A
C513   C515    1.419   .     A
C513   C520    1.410   .     A
C514   C521    1.410   .     A
C514   C516    1.419   .     A
C515   C517    1.414   .     A
C516   C519    1.414   .     A
C516   C101    1.392   1_556 S
C517   C528    1.383   .     A
C517   C523    1.397   .     A
C518   O546    1.288   .     A
C518   C525    1.397   .     S
C518   O544    1.272   .     A
C519   C522    1.397   .     A
C520   Cl529   1.764   .     S
C521   Cl530   1.764   .     S
C521   C109    1.390   1_556 S
C522   H537    1.085   .     S
C522   C106    1.390   1_556 S
C523   H538    1.085   .     S
C524   C663    1.350   .     S
C524   Cl669   1.781   .     S
C525   C800    1.350   1_545 S
C525   Cl808   1.781   1_545 S
C526   O547    1.284   .     A
C526   O549    1.285   .     A
C527   O550    1.285   .     A
C527   O548    1.284   .     A
C528   H533    1.086   .     S
Cl531  C800    1.781   1_545 S
Cl532  C663    1.781   .     S
H540   N450    1.029   1_655 S
N541   Zn552   2.017   .     S
N541   H447    1.029   1_655 S
N541   N450    1.279   1_655 S
N542   Zn551   2.017   .     S
O543   Zn551   1.965   .     S
O544   Zn552   1.965   .     S
O545   Zn552   1.979   .     S
O546   Zn551   1.979   .     S
O547   Zn551   1.987   .     S
O548   Zn552   1.987   .     S
O549   Zn552   2.012   .     S
O550   Zn551   2.012   .     S
C553   O589    1.272   .     A
C553   C570    1.397   .     S
C553   O591    1.288   .     A
C554   C556    1.387   .     A
C554   H580    1.086   .     S
C554   C565    1.383   .     A
C555   C573    1.415   .     S
C555   C574    1.387   .     A
C555   C557    1.390   .     A
C556   C558    1.390   .     A
C556   C572    1.415   .     S
C557   H581    1.084   .     S
C557   C559    1.389   .     A
C558   H582    1.084   .     S
C558   C560    1.389   .     A
C559   C561    1.419   .     A
C559   C566    1.410   .     A
C560   C567    1.410   .     A
C560   C562    1.419   .     A
C561   C563    1.414   .     A
C562   C565    1.414   .     A
C562   C147    1.392   1_556 S
C563   C574    1.383   .     A
C563   C569    1.397   .     A
C564   O592    1.288   .     A
C564   C571    1.397   .     S
C564   O590    1.272   .     A
C565   C568    1.397   .     A
C566   Cl575   1.764   .     S
C567   Cl576   1.764   .     S
C567   C155    1.390   1_556 S
C568   H583    1.085   .     S
C568   C152    1.390   1_556 S
C569   H584    1.085   .     S
C570   C709    1.350   .     S
C570   Cl715   1.781   .     S
C572   O593    1.284   .     A
C572   O595    1.285   .     A
C573   O596    1.285   .     A
C573   O594    1.284   .     A
C574   H579    1.086   .     S
Cl578  C709    1.781   .     S
H585   N679    1.029   1_455 S
H586   N634    1.029   .     S
N587   Zn598   2.017   .     S
N587   H631    1.029   .     S
N587   N634    1.279   .     S
N588   Zn597   2.017   .     S
N588   H678    1.029   1_455 S
N588   N679    1.279   1_455 S
O589   Zn597   1.965   .     S
O590   Zn598   1.965   .     S
O591   Zn598   1.979   .     S
O592   Zn597   1.979   .     S
O593   Zn597   1.987   .     S
O594   Zn598   1.987   .     S
O595   Zn598   2.012   .     S
O596   Zn597   2.012   .     S
C599   O635    1.272   .     A
C599   C616    1.397   .     S
C599   O637    1.288   .     A
C600   C602    1.387   .     A
C600   H626    1.086   .     S
C600   C611    1.383   .     A
C601   C619    1.415   .     S
C601   C620    1.387   .     A
C601   C603    1.390   .     A
C602   C604    1.390   .     A
C602   C618    1.415   .     S
C603   H627    1.084   .     S
C603   C605    1.389   .     A
C604   H628    1.084   .     S
C604   C606    1.389   .     A
C605   C607    1.419   .     A
C605   C612    1.410   .     A
C606   C613    1.410   .     A
C606   C608    1.419   .     A
C607   C609    1.414   .     A
C608   C611    1.414   .     A
C608   C193    1.392   1_556 S
C609   C620    1.383   .     A
C609   C615    1.397   .     A
C610   O638    1.288   .     A
C610   C617    1.397   .     S
C610   O636    1.272   .     A
C611   C614    1.397   .     A
C612   Cl621   1.764   .     S
C613   Cl622   1.764   .     S
C613   C201    1.390   1_556 S
C614   H629    1.085   .     S
C614   C198    1.390   1_556 S
C615   H630    1.085   .     S
C616   C755    1.350   .     S
C616   Cl761   1.781   .     S
C618   O639    1.284   .     A
C618   O641    1.285   .     A
C619   O642    1.285   .     A
C619   O640    1.284   .     A
C620   H625    1.086   .     S
Cl624  C755    1.781   .     S
H632   N680    1.029   .     S
N633   Zn644   2.017   .     S
N633   H677    1.029   .     S
N633   N680    1.279   .     S
N634   Zn643   2.017   .     S
O635   Zn643   1.965   .     S
O636   Zn644   1.965   .     S
O637   Zn644   1.979   .     S
O638   Zn643   1.979   .     S
O639   Zn643   1.987   .     S
O640   Zn644   1.987   .     S
O641   Zn644   2.012   .     S
O642   Zn643   2.012   .     S
C645   O681    1.272   .     A
C645   C662    1.397   .     S
C645   O683    1.288   .     A
C646   C648    1.387   .     A
C646   H672    1.086   .     S
C646   C657    1.383   .     A
C647   C665    1.415   .     S
C647   C666    1.387   .     A
C647   C649    1.390   .     A
C648   C650    1.390   .     A
C648   C664    1.415   .     S
C649   H673    1.084   .     S
C649   C651    1.389   .     A
C650   H674    1.084   .     S
C650   C652    1.389   .     A
C651   C653    1.419   .     A
C651   C658    1.410   .     A
C652   C659    1.410   .     A
C652   C654    1.419   .     A
C653   C655    1.414   .     A
C654   C657    1.414   .     A
C654   C239    1.392   1_556 S
C655   C666    1.383   .     A
C655   C661    1.397   .     A
C656   O684    1.288   .     A
C656   C663    1.397   .     S
C656   O682    1.272   .     A
C657   C660    1.397   .     A
C658   Cl667   1.764   .     S
C659   Cl668   1.764   .     S
C659   C247    1.390   1_556 S
C660   H675    1.085   .     S
C660   C244    1.390   1_556 S
C661   H676    1.085   .     S
C662   C801    1.350   .     S
C662   Cl807   1.781   .     S
C664   O685    1.284   .     A
C664   O687    1.285   .     A
C665   O688    1.285   .     A
C665   O686    1.284   .     A
C666   H671    1.086   .     S
Cl670  C801    1.781   .     S
H678   N588    1.029   1_655 S
N679   Zn690   2.017   .     S
N679   H585    1.029   1_655 S
N679   N588    1.279   1_655 S
N680   Zn689   2.017   .     S
O681   Zn689   1.965   .     S
O682   Zn690   1.965   .     S
O683   Zn690   1.979   .     S
O684   Zn689   1.979   .     S
O685   Zn689   1.987   .     S
O686   Zn690   1.987   .     S
O687   Zn690   2.012   .     S
O688   Zn689   2.012   .     S
C691   O727    1.272   .     A
C691   C708    1.397   .     S
C691   O729    1.288   .     A
C692   C694    1.387   .     A
C692   H718    1.086   .     S
C692   C703    1.383   .     A
C693   C711    1.415   .     S
C693   C712    1.387   .     A
C693   C695    1.390   .     A
C694   C696    1.390   .     A
C694   C710    1.415   .     S
C695   H719    1.084   .     S
C695   C697    1.389   .     A
C696   H720    1.084   .     S
C696   C698    1.389   .     A
C697   C699    1.419   .     A
C697   C704    1.410   .     A
C698   C705    1.410   .     A
C698   C700    1.419   .     A
C699   C701    1.414   .     A
C700   C703    1.414   .     A
C700   C285    1.392   1_556 S
C701   C712    1.383   .     A
C701   C707    1.397   .     A
C702   O730    1.288   .     A
C702   C709    1.397   .     S
C702   O728    1.272   .     A
C703   C706    1.397   .     A
C704   Cl713   1.764   .     S
C705   Cl714   1.764   .     S
C705   C293    1.390   1_556 S
C706   H721    1.085   .     S
C706   C290    1.390   1_556 S
C707   H722    1.085   .     S
C708   C433    1.350   1_565 S
C708   Cl439   1.781   1_565 S
C710   O731    1.284   .     A
C710   O733    1.285   .     A
C711   O734    1.285   .     A
C711   O732    1.284   .     A
C712   H717    1.086   .     S
Cl716  C433    1.781   1_565 S
H723   N817    1.029   1_455 S
H724   N772    1.029   .     S
N725   Zn736   2.017   .     S
N725   H769    1.029   .     S
N725   N772    1.279   .     S
N726   Zn735   2.017   .     S
N726   H816    1.029   1_455 S
N726   N817    1.279   1_455 S
O727   Zn735   1.965   .     S
O728   Zn736   1.965   .     S
O729   Zn736   1.979   .     S
O730   Zn735   1.979   .     S
O731   Zn735   1.987   .     S
O732   Zn736   1.987   .     S
O733   Zn736   2.012   .     S
O734   Zn735   2.012   .     S
C737   O773    1.272   .     A
C737   C754    1.397   .     S
C737   O775    1.288   .     A
C738   C740    1.387   .     A
C738   H764    1.086   .     S
C738   C749    1.383   .     A
C739   C757    1.415   .     S
C739   C758    1.387   .     A
C739   C741    1.390   .     A
C740   C742    1.390   .     A
C740   C756    1.415   .     S
C741   H765    1.084   .     S
C741   C743    1.389   .     A
C742   H766    1.084   .     S
C742   C744    1.389   .     A
C743   C745    1.419   .     A
C743   C750    1.410   .     A
C744   C751    1.410   .     A
C744   C746    1.419   .     A
C745   C747    1.414   .     A
C746   C749    1.414   .     A
C746   C331    1.392   1_556 S
C747   C758    1.383   .     A
C747   C753    1.397   .     A
C748   O776    1.288   .     A
C748   C755    1.397   .     S
C748   O774    1.272   .     A
C749   C752    1.397   .     A
C750   Cl759   1.764   .     S
C751   Cl760   1.764   .     S
C751   C339    1.390   1_556 S
C752   H767    1.085   .     S
C752   C336    1.390   1_556 S
C753   H768    1.085   .     S
C754   C479    1.350   1_565 S
C754   Cl485   1.781   1_565 S
C756   O777    1.284   .     A
C756   O779    1.285   .     A
C757   O780    1.285   .     A
C757   O778    1.284   .     A
C758   H763    1.086   .     S
Cl762  C479    1.781   1_565 S
H770   N818    1.029   .     S
N771   Zn782   2.017   .     S
N771   H815    1.029   .     S
N771   N818    1.279   .     S
N772   Zn781   2.017   .     S
O773   Zn781   1.965   .     S
O774   Zn782   1.965   .     S
O775   Zn782   1.979   .     S
O776   Zn781   1.979   .     S
O777   Zn781   1.987   .     S
O778   Zn782   1.987   .     S
O779   Zn782   2.012   .     S
O780   Zn781   2.012   .     S
C783   O819    1.272   .     A
C783   C800    1.397   .     S
C783   O821    1.288   .     A
C784   C786    1.387   .     A
C784   H810    1.086   .     S
C784   C795    1.383   .     A
C785   C803    1.415   .     S
C785   C804    1.387   .     A
C785   C787    1.390   .     A
C786   C788    1.390   .     A
C786   C802    1.415   .     S
C787   H811    1.084   .     S
C787   C789    1.389   .     A
C788   H812    1.084   .     S
C788   C790    1.389   .     A
C789   C791    1.419   .     A
C789   C796    1.410   .     A
C790   C797    1.410   .     A
C790   C792    1.419   .     A
C791   C793    1.414   .     A
C792   C795    1.414   .     A
C792   C377    1.392   1_556 S
C793   C804    1.383   .     A
C793   C799    1.397   .     A
C794   O822    1.288   .     A
C794   C801    1.397   .     S
C794   O820    1.272   .     A
C795   C798    1.397   .     A
C796   Cl805   1.764   .     S
C797   Cl806   1.764   .     S
C797   C385    1.390   1_556 S
C798   H813    1.085   .     S
C798   C382    1.390   1_556 S
C799   H814    1.085   .     S
C800   C525    1.350   1_565 S
C800   Cl531   1.781   1_565 S
C802   O823    1.284   .     A
C802   O825    1.285   .     A
C803   O826    1.285   .     A
C803   O824    1.284   .     A
C804   H809    1.086   .     S
Cl808  C525    1.781   1_565 S
H816   N726    1.029   1_655 S
N817   Zn828   2.017   .     S
N817   H723    1.029   1_655 S
N817   N726    1.279   1_655 S
N818   Zn827   2.017   .     S
O819   Zn827   1.965   .     S
O820   Zn828   1.965   .     S
O821   Zn828   1.979   .     S
O822   Zn827   1.979   .     S
O823   Zn827   1.987   .     S
O824   Zn828   1.987   .     S
O825   Zn828   2.012   .     S
O826   Zn827   2.012   .     S
