data_str_m3_o2_o5_pcu_sym.101
_audit_creation_date              2020-01-03
_audit_creation_method            'Materials Studio'
_symmetry_space_group_name_H-M    'P1'
_symmetry_Int_Tables_number       1
_symmetry_cell_setting            triclinic
loop_
_symmetry_equiv_pos_as_xyz
  x,y,z
_cell_length_a                    29.9778
_cell_length_b                    28.6144
_cell_length_c                    26.6938
_cell_angle_alpha                 90.0005
_cell_angle_beta                  91.2130
_cell_angle_gamma                 90.0005
loop_
_atom_site_label
_atom_site_type_symbol
_atom_site_fract_x
_atom_site_fract_y
_atom_site_fract_z
_atom_site_U_iso_or_equiv
_atom_site_adp_type
_atom_site_occupancy
C1     C     0.16398   0.25002   0.16665   0.00000  Uiso   1.00
C2     C     0.21456   0.44736   0.14490   0.00000  Uiso   1.00
C3     C     0.24993   0.25000   0.07296   0.00000  Uiso   1.00
C4     C     0.25007   0.25000   0.26037   0.00000  Uiso   1.00
C5     C     0.25000   0.02649   0.16667   0.00000  Uiso   1.00
C6     C     0.25000   0.47329   0.16667   0.00000  Uiso   1.00
C7     C     0.24998   0.25000   0.02182   0.00000  Uiso   1.00
C8     C     0.25002   0.25000   0.31152   0.00000  Uiso   1.00
C9     C     0.04739   0.28636   0.19145   0.00000  Uiso   1.00
C10    C     0.45388   0.21520   0.19186   0.00000  Uiso   1.00
C11    C     0.45257   0.28625   0.14156   0.00000  Uiso   1.00
C12    C     0.33602   0.25002   0.16668   0.00000  Uiso   1.00
C13    C     0.04613   0.21510   0.14149   0.00000  Uiso   1.00
C14    C     0.09349   0.28615   0.19155   0.00000  Uiso   1.00
C15    C     0.40780   0.21477   0.19175   0.00000  Uiso   1.00
C16    C     0.40647   0.28604   0.14152   0.00000  Uiso   1.00
C17    C     0.09221   0.21467   0.14166   0.00000  Uiso   1.00
C18    C     0.11597   0.25021   0.16669   0.00000  Uiso   1.00
C19    C     0.38402   0.25021   0.16659   0.00000  Uiso   1.00
C20    C     0.02394   0.25086   0.16645   0.00000  Uiso   1.00
C21    C     0.47604   0.25085   0.16670   0.00000  Uiso   1.00
C22    C     0.23092   0.10159   0.12753   0.00000  Uiso   1.00
C23    C     0.28342   0.39819   0.19089   0.00000  Uiso   1.00
C24    C     0.26909   0.10159   0.20580   0.00000  Uiso   1.00
C25    C     0.21658   0.39819   0.14244   0.00000  Uiso   1.00
C26    C     0.23339   0.05241   0.12544   0.00000  Uiso   1.00
C27    C     0.28544   0.44736   0.18844   0.00000  Uiso   1.00
C28    C     0.26662   0.05242   0.20790   0.00000  Uiso   1.00
Cl29   Cl    0.20099   0.12962   0.07897   0.00000  Uiso   1.00
Cl30   Cl    0.32432   0.36943   0.22743   0.00000  Uiso   1.00
Cl31   Cl    0.29902   0.12962   0.25435   0.00000  Uiso   1.00
Cl32   Cl    0.17568   0.36943   0.10590   0.00000  Uiso   1.00
F33    F     0.02553   0.32056   0.21631   0.00000  Uiso   1.00
F34    F     0.32267   0.46918   0.20643   0.00000  Uiso   1.00
F35    F     0.27972   0.03055   0.25089   0.00000  Uiso   1.00
F36    F     0.17733   0.46918   0.12691   0.00000  Uiso   1.00
F37    F     0.47699   0.18135   0.21691   0.00000  Uiso   1.00
F38    F     0.47440   0.32035   0.11652   0.00000  Uiso   1.00
F39    F     0.02304   0.18115   0.11658   0.00000  Uiso   1.00
F40    F     0.11606   0.32020   0.21691   0.00000  Uiso   1.00
F41    F     0.38657   0.18056   0.21720   0.00000  Uiso   1.00
F42    F     0.38387   0.31998   0.11603   0.00000  Uiso   1.00
F43    F     0.11345   0.18034   0.11642   0.00000  Uiso   1.00
F44    F     0.22029   0.03055   0.08244   0.00000  Uiso   1.00
N45    N     0.25000   0.12624   0.16667   0.00000  Uiso   1.00
N46    N     0.25000   0.37377   0.16667   0.00000  Uiso   1.00
O47    O     0.18453   0.28974   0.16667   0.00000  Uiso   1.00
O48    O     0.31547   0.21026   0.16666   0.00000  Uiso   1.00
O49    O     0.31547   0.28974   0.16666   0.00000  Uiso   1.00
O50    O     0.18453   0.21026   0.16667   0.00000  Uiso   1.00
O51    O     0.25000   0.28973   0.09511   0.00000  Uiso   1.00
O52    O     0.25000   0.21027   0.23822   0.00000  Uiso   1.00
O53    O     0.25000   0.28973   0.23822   0.00000  Uiso   1.00
O54    O     0.25000   0.21027   0.09511   0.00000  Uiso   1.00
Zn55   Zn    0.25000   0.30307   0.16667   0.00000  Uiso   1.00
Zn56   Zn    0.25000   0.19693   0.16667   0.00000  Uiso   1.00
C57    C     0.66398   0.25002   0.16665   0.00000  Uiso   1.00
C58    C     0.71456   0.44736   0.14490   0.00000  Uiso   1.00
C59    C     0.74993   0.25000   0.07296   0.00000  Uiso   1.00
C60    C     0.75007   0.25000   0.26037   0.00000  Uiso   1.00
C61    C     0.75000   0.02649   0.16667   0.00000  Uiso   1.00
C62    C     0.75000   0.47329   0.16667   0.00000  Uiso   1.00
C63    C     0.74998   0.25000   0.02182   0.00000  Uiso   1.00
C64    C     0.75002   0.25000   0.31152   0.00000  Uiso   1.00
C65    C     0.54739   0.28636   0.19145   0.00000  Uiso   1.00
C66    C     0.95388   0.21520   0.19186   0.00000  Uiso   1.00
C67    C     0.95257   0.28625   0.14156   0.00000  Uiso   1.00
C68    C     0.83602   0.25002   0.16668   0.00000  Uiso   1.00
C69    C     0.54613   0.21510   0.14149   0.00000  Uiso   1.00
C70    C     0.59349   0.28615   0.19155   0.00000  Uiso   1.00
C71    C     0.90780   0.21477   0.19175   0.00000  Uiso   1.00
C72    C     0.90647   0.28604   0.14152   0.00000  Uiso   1.00
C73    C     0.59221   0.21467   0.14166   0.00000  Uiso   1.00
C74    C     0.61597   0.25021   0.16669   0.00000  Uiso   1.00
C75    C     0.88402   0.25021   0.16659   0.00000  Uiso   1.00
C76    C     0.52394   0.25086   0.16645   0.00000  Uiso   1.00
C77    C     0.97604   0.25085   0.16670   0.00000  Uiso   1.00
C78    C     0.73092   0.10159   0.12753   0.00000  Uiso   1.00
C79    C     0.78342   0.39819   0.19089   0.00000  Uiso   1.00
C80    C     0.76909   0.10159   0.20580   0.00000  Uiso   1.00
C81    C     0.71658   0.39819   0.14244   0.00000  Uiso   1.00
C82    C     0.73339   0.05241   0.12544   0.00000  Uiso   1.00
C83    C     0.78544   0.44736   0.18844   0.00000  Uiso   1.00
C84    C     0.76662   0.05242   0.20790   0.00000  Uiso   1.00
Cl85   Cl    0.70099   0.12962   0.07897   0.00000  Uiso   1.00
Cl86   Cl    0.82432   0.36943   0.22743   0.00000  Uiso   1.00
Cl87   Cl    0.79902   0.12962   0.25435   0.00000  Uiso   1.00
Cl88   Cl    0.67568   0.36943   0.10590   0.00000  Uiso   1.00
F89    F     0.52553   0.32056   0.21631   0.00000  Uiso   1.00
F90    F     0.82267   0.46918   0.20643   0.00000  Uiso   1.00
F91    F     0.77972   0.03055   0.25089   0.00000  Uiso   1.00
F92    F     0.67733   0.46918   0.12691   0.00000  Uiso   1.00
F93    F     0.97699   0.18135   0.21691   0.00000  Uiso   1.00
F94    F     0.97440   0.32035   0.11652   0.00000  Uiso   1.00
F95    F     0.52304   0.18115   0.11658   0.00000  Uiso   1.00
F96    F     0.61606   0.32020   0.21691   0.00000  Uiso   1.00
F97    F     0.88657   0.18056   0.21720   0.00000  Uiso   1.00
F98    F     0.88387   0.31998   0.11603   0.00000  Uiso   1.00
F99    F     0.61345   0.18034   0.11642   0.00000  Uiso   1.00
F100   F     0.72029   0.03055   0.08244   0.00000  Uiso   1.00
N101   N     0.75000   0.12624   0.16667   0.00000  Uiso   1.00
N102   N     0.75000   0.37377   0.16667   0.00000  Uiso   1.00
O103   O     0.68453   0.28974   0.16667   0.00000  Uiso   1.00
O104   O     0.81547   0.21026   0.16666   0.00000  Uiso   1.00
O105   O     0.81547   0.28974   0.16666   0.00000  Uiso   1.00
O106   O     0.68453   0.21026   0.16667   0.00000  Uiso   1.00
O107   O     0.75000   0.28973   0.09511   0.00000  Uiso   1.00
O108   O     0.75000   0.21027   0.23822   0.00000  Uiso   1.00
O109   O     0.75000   0.28973   0.23822   0.00000  Uiso   1.00
O110   O     0.75000   0.21027   0.09511   0.00000  Uiso   1.00
Zn111  Zn    0.75000   0.30307   0.16667   0.00000  Uiso   1.00
Zn112  Zn    0.75000   0.19693   0.16667   0.00000  Uiso   1.00
C113   C     0.16398   0.75002   0.16665   0.00000  Uiso   1.00
C114   C     0.21456   0.94736   0.14490   0.00000  Uiso   1.00
C115   C     0.24993   0.75000   0.07296   0.00000  Uiso   1.00
C116   C     0.25007   0.75000   0.26037   0.00000  Uiso   1.00
C117   C     0.25000   0.52649   0.16667   0.00000  Uiso   1.00
C118   C     0.25000   0.97329   0.16667   0.00000  Uiso   1.00
C119   C     0.24998   0.75000   0.02182   0.00000  Uiso   1.00
C120   C     0.25002   0.75000   0.31152   0.00000  Uiso   1.00
C121   C     0.04739   0.78636   0.19145   0.00000  Uiso   1.00
C122   C     0.45388   0.71520   0.19186   0.00000  Uiso   1.00
C123   C     0.45257   0.78625   0.14156   0.00000  Uiso   1.00
C124   C     0.33602   0.75002   0.16668   0.00000  Uiso   1.00
C125   C     0.04613   0.71510   0.14149   0.00000  Uiso   1.00
C126   C     0.09349   0.78615   0.19155   0.00000  Uiso   1.00
C127   C     0.40780   0.71477   0.19175   0.00000  Uiso   1.00
C128   C     0.40647   0.78604   0.14152   0.00000  Uiso   1.00
C129   C     0.09221   0.71467   0.14166   0.00000  Uiso   1.00
C130   C     0.11597   0.75021   0.16669   0.00000  Uiso   1.00
C131   C     0.38402   0.75021   0.16659   0.00000  Uiso   1.00
C132   C     0.02394   0.75086   0.16645   0.00000  Uiso   1.00
C133   C     0.47604   0.75085   0.16670   0.00000  Uiso   1.00
C134   C     0.23092   0.60159   0.12753   0.00000  Uiso   1.00
C135   C     0.28342   0.89819   0.19089   0.00000  Uiso   1.00
C136   C     0.26909   0.60159   0.20580   0.00000  Uiso   1.00
C137   C     0.21658   0.89819   0.14244   0.00000  Uiso   1.00
C138   C     0.23339   0.55241   0.12544   0.00000  Uiso   1.00
C139   C     0.28544   0.94736   0.18844   0.00000  Uiso   1.00
C140   C     0.26662   0.55242   0.20790   0.00000  Uiso   1.00
Cl141  Cl    0.20099   0.62962   0.07897   0.00000  Uiso   1.00
Cl142  Cl    0.32432   0.86943   0.22743   0.00000  Uiso   1.00
Cl143  Cl    0.29902   0.62962   0.25435   0.00000  Uiso   1.00
Cl144  Cl    0.17568   0.86943   0.10590   0.00000  Uiso   1.00
F145   F     0.02553   0.82056   0.21631   0.00000  Uiso   1.00
F146   F     0.32267   0.96918   0.20643   0.00000  Uiso   1.00
F147   F     0.27972   0.53055   0.25089   0.00000  Uiso   1.00
F148   F     0.17733   0.96918   0.12691   0.00000  Uiso   1.00
F149   F     0.47699   0.68135   0.21691   0.00000  Uiso   1.00
F150   F     0.47440   0.82035   0.11652   0.00000  Uiso   1.00
F151   F     0.02304   0.68115   0.11658   0.00000  Uiso   1.00
F152   F     0.11606   0.82020   0.21691   0.00000  Uiso   1.00
F153   F     0.38657   0.68056   0.21720   0.00000  Uiso   1.00
F154   F     0.38387   0.81998   0.11603   0.00000  Uiso   1.00
F155   F     0.11345   0.68034   0.11642   0.00000  Uiso   1.00
F156   F     0.22029   0.53055   0.08244   0.00000  Uiso   1.00
N157   N     0.25000   0.62624   0.16667   0.00000  Uiso   1.00
N158   N     0.25000   0.87377   0.16667   0.00000  Uiso   1.00
O159   O     0.18453   0.78974   0.16667   0.00000  Uiso   1.00
O160   O     0.31547   0.71026   0.16666   0.00000  Uiso   1.00
O161   O     0.31547   0.78974   0.16666   0.00000  Uiso   1.00
O162   O     0.18453   0.71026   0.16667   0.00000  Uiso   1.00
O163   O     0.25000   0.78973   0.09511   0.00000  Uiso   1.00
O164   O     0.25000   0.71027   0.23822   0.00000  Uiso   1.00
O165   O     0.25000   0.78973   0.23822   0.00000  Uiso   1.00
O166   O     0.25000   0.71027   0.09511   0.00000  Uiso   1.00
Zn167  Zn    0.25000   0.80307   0.16667   0.00000  Uiso   1.00
Zn168  Zn    0.25000   0.69693   0.16667   0.00000  Uiso   1.00
C169   C     0.66398   0.75002   0.16665   0.00000  Uiso   1.00
C170   C     0.71456   0.94736   0.14490   0.00000  Uiso   1.00
C171   C     0.74993   0.75000   0.07296   0.00000  Uiso   1.00
C172   C     0.75007   0.75000   0.26037   0.00000  Uiso   1.00
C173   C     0.75000   0.52649   0.16667   0.00000  Uiso   1.00
C174   C     0.75000   0.97329   0.16667   0.00000  Uiso   1.00
C175   C     0.74998   0.75000   0.02182   0.00000  Uiso   1.00
C176   C     0.75002   0.75000   0.31152   0.00000  Uiso   1.00
C177   C     0.54739   0.78636   0.19145   0.00000  Uiso   1.00
C178   C     0.95388   0.71520   0.19186   0.00000  Uiso   1.00
C179   C     0.95257   0.78625   0.14156   0.00000  Uiso   1.00
C180   C     0.83602   0.75002   0.16668   0.00000  Uiso   1.00
C181   C     0.54613   0.71510   0.14149   0.00000  Uiso   1.00
C182   C     0.59349   0.78615   0.19155   0.00000  Uiso   1.00
C183   C     0.90780   0.71477   0.19175   0.00000  Uiso   1.00
C184   C     0.90647   0.78604   0.14152   0.00000  Uiso   1.00
C185   C     0.59221   0.71467   0.14166   0.00000  Uiso   1.00
C186   C     0.61597   0.75021   0.16669   0.00000  Uiso   1.00
C187   C     0.88402   0.75021   0.16659   0.00000  Uiso   1.00
C188   C     0.52394   0.75086   0.16645   0.00000  Uiso   1.00
C189   C     0.97604   0.75085   0.16670   0.00000  Uiso   1.00
C190   C     0.73092   0.60159   0.12753   0.00000  Uiso   1.00
C191   C     0.78342   0.89819   0.19089   0.00000  Uiso   1.00
C192   C     0.76909   0.60159   0.20580   0.00000  Uiso   1.00
C193   C     0.71658   0.89819   0.14244   0.00000  Uiso   1.00
C194   C     0.73339   0.55241   0.12544   0.00000  Uiso   1.00
C195   C     0.78544   0.94736   0.18844   0.00000  Uiso   1.00
C196   C     0.76662   0.55242   0.20790   0.00000  Uiso   1.00
Cl197  Cl    0.70099   0.62962   0.07897   0.00000  Uiso   1.00
Cl198  Cl    0.82432   0.86943   0.22743   0.00000  Uiso   1.00
Cl199  Cl    0.79902   0.62962   0.25435   0.00000  Uiso   1.00
Cl200  Cl    0.67568   0.86943   0.10590   0.00000  Uiso   1.00
F201   F     0.52553   0.82056   0.21631   0.00000  Uiso   1.00
F202   F     0.82267   0.96918   0.20643   0.00000  Uiso   1.00
F203   F     0.77972   0.53055   0.25089   0.00000  Uiso   1.00
F204   F     0.67733   0.96918   0.12691   0.00000  Uiso   1.00
F205   F     0.97699   0.68135   0.21691   0.00000  Uiso   1.00
F206   F     0.97440   0.82035   0.11652   0.00000  Uiso   1.00
F207   F     0.52304   0.68115   0.11658   0.00000  Uiso   1.00
F208   F     0.61606   0.82020   0.21691   0.00000  Uiso   1.00
F209   F     0.88657   0.68056   0.21720   0.00000  Uiso   1.00
F210   F     0.88387   0.81998   0.11603   0.00000  Uiso   1.00
F211   F     0.61345   0.68034   0.11642   0.00000  Uiso   1.00
F212   F     0.72029   0.53055   0.08244   0.00000  Uiso   1.00
N213   N     0.75000   0.62624   0.16667   0.00000  Uiso   1.00
N214   N     0.75000   0.87377   0.16667   0.00000  Uiso   1.00
O215   O     0.68453   0.78974   0.16667   0.00000  Uiso   1.00
O216   O     0.81547   0.71026   0.16666   0.00000  Uiso   1.00
O217   O     0.81547   0.78974   0.16666   0.00000  Uiso   1.00
O218   O     0.68453   0.71026   0.16667   0.00000  Uiso   1.00
O219   O     0.75000   0.78973   0.09511   0.00000  Uiso   1.00
O220   O     0.75000   0.71027   0.23822   0.00000  Uiso   1.00
O221   O     0.75000   0.78973   0.23822   0.00000  Uiso   1.00
O222   O     0.75000   0.71027   0.09511   0.00000  Uiso   1.00
Zn223  Zn    0.75000   0.80307   0.16667   0.00000  Uiso   1.00
Zn224  Zn    0.75000   0.69693   0.16667   0.00000  Uiso   1.00
C225   C     0.16398   0.25002   0.49999   0.00000  Uiso   1.00
C226   C     0.21456   0.44736   0.47823   0.00000  Uiso   1.00
C227   C     0.24993   0.25000   0.40629   0.00000  Uiso   1.00
C228   C     0.25007   0.25000   0.59371   0.00000  Uiso   1.00
C229   C     0.25000   0.02649   0.50000   0.00000  Uiso   1.00
C230   C     0.25000   0.47329   0.50000   0.00000  Uiso   1.00
C231   C     0.24998   0.25000   0.35515   0.00000  Uiso   1.00
C232   C     0.25002   0.25000   0.64485   0.00000  Uiso   1.00
C233   C     0.04739   0.28636   0.52479   0.00000  Uiso   1.00
C234   C     0.45388   0.21520   0.52519   0.00000  Uiso   1.00
C235   C     0.45257   0.28625   0.47489   0.00000  Uiso   1.00
C236   C     0.33602   0.25002   0.50001   0.00000  Uiso   1.00
C237   C     0.04613   0.21510   0.47482   0.00000  Uiso   1.00
C238   C     0.09349   0.28615   0.52489   0.00000  Uiso   1.00
C239   C     0.40780   0.21477   0.52508   0.00000  Uiso   1.00
C240   C     0.40647   0.28604   0.47485   0.00000  Uiso   1.00
C241   C     0.09221   0.21467   0.47500   0.00000  Uiso   1.00
C242   C     0.11597   0.25021   0.50002   0.00000  Uiso   1.00
C243   C     0.38402   0.25021   0.49992   0.00000  Uiso   1.00
C244   C     0.02394   0.25086   0.49978   0.00000  Uiso   1.00
C245   C     0.47604   0.25085   0.50004   0.00000  Uiso   1.00
C246   C     0.23092   0.10159   0.46087   0.00000  Uiso   1.00
C247   C     0.28342   0.39819   0.52422   0.00000  Uiso   1.00
C248   C     0.26909   0.10159   0.53913   0.00000  Uiso   1.00
C249   C     0.21658   0.39819   0.47578   0.00000  Uiso   1.00
C250   C     0.23339   0.05241   0.45877   0.00000  Uiso   1.00
C251   C     0.28544   0.44736   0.52177   0.00000  Uiso   1.00
C252   C     0.26662   0.05242   0.54123   0.00000  Uiso   1.00
Cl253  Cl    0.20099   0.12962   0.41230   0.00000  Uiso   1.00
Cl254  Cl    0.32432   0.36943   0.56077   0.00000  Uiso   1.00
Cl255  Cl    0.29902   0.12962   0.58769   0.00000  Uiso   1.00
Cl256  Cl    0.17568   0.36943   0.43923   0.00000  Uiso   1.00
F257   F     0.02553   0.32056   0.54964   0.00000  Uiso   1.00
F258   F     0.32267   0.46918   0.53976   0.00000  Uiso   1.00
F259   F     0.27972   0.03055   0.58422   0.00000  Uiso   1.00
F260   F     0.17733   0.46918   0.46024   0.00000  Uiso   1.00
F261   F     0.47699   0.18135   0.55025   0.00000  Uiso   1.00
F262   F     0.47440   0.32035   0.44985   0.00000  Uiso   1.00
F263   F     0.02304   0.18115   0.44991   0.00000  Uiso   1.00
F264   F     0.11606   0.32020   0.55025   0.00000  Uiso   1.00
F265   F     0.38657   0.18056   0.55053   0.00000  Uiso   1.00
F266   F     0.38387   0.31998   0.44936   0.00000  Uiso   1.00
F267   F     0.11345   0.18034   0.44975   0.00000  Uiso   1.00
F268   F     0.22029   0.03055   0.41578   0.00000  Uiso   1.00
N269   N     0.25000   0.12624   0.50000   0.00000  Uiso   1.00
N270   N     0.25000   0.37377   0.50000   0.00000  Uiso   1.00
O271   O     0.18453   0.28974   0.50000   0.00000  Uiso   1.00
O272   O     0.31547   0.21026   0.50000   0.00000  Uiso   1.00
O273   O     0.31547   0.28974   0.50000   0.00000  Uiso   1.00
O274   O     0.18453   0.21026   0.50000   0.00000  Uiso   1.00
O275   O     0.25000   0.28973   0.42845   0.00000  Uiso   1.00
O276   O     0.25000   0.21027   0.57155   0.00000  Uiso   1.00
O277   O     0.25000   0.28973   0.57155   0.00000  Uiso   1.00
O278   O     0.25000   0.21027   0.42845   0.00000  Uiso   1.00
Zn279  Zn    0.25000   0.30307   0.50000   0.00000  Uiso   1.00
Zn280  Zn    0.25000   0.19693   0.50000   0.00000  Uiso   1.00
C281   C     0.66398   0.25002   0.49999   0.00000  Uiso   1.00
C282   C     0.71456   0.44736   0.47823   0.00000  Uiso   1.00
C283   C     0.74993   0.25000   0.40629   0.00000  Uiso   1.00
C284   C     0.75007   0.25000   0.59371   0.00000  Uiso   1.00
C285   C     0.75000   0.02649   0.50000   0.00000  Uiso   1.00
C286   C     0.75000   0.47329   0.50000   0.00000  Uiso   1.00
C287   C     0.74998   0.25000   0.35515   0.00000  Uiso   1.00
C288   C     0.75002   0.25000   0.64485   0.00000  Uiso   1.00
C289   C     0.54739   0.28636   0.52479   0.00000  Uiso   1.00
C290   C     0.95388   0.21520   0.52519   0.00000  Uiso   1.00
C291   C     0.95257   0.28625   0.47489   0.00000  Uiso   1.00
C292   C     0.83602   0.25002   0.50001   0.00000  Uiso   1.00
C293   C     0.54613   0.21510   0.47482   0.00000  Uiso   1.00
C294   C     0.59349   0.28615   0.52489   0.00000  Uiso   1.00
C295   C     0.90780   0.21477   0.52508   0.00000  Uiso   1.00
C296   C     0.90647   0.28604   0.47485   0.00000  Uiso   1.00
C297   C     0.59221   0.21467   0.47500   0.00000  Uiso   1.00
C298   C     0.61597   0.25021   0.50002   0.00000  Uiso   1.00
C299   C     0.88402   0.25021   0.49992   0.00000  Uiso   1.00
C300   C     0.52394   0.25086   0.49978   0.00000  Uiso   1.00
C301   C     0.97604   0.25085   0.50004   0.00000  Uiso   1.00
C302   C     0.73092   0.10159   0.46087   0.00000  Uiso   1.00
C303   C     0.78342   0.39819   0.52422   0.00000  Uiso   1.00
C304   C     0.76909   0.10159   0.53913   0.00000  Uiso   1.00
C305   C     0.71658   0.39819   0.47578   0.00000  Uiso   1.00
C306   C     0.73339   0.05241   0.45877   0.00000  Uiso   1.00
C307   C     0.78544   0.44736   0.52177   0.00000  Uiso   1.00
C308   C     0.76662   0.05242   0.54123   0.00000  Uiso   1.00
Cl309  Cl    0.70099   0.12962   0.41230   0.00000  Uiso   1.00
Cl310  Cl    0.82432   0.36943   0.56077   0.00000  Uiso   1.00
Cl311  Cl    0.79902   0.12962   0.58769   0.00000  Uiso   1.00
Cl312  Cl    0.67568   0.36943   0.43923   0.00000  Uiso   1.00
F313   F     0.52553   0.32056   0.54964   0.00000  Uiso   1.00
F314   F     0.82267   0.46918   0.53976   0.00000  Uiso   1.00
F315   F     0.77972   0.03055   0.58422   0.00000  Uiso   1.00
F316   F     0.67733   0.46918   0.46024   0.00000  Uiso   1.00
F317   F     0.97699   0.18135   0.55025   0.00000  Uiso   1.00
F318   F     0.97440   0.32035   0.44985   0.00000  Uiso   1.00
F319   F     0.52304   0.18115   0.44991   0.00000  Uiso   1.00
F320   F     0.61606   0.32020   0.55025   0.00000  Uiso   1.00
F321   F     0.88657   0.18056   0.55053   0.00000  Uiso   1.00
F322   F     0.88387   0.31998   0.44936   0.00000  Uiso   1.00
F323   F     0.61345   0.18034   0.44975   0.00000  Uiso   1.00
F324   F     0.72029   0.03055   0.41578   0.00000  Uiso   1.00
N325   N     0.75000   0.12624   0.50000   0.00000  Uiso   1.00
N326   N     0.75000   0.37377   0.50000   0.00000  Uiso   1.00
O327   O     0.68453   0.28974   0.50000   0.00000  Uiso   1.00
O328   O     0.81547   0.21026   0.50000   0.00000  Uiso   1.00
O329   O     0.81547   0.28974   0.50000   0.00000  Uiso   1.00
O330   O     0.68453   0.21026   0.50000   0.00000  Uiso   1.00
O331   O     0.75000   0.28973   0.42845   0.00000  Uiso   1.00
O332   O     0.75000   0.21027   0.57155   0.00000  Uiso   1.00
O333   O     0.75000   0.28973   0.57155   0.00000  Uiso   1.00
O334   O     0.75000   0.21027   0.42845   0.00000  Uiso   1.00
Zn335  Zn    0.75000   0.30307   0.50000   0.00000  Uiso   1.00
Zn336  Zn    0.75000   0.19693   0.50000   0.00000  Uiso   1.00
C337   C     0.16398   0.75002   0.49999   0.00000  Uiso   1.00
C338   C     0.21456   0.94736   0.47823   0.00000  Uiso   1.00
C339   C     0.24993   0.75000   0.40629   0.00000  Uiso   1.00
C340   C     0.25007   0.75000   0.59371   0.00000  Uiso   1.00
C341   C     0.25000   0.52649   0.50000   0.00000  Uiso   1.00
C342   C     0.25000   0.97329   0.50000   0.00000  Uiso   1.00
C343   C     0.24998   0.75000   0.35515   0.00000  Uiso   1.00
C344   C     0.25002   0.75000   0.64485   0.00000  Uiso   1.00
C345   C     0.04739   0.78636   0.52479   0.00000  Uiso   1.00
C346   C     0.45388   0.71520   0.52519   0.00000  Uiso   1.00
C347   C     0.45257   0.78625   0.47489   0.00000  Uiso   1.00
C348   C     0.33602   0.75002   0.50001   0.00000  Uiso   1.00
C349   C     0.04613   0.71510   0.47482   0.00000  Uiso   1.00
C350   C     0.09349   0.78615   0.52489   0.00000  Uiso   1.00
C351   C     0.40780   0.71477   0.52508   0.00000  Uiso   1.00
C352   C     0.40647   0.78604   0.47485   0.00000  Uiso   1.00
C353   C     0.09221   0.71467   0.47500   0.00000  Uiso   1.00
C354   C     0.11597   0.75021   0.50002   0.00000  Uiso   1.00
C355   C     0.38402   0.75021   0.49992   0.00000  Uiso   1.00
C356   C     0.02394   0.75086   0.49978   0.00000  Uiso   1.00
C357   C     0.47604   0.75085   0.50004   0.00000  Uiso   1.00
C358   C     0.23092   0.60159   0.46087   0.00000  Uiso   1.00
C359   C     0.28342   0.89819   0.52422   0.00000  Uiso   1.00
C360   C     0.26909   0.60159   0.53913   0.00000  Uiso   1.00
C361   C     0.21658   0.89819   0.47578   0.00000  Uiso   1.00
C362   C     0.23339   0.55241   0.45877   0.00000  Uiso   1.00
C363   C     0.28544   0.94736   0.52177   0.00000  Uiso   1.00
C364   C     0.26662   0.55242   0.54123   0.00000  Uiso   1.00
Cl365  Cl    0.20099   0.62962   0.41230   0.00000  Uiso   1.00
Cl366  Cl    0.32432   0.86943   0.56077   0.00000  Uiso   1.00
Cl367  Cl    0.29902   0.62962   0.58769   0.00000  Uiso   1.00
Cl368  Cl    0.17568   0.86943   0.43923   0.00000  Uiso   1.00
F369   F     0.02553   0.82056   0.54964   0.00000  Uiso   1.00
F370   F     0.32267   0.96918   0.53976   0.00000  Uiso   1.00
F371   F     0.27972   0.53055   0.58422   0.00000  Uiso   1.00
F372   F     0.17733   0.96918   0.46024   0.00000  Uiso   1.00
F373   F     0.47699   0.68135   0.55025   0.00000  Uiso   1.00
F374   F     0.47440   0.82035   0.44985   0.00000  Uiso   1.00
F375   F     0.02304   0.68115   0.44991   0.00000  Uiso   1.00
F376   F     0.11606   0.82020   0.55025   0.00000  Uiso   1.00
F377   F     0.38657   0.68056   0.55053   0.00000  Uiso   1.00
F378   F     0.38387   0.81998   0.44936   0.00000  Uiso   1.00
F379   F     0.11345   0.68034   0.44975   0.00000  Uiso   1.00
F380   F     0.22029   0.53055   0.41578   0.00000  Uiso   1.00
N381   N     0.25000   0.62624   0.50000   0.00000  Uiso   1.00
N382   N     0.25000   0.87377   0.50000   0.00000  Uiso   1.00
O383   O     0.18453   0.78974   0.50000   0.00000  Uiso   1.00
O384   O     0.31547   0.71026   0.50000   0.00000  Uiso   1.00
O385   O     0.31547   0.78974   0.50000   0.00000  Uiso   1.00
O386   O     0.18453   0.71026   0.50000   0.00000  Uiso   1.00
O387   O     0.25000   0.78973   0.42845   0.00000  Uiso   1.00
O388   O     0.25000   0.71027   0.57155   0.00000  Uiso   1.00
O389   O     0.25000   0.78973   0.57155   0.00000  Uiso   1.00
O390   O     0.25000   0.71027   0.42845   0.00000  Uiso   1.00
Zn391  Zn    0.25000   0.80307   0.50000   0.00000  Uiso   1.00
Zn392  Zn    0.25000   0.69693   0.50000   0.00000  Uiso   1.00
C393   C     0.66398   0.75002   0.49999   0.00000  Uiso   1.00
C394   C     0.71456   0.94736   0.47823   0.00000  Uiso   1.00
C395   C     0.74993   0.75000   0.40629   0.00000  Uiso   1.00
C396   C     0.75007   0.75000   0.59371   0.00000  Uiso   1.00
C397   C     0.75000   0.52649   0.50000   0.00000  Uiso   1.00
C398   C     0.75000   0.97329   0.50000   0.00000  Uiso   1.00
C399   C     0.74998   0.75000   0.35515   0.00000  Uiso   1.00
C400   C     0.75002   0.75000   0.64485   0.00000  Uiso   1.00
C401   C     0.54739   0.78636   0.52479   0.00000  Uiso   1.00
C402   C     0.95388   0.71520   0.52519   0.00000  Uiso   1.00
C403   C     0.95257   0.78625   0.47489   0.00000  Uiso   1.00
C404   C     0.83602   0.75002   0.50001   0.00000  Uiso   1.00
C405   C     0.54613   0.71510   0.47482   0.00000  Uiso   1.00
C406   C     0.59349   0.78615   0.52489   0.00000  Uiso   1.00
C407   C     0.90780   0.71477   0.52508   0.00000  Uiso   1.00
C408   C     0.90647   0.78604   0.47485   0.00000  Uiso   1.00
C409   C     0.59221   0.71467   0.47500   0.00000  Uiso   1.00
C410   C     0.61597   0.75021   0.50002   0.00000  Uiso   1.00
C411   C     0.88402   0.75021   0.49992   0.00000  Uiso   1.00
C412   C     0.52394   0.75086   0.49978   0.00000  Uiso   1.00
C413   C     0.97604   0.75085   0.50004   0.00000  Uiso   1.00
C414   C     0.73092   0.60159   0.46087   0.00000  Uiso   1.00
C415   C     0.78342   0.89819   0.52422   0.00000  Uiso   1.00
C416   C     0.76909   0.60159   0.53913   0.00000  Uiso   1.00
C417   C     0.71658   0.89819   0.47578   0.00000  Uiso   1.00
C418   C     0.73339   0.55241   0.45877   0.00000  Uiso   1.00
C419   C     0.78544   0.94736   0.52177   0.00000  Uiso   1.00
C420   C     0.76662   0.55242   0.54123   0.00000  Uiso   1.00
Cl421  Cl    0.70099   0.62962   0.41230   0.00000  Uiso   1.00
Cl422  Cl    0.82432   0.86943   0.56077   0.00000  Uiso   1.00
Cl423  Cl    0.79902   0.62962   0.58769   0.00000  Uiso   1.00
Cl424  Cl    0.67568   0.86943   0.43923   0.00000  Uiso   1.00
F425   F     0.52553   0.82056   0.54964   0.00000  Uiso   1.00
F426   F     0.82267   0.96918   0.53976   0.00000  Uiso   1.00
F427   F     0.77972   0.53055   0.58422   0.00000  Uiso   1.00
F428   F     0.67733   0.96918   0.46024   0.00000  Uiso   1.00
F429   F     0.97699   0.68135   0.55025   0.00000  Uiso   1.00
F430   F     0.97440   0.82035   0.44985   0.00000  Uiso   1.00
F431   F     0.52304   0.68115   0.44991   0.00000  Uiso   1.00
F432   F     0.61606   0.82020   0.55025   0.00000  Uiso   1.00
F433   F     0.88657   0.68056   0.55053   0.00000  Uiso   1.00
F434   F     0.88387   0.81998   0.44936   0.00000  Uiso   1.00
F435   F     0.61345   0.68034   0.44975   0.00000  Uiso   1.00
F436   F     0.72029   0.53055   0.41578   0.00000  Uiso   1.00
N437   N     0.75000   0.62624   0.50000   0.00000  Uiso   1.00
N438   N     0.75000   0.87377   0.50000   0.00000  Uiso   1.00
O439   O     0.68453   0.78974   0.50000   0.00000  Uiso   1.00
O440   O     0.81547   0.71026   0.50000   0.00000  Uiso   1.00
O441   O     0.81547   0.78974   0.50000   0.00000  Uiso   1.00
O442   O     0.68453   0.71026   0.50000   0.00000  Uiso   1.00
O443   O     0.75000   0.78973   0.42845   0.00000  Uiso   1.00
O444   O     0.75000   0.71027   0.57155   0.00000  Uiso   1.00
O445   O     0.75000   0.78973   0.57155   0.00000  Uiso   1.00
O446   O     0.75000   0.71027   0.42845   0.00000  Uiso   1.00
Zn447  Zn    0.75000   0.80307   0.50000   0.00000  Uiso   1.00
Zn448  Zn    0.75000   0.69693   0.50000   0.00000  Uiso   1.00
C449   C     0.16398   0.25002   0.83332   0.00000  Uiso   1.00
C450   C     0.21456   0.44736   0.81156   0.00000  Uiso   1.00
C451   C     0.24993   0.25000   0.73963   0.00000  Uiso   1.00
C452   C     0.25007   0.25000   0.92704   0.00000  Uiso   1.00
C453   C     0.25000   0.02649   0.83333   0.00000  Uiso   1.00
C454   C     0.25000   0.47329   0.83333   0.00000  Uiso   1.00
C455   C     0.24998   0.25000   0.68848   0.00000  Uiso   1.00
C456   C     0.25002   0.25000   0.97818   0.00000  Uiso   1.00
C457   C     0.04739   0.28636   0.85812   0.00000  Uiso   1.00
C458   C     0.45388   0.21520   0.85853   0.00000  Uiso   1.00
C459   C     0.45257   0.28625   0.80822   0.00000  Uiso   1.00
C460   C     0.33602   0.25002   0.83334   0.00000  Uiso   1.00
C461   C     0.04613   0.21510   0.80815   0.00000  Uiso   1.00
C462   C     0.09349   0.28615   0.85822   0.00000  Uiso   1.00
C463   C     0.40780   0.21477   0.85842   0.00000  Uiso   1.00
C464   C     0.40647   0.28604   0.80819   0.00000  Uiso   1.00
C465   C     0.09221   0.21467   0.80833   0.00000  Uiso   1.00
C466   C     0.11597   0.25021   0.83336   0.00000  Uiso   1.00
C467   C     0.38402   0.25021   0.83325   0.00000  Uiso   1.00
C468   C     0.02394   0.25086   0.83311   0.00000  Uiso   1.00
C469   C     0.47604   0.25085   0.83337   0.00000  Uiso   1.00
C470   C     0.23092   0.10159   0.79420   0.00000  Uiso   1.00
C471   C     0.28342   0.39819   0.85756   0.00000  Uiso   1.00
C472   C     0.26909   0.10159   0.87246   0.00000  Uiso   1.00
C473   C     0.21658   0.39819   0.80911   0.00000  Uiso   1.00
C474   C     0.23339   0.05241   0.79210   0.00000  Uiso   1.00
C475   C     0.28544   0.44736   0.85510   0.00000  Uiso   1.00
C476   C     0.26662   0.05242   0.87456   0.00000  Uiso   1.00
Cl477  Cl    0.20099   0.12962   0.74564   0.00000  Uiso   1.00
Cl478  Cl    0.32432   0.36943   0.89410   0.00000  Uiso   1.00
Cl479  Cl    0.29902   0.12962   0.92102   0.00000  Uiso   1.00
Cl480  Cl    0.17568   0.36943   0.77257   0.00000  Uiso   1.00
F481   F     0.02553   0.32056   0.88297   0.00000  Uiso   1.00
F482   F     0.32267   0.46918   0.87310   0.00000  Uiso   1.00
F483   F     0.27972   0.03055   0.91756   0.00000  Uiso   1.00
F484   F     0.17733   0.46918   0.79357   0.00000  Uiso   1.00
F485   F     0.47699   0.18135   0.88358   0.00000  Uiso   1.00
F486   F     0.47440   0.32035   0.78319   0.00000  Uiso   1.00
F487   F     0.02304   0.18115   0.78324   0.00000  Uiso   1.00
F488   F     0.11606   0.32020   0.88358   0.00000  Uiso   1.00
F489   F     0.38657   0.18056   0.88386   0.00000  Uiso   1.00
F490   F     0.38387   0.31998   0.78270   0.00000  Uiso   1.00
F491   F     0.11345   0.18034   0.78308   0.00000  Uiso   1.00
F492   F     0.22029   0.03055   0.74911   0.00000  Uiso   1.00
N493   N     0.25000   0.12624   0.83333   0.00000  Uiso   1.00
N494   N     0.25000   0.37377   0.83333   0.00000  Uiso   1.00
O495   O     0.18453   0.28974   0.83334   0.00000  Uiso   1.00
O496   O     0.31547   0.21026   0.83333   0.00000  Uiso   1.00
O497   O     0.31547   0.28974   0.83333   0.00000  Uiso   1.00
O498   O     0.18453   0.21026   0.83334   0.00000  Uiso   1.00
O499   O     0.25000   0.28973   0.76178   0.00000  Uiso   1.00
O500   O     0.25000   0.21027   0.90489   0.00000  Uiso   1.00
O501   O     0.25000   0.28973   0.90489   0.00000  Uiso   1.00
O502   O     0.25000   0.21027   0.76178   0.00000  Uiso   1.00
Zn503  Zn    0.25000   0.30307   0.83333   0.00000  Uiso   1.00
Zn504  Zn    0.25000   0.19693   0.83333   0.00000  Uiso   1.00
C505   C     0.66398   0.25002   0.83332   0.00000  Uiso   1.00
C506   C     0.71456   0.44736   0.81156   0.00000  Uiso   1.00
C507   C     0.74993   0.25000   0.73963   0.00000  Uiso   1.00
C508   C     0.75007   0.25000   0.92704   0.00000  Uiso   1.00
C509   C     0.75000   0.02649   0.83333   0.00000  Uiso   1.00
C510   C     0.75000   0.47329   0.83333   0.00000  Uiso   1.00
C511   C     0.74998   0.25000   0.68848   0.00000  Uiso   1.00
C512   C     0.75002   0.25000   0.97818   0.00000  Uiso   1.00
C513   C     0.54739   0.28636   0.85812   0.00000  Uiso   1.00
C514   C     0.95388   0.21520   0.85853   0.00000  Uiso   1.00
C515   C     0.95257   0.28625   0.80822   0.00000  Uiso   1.00
C516   C     0.83602   0.25002   0.83334   0.00000  Uiso   1.00
C517   C     0.54613   0.21510   0.80815   0.00000  Uiso   1.00
C518   C     0.59349   0.28615   0.85822   0.00000  Uiso   1.00
C519   C     0.90780   0.21477   0.85842   0.00000  Uiso   1.00
C520   C     0.90647   0.28604   0.80819   0.00000  Uiso   1.00
C521   C     0.59221   0.21467   0.80833   0.00000  Uiso   1.00
C522   C     0.61597   0.25021   0.83336   0.00000  Uiso   1.00
C523   C     0.88402   0.25021   0.83325   0.00000  Uiso   1.00
C524   C     0.52394   0.25086   0.83311   0.00000  Uiso   1.00
C525   C     0.97604   0.25085   0.83337   0.00000  Uiso   1.00
C526   C     0.73092   0.10159   0.79420   0.00000  Uiso   1.00
C527   C     0.78342   0.39819   0.85756   0.00000  Uiso   1.00
C528   C     0.76909   0.10159   0.87246   0.00000  Uiso   1.00
C529   C     0.71658   0.39819   0.80911   0.00000  Uiso   1.00
C530   C     0.73339   0.05241   0.79210   0.00000  Uiso   1.00
C531   C     0.78544   0.44736   0.85510   0.00000  Uiso   1.00
C532   C     0.76662   0.05242   0.87456   0.00000  Uiso   1.00
Cl533  Cl    0.70099   0.12962   0.74564   0.00000  Uiso   1.00
Cl534  Cl    0.82432   0.36943   0.89410   0.00000  Uiso   1.00
Cl535  Cl    0.79902   0.12962   0.92102   0.00000  Uiso   1.00
Cl536  Cl    0.67568   0.36943   0.77257   0.00000  Uiso   1.00
F537   F     0.52553   0.32056   0.88297   0.00000  Uiso   1.00
F538   F     0.82267   0.46918   0.87310   0.00000  Uiso   1.00
F539   F     0.77972   0.03055   0.91756   0.00000  Uiso   1.00
F540   F     0.67733   0.46918   0.79357   0.00000  Uiso   1.00
F541   F     0.97699   0.18135   0.88358   0.00000  Uiso   1.00
F542   F     0.97440   0.32035   0.78319   0.00000  Uiso   1.00
F543   F     0.52304   0.18115   0.78324   0.00000  Uiso   1.00
F544   F     0.61606   0.32020   0.88358   0.00000  Uiso   1.00
F545   F     0.88657   0.18056   0.88386   0.00000  Uiso   1.00
F546   F     0.88387   0.31998   0.78270   0.00000  Uiso   1.00
F547   F     0.61345   0.18034   0.78308   0.00000  Uiso   1.00
F548   F     0.72029   0.03055   0.74911   0.00000  Uiso   1.00
N549   N     0.75000   0.12624   0.83333   0.00000  Uiso   1.00
N550   N     0.75000   0.37377   0.83333   0.00000  Uiso   1.00
O551   O     0.68453   0.28974   0.83334   0.00000  Uiso   1.00
O552   O     0.81547   0.21026   0.83333   0.00000  Uiso   1.00
O553   O     0.81547   0.28974   0.83333   0.00000  Uiso   1.00
O554   O     0.68453   0.21026   0.83334   0.00000  Uiso   1.00
O555   O     0.75000   0.28973   0.76178   0.00000  Uiso   1.00
O556   O     0.75000   0.21027   0.90489   0.00000  Uiso   1.00
O557   O     0.75000   0.28973   0.90489   0.00000  Uiso   1.00
O558   O     0.75000   0.21027   0.76178   0.00000  Uiso   1.00
Zn559  Zn    0.75000   0.30307   0.83333   0.00000  Uiso   1.00
Zn560  Zn    0.75000   0.19693   0.83333   0.00000  Uiso   1.00
C561   C     0.16398   0.75002   0.83332   0.00000  Uiso   1.00
C562   C     0.21456   0.94736   0.81156   0.00000  Uiso   1.00
C563   C     0.24993   0.75000   0.73963   0.00000  Uiso   1.00
C564   C     0.25007   0.75000   0.92704   0.00000  Uiso   1.00
C565   C     0.25000   0.52649   0.83333   0.00000  Uiso   1.00
C566   C     0.25000   0.97329   0.83333   0.00000  Uiso   1.00
C567   C     0.24998   0.75000   0.68848   0.00000  Uiso   1.00
C568   C     0.25002   0.75000   0.97818   0.00000  Uiso   1.00
C569   C     0.04739   0.78636   0.85812   0.00000  Uiso   1.00
C570   C     0.45388   0.71520   0.85853   0.00000  Uiso   1.00
C571   C     0.45257   0.78625   0.80822   0.00000  Uiso   1.00
C572   C     0.33602   0.75002   0.83334   0.00000  Uiso   1.00
C573   C     0.04613   0.71510   0.80815   0.00000  Uiso   1.00
C574   C     0.09349   0.78615   0.85822   0.00000  Uiso   1.00
C575   C     0.40780   0.71477   0.85842   0.00000  Uiso   1.00
C576   C     0.40647   0.78604   0.80819   0.00000  Uiso   1.00
C577   C     0.09221   0.71467   0.80833   0.00000  Uiso   1.00
C578   C     0.11597   0.75021   0.83336   0.00000  Uiso   1.00
C579   C     0.38402   0.75021   0.83325   0.00000  Uiso   1.00
C580   C     0.02394   0.75086   0.83311   0.00000  Uiso   1.00
C581   C     0.47604   0.75085   0.83337   0.00000  Uiso   1.00
C582   C     0.23092   0.60159   0.79420   0.00000  Uiso   1.00
C583   C     0.28342   0.89819   0.85756   0.00000  Uiso   1.00
C584   C     0.26909   0.60159   0.87246   0.00000  Uiso   1.00
C585   C     0.21658   0.89819   0.80911   0.00000  Uiso   1.00
C586   C     0.23339   0.55241   0.79210   0.00000  Uiso   1.00
C587   C     0.28544   0.94736   0.85510   0.00000  Uiso   1.00
C588   C     0.26662   0.55242   0.87456   0.00000  Uiso   1.00
Cl589  Cl    0.20099   0.62962   0.74564   0.00000  Uiso   1.00
Cl590  Cl    0.32432   0.86943   0.89410   0.00000  Uiso   1.00
Cl591  Cl    0.29902   0.62962   0.92102   0.00000  Uiso   1.00
Cl592  Cl    0.17568   0.86943   0.77257   0.00000  Uiso   1.00
F593   F     0.02553   0.82056   0.88297   0.00000  Uiso   1.00
F594   F     0.32267   0.96918   0.87310   0.00000  Uiso   1.00
F595   F     0.27972   0.53055   0.91756   0.00000  Uiso   1.00
F596   F     0.17733   0.96918   0.79357   0.00000  Uiso   1.00
F597   F     0.47699   0.68135   0.88358   0.00000  Uiso   1.00
F598   F     0.47440   0.82035   0.78319   0.00000  Uiso   1.00
F599   F     0.02304   0.68115   0.78324   0.00000  Uiso   1.00
F600   F     0.11606   0.82020   0.88358   0.00000  Uiso   1.00
F601   F     0.38657   0.68056   0.88386   0.00000  Uiso   1.00
F602   F     0.38387   0.81998   0.78270   0.00000  Uiso   1.00
F603   F     0.11345   0.68034   0.78308   0.00000  Uiso   1.00
F604   F     0.22029   0.53055   0.74911   0.00000  Uiso   1.00
N605   N     0.25000   0.62624   0.83333   0.00000  Uiso   1.00
N606   N     0.25000   0.87377   0.83333   0.00000  Uiso   1.00
O607   O     0.18453   0.78974   0.83334   0.00000  Uiso   1.00
O608   O     0.31547   0.71026   0.83333   0.00000  Uiso   1.00
O609   O     0.31547   0.78974   0.83333   0.00000  Uiso   1.00
O610   O     0.18453   0.71026   0.83334   0.00000  Uiso   1.00
O611   O     0.25000   0.78973   0.76178   0.00000  Uiso   1.00
O612   O     0.25000   0.71027   0.90489   0.00000  Uiso   1.00
O613   O     0.25000   0.78973   0.90489   0.00000  Uiso   1.00
O614   O     0.25000   0.71027   0.76178   0.00000  Uiso   1.00
Zn615  Zn    0.25000   0.80307   0.83333   0.00000  Uiso   1.00
Zn616  Zn    0.25000   0.69693   0.83333   0.00000  Uiso   1.00
C617   C     0.66398   0.75002   0.83332   0.00000  Uiso   1.00
C618   C     0.71456   0.94736   0.81156   0.00000  Uiso   1.00
C619   C     0.74993   0.75000   0.73963   0.00000  Uiso   1.00
C620   C     0.75007   0.75000   0.92704   0.00000  Uiso   1.00
C621   C     0.75000   0.52649   0.83333   0.00000  Uiso   1.00
C622   C     0.75000   0.97329   0.83333   0.00000  Uiso   1.00
C623   C     0.74998   0.75000   0.68848   0.00000  Uiso   1.00
C624   C     0.75002   0.75000   0.97818   0.00000  Uiso   1.00
C625   C     0.54739   0.78636   0.85812   0.00000  Uiso   1.00
C626   C     0.95388   0.71520   0.85853   0.00000  Uiso   1.00
C627   C     0.95257   0.78625   0.80822   0.00000  Uiso   1.00
C628   C     0.83602   0.75002   0.83334   0.00000  Uiso   1.00
C629   C     0.54613   0.71510   0.80815   0.00000  Uiso   1.00
C630   C     0.59349   0.78615   0.85822   0.00000  Uiso   1.00
C631   C     0.90780   0.71477   0.85842   0.00000  Uiso   1.00
C632   C     0.90647   0.78604   0.80819   0.00000  Uiso   1.00
C633   C     0.59221   0.71467   0.80833   0.00000  Uiso   1.00
C634   C     0.61597   0.75021   0.83336   0.00000  Uiso   1.00
C635   C     0.88402   0.75021   0.83325   0.00000  Uiso   1.00
C636   C     0.52394   0.75086   0.83311   0.00000  Uiso   1.00
C637   C     0.97604   0.75085   0.83337   0.00000  Uiso   1.00
C638   C     0.73092   0.60159   0.79420   0.00000  Uiso   1.00
C639   C     0.78342   0.89819   0.85756   0.00000  Uiso   1.00
C640   C     0.76909   0.60159   0.87246   0.00000  Uiso   1.00
C641   C     0.71658   0.89819   0.80911   0.00000  Uiso   1.00
C642   C     0.73339   0.55241   0.79210   0.00000  Uiso   1.00
C643   C     0.78544   0.94736   0.85510   0.00000  Uiso   1.00
C644   C     0.76662   0.55242   0.87456   0.00000  Uiso   1.00
Cl645  Cl    0.70099   0.62962   0.74564   0.00000  Uiso   1.00
Cl646  Cl    0.82432   0.86943   0.89410   0.00000  Uiso   1.00
Cl647  Cl    0.79902   0.62962   0.92102   0.00000  Uiso   1.00
Cl648  Cl    0.67568   0.86943   0.77257   0.00000  Uiso   1.00
F649   F     0.52553   0.82056   0.88297   0.00000  Uiso   1.00
F650   F     0.82267   0.96918   0.87310   0.00000  Uiso   1.00
F651   F     0.77972   0.53055   0.91756   0.00000  Uiso   1.00
F652   F     0.67733   0.96918   0.79357   0.00000  Uiso   1.00
F653   F     0.97699   0.68135   0.88358   0.00000  Uiso   1.00
F654   F     0.97440   0.82035   0.78319   0.00000  Uiso   1.00
F655   F     0.52304   0.68115   0.78324   0.00000  Uiso   1.00
F656   F     0.61606   0.82020   0.88358   0.00000  Uiso   1.00
F657   F     0.88657   0.68056   0.88386   0.00000  Uiso   1.00
F658   F     0.88387   0.81998   0.78270   0.00000  Uiso   1.00
F659   F     0.61345   0.68034   0.78308   0.00000  Uiso   1.00
F660   F     0.72029   0.53055   0.74911   0.00000  Uiso   1.00
N661   N     0.75000   0.62624   0.83333   0.00000  Uiso   1.00
N662   N     0.75000   0.87377   0.83333   0.00000  Uiso   1.00
O663   O     0.68453   0.78974   0.83334   0.00000  Uiso   1.00
O664   O     0.81547   0.71026   0.83333   0.00000  Uiso   1.00
O665   O     0.81547   0.78974   0.83333   0.00000  Uiso   1.00
O666   O     0.68453   0.71026   0.83334   0.00000  Uiso   1.00
O667   O     0.75000   0.78973   0.76178   0.00000  Uiso   1.00
O668   O     0.75000   0.71027   0.90489   0.00000  Uiso   1.00
O669   O     0.75000   0.78973   0.90489   0.00000  Uiso   1.00
O670   O     0.75000   0.71027   0.76178   0.00000  Uiso   1.00
Zn671  Zn    0.75000   0.80307   0.83333   0.00000  Uiso   1.00
Zn672  Zn    0.75000   0.69693   0.83333   0.00000  Uiso   1.00
loop_
_geom_bond_atom_site_label_1
_geom_bond_atom_site_label_2
_geom_bond_distance
_geom_bond_site_symmetry_2
_ccdc_geom_bond_type
C1     O50     1.294   .     A
C1     C18     1.439   .     S
C1     O47     1.293   .     A
C2     C6      1.411   .     A
C2     C25     1.410   .     A
C2     F36     1.358   .     S
C3     C7      1.365   .     S
C3     O54     1.282   .     A
C3     O51     1.281   .     A
C4     O53     1.281   .     A
C4     C8      1.365   .     S
C4     O52     1.282   .     A
C5     C28     1.409   .     A
C5     C26     1.409   .     A
C5     C118    1.522   1_545 S
C6     C27     1.411   .     A
C6     C117    1.522   .     S
C7     C456    1.165   1_554 S
C8     C231    1.165   .     S
C9     F33     1.359   .     S
C9     C14     1.382   .     A
C9     C20     1.397   .     A
C10    F37     1.359   .     S
C10    C15     1.381   .     A
C10    C21     1.397   .     A
C11    F38     1.359   .     S
C11    C16     1.382   .     A
C11    C21     1.397   .     A
C12    C19     1.439   .     S
C12    O48     1.294   .     A
C12    O49     1.293   .     A
C13    C17     1.381   .     A
C13    F39     1.359   .     S
C13    C20     1.397   .     A
C14    C18     1.404   .     A
C14    F40     1.359   .     S
C15    C19     1.403   .     A
C15    F41     1.357   .     S
C16    C19     1.404   .     A
C16    F42     1.359   .     S
C17    F43     1.357   .     S
C17    C18     1.403   .     A
C20    C77     1.436   1_455 S
C21    C76     1.436   .     S
C22    Cl29    1.755   .     S
C22    N45     1.375   .     A
C22    C26     1.410   .     A
C23    C27     1.410   .     A
C23    N46     1.372   .     A
C23    Cl30    1.755   .     S
C24    C28     1.410   .     A
C24    Cl31    1.755   .     S
C24    N45     1.375   .     A
C25    Cl32    1.755   .     S
C25    N46     1.372   .     A
C26    F44     1.358   .     S
C27    F34     1.358   .     S
C28    F35     1.358   .     S
N45    Zn56    2.023   .     S
N46    Zn55    2.023   .     S
O47    Zn55    1.999   .     S
O48    Zn56    1.999   .     S
O49    Zn55    1.999   .     S
O50    Zn56    1.999   .     S
O51    Zn55    1.948   .     S
O52    Zn56    1.948   .     S
O53    Zn55    1.948   .     S
O54    Zn56    1.948   .     S
C57    O106    1.294   .     A
C57    C74     1.439   .     S
C57    O103    1.293   .     A
C58    C62     1.411   .     A
C58    C81     1.410   .     A
C58    F92     1.358   .     S
C59    C63     1.365   .     S
C59    O110    1.282   .     A
C59    O107    1.281   .     A
C60    O109    1.281   .     A
C60    C64     1.365   .     S
C60    O108    1.282   .     A
C61    C84     1.409   .     A
C61    C82     1.409   .     A
C61    C174    1.522   1_545 S
C62    C83     1.411   .     A
C62    C173    1.522   .     S
C63    C512    1.165   1_554 S
C64    C287    1.165   .     S
C65    F89     1.359   .     S
C65    C70     1.382   .     A
C65    C76     1.397   .     A
C66    F93     1.359   .     S
C66    C71     1.381   .     A
C66    C77     1.397   .     A
C67    F94     1.359   .     S
C67    C72     1.382   .     A
C67    C77     1.397   .     A
C68    C75     1.439   .     S
C68    O104    1.294   .     A
C68    O105    1.293   .     A
C69    C73     1.381   .     A
C69    F95     1.359   .     S
C69    C76     1.397   .     A
C70    C74     1.404   .     A
C70    F96     1.359   .     S
C71    C75     1.403   .     A
C71    F97     1.357   .     S
C72    C75     1.404   .     A
C72    F98     1.359   .     S
C73    F99     1.357   .     S
C73    C74     1.403   .     A
C77    C20     1.436   1_655 S
C78    Cl85    1.755   .     S
C78    N101    1.375   .     A
C78    C82     1.410   .     A
C79    C83     1.410   .     A
C79    N102    1.372   .     A
C79    Cl86    1.755   .     S
C80    C84     1.410   .     A
C80    Cl87    1.755   .     S
C80    N101    1.375   .     A
C81    Cl88    1.755   .     S
C81    N102    1.372   .     A
C82    F100    1.358   .     S
C83    F90     1.358   .     S
C84    F91     1.358   .     S
N101   Zn112   2.023   .     S
N102   Zn111   2.023   .     S
O103   Zn111   1.999   .     S
O104   Zn112   1.999   .     S
O105   Zn111   1.999   .     S
O106   Zn112   1.999   .     S
O107   Zn111   1.948   .     S
O108   Zn112   1.948   .     S
O109   Zn111   1.948   .     S
O110   Zn112   1.948   .     S
C113   O162    1.294   .     A
C113   C130    1.439   .     S
C113   O159    1.293   .     A
C114   C118    1.411   .     A
C114   C137    1.410   .     A
C114   F148    1.358   .     S
C115   C119    1.365   .     S
C115   O166    1.282   .     A
C115   O163    1.281   .     A
C116   O165    1.281   .     A
C116   C120    1.365   .     S
C116   O164    1.282   .     A
C117   C140    1.409   .     A
C117   C138    1.409   .     A
C118   C139    1.411   .     A
C118   C5      1.522   1_565 S
C119   C568    1.165   1_554 S
C120   C343    1.165   .     S
C121   F145    1.359   .     S
C121   C126    1.382   .     A
C121   C132    1.397   .     A
C122   F149    1.359   .     S
C122   C127    1.381   .     A
C122   C133    1.397   .     A
C123   F150    1.359   .     S
C123   C128    1.382   .     A
C123   C133    1.397   .     A
C124   C131    1.439   .     S
C124   O160    1.294   .     A
C124   O161    1.293   .     A
C125   C129    1.381   .     A
C125   F151    1.359   .     S
C125   C132    1.397   .     A
C126   C130    1.404   .     A
C126   F152    1.359   .     S
C127   C131    1.403   .     A
C127   F153    1.357   .     S
C128   C131    1.404   .     A
C128   F154    1.359   .     S
C129   F155    1.357   .     S
C129   C130    1.403   .     A
C132   C189    1.436   1_455 S
C133   C188    1.436   .     S
C134   Cl141   1.755   .     S
C134   N157    1.375   .     A
C134   C138    1.410   .     A
C135   C139    1.410   .     A
C135   N158    1.372   .     A
C135   Cl142   1.755   .     S
C136   C140    1.410   .     A
C136   Cl143   1.755   .     S
C136   N157    1.375   .     A
C137   Cl144   1.755   .     S
C137   N158    1.372   .     A
C138   F156    1.358   .     S
C139   F146    1.358   .     S
C140   F147    1.358   .     S
N157   Zn168   2.023   .     S
N158   Zn167   2.023   .     S
O159   Zn167   1.999   .     S
O160   Zn168   1.999   .     S
O161   Zn167   1.999   .     S
O162   Zn168   1.999   .     S
O163   Zn167   1.948   .     S
O164   Zn168   1.948   .     S
O165   Zn167   1.948   .     S
O166   Zn168   1.948   .     S
C169   O218    1.294   .     A
C169   C186    1.439   .     S
C169   O215    1.293   .     A
C170   C174    1.411   .     A
C170   C193    1.410   .     A
C170   F204    1.358   .     S
C171   C175    1.365   .     S
C171   O222    1.282   .     A
C171   O219    1.281   .     A
C172   O221    1.281   .     A
C172   C176    1.365   .     S
C172   O220    1.282   .     A
C173   C196    1.409   .     A
C173   C194    1.409   .     A
C174   C195    1.411   .     A
C174   C61     1.522   1_565 S
C175   C624    1.165   1_554 S
C176   C399    1.165   .     S
C177   F201    1.359   .     S
C177   C182    1.382   .     A
C177   C188    1.397   .     A
C178   F205    1.359   .     S
C178   C183    1.381   .     A
C178   C189    1.397   .     A
C179   F206    1.359   .     S
C179   C184    1.382   .     A
C179   C189    1.397   .     A
C180   C187    1.439   .     S
C180   O216    1.294   .     A
C180   O217    1.293   .     A
C181   C185    1.381   .     A
C181   F207    1.359   .     S
C181   C188    1.397   .     A
C182   C186    1.404   .     A
C182   F208    1.359   .     S
C183   C187    1.403   .     A
C183   F209    1.357   .     S
C184   C187    1.404   .     A
C184   F210    1.359   .     S
C185   F211    1.357   .     S
C185   C186    1.403   .     A
C189   C132    1.436   1_655 S
C190   Cl197   1.755   .     S
C190   N213    1.375   .     A
C190   C194    1.410   .     A
C191   C195    1.410   .     A
C191   N214    1.372   .     A
C191   Cl198   1.755   .     S
C192   C196    1.410   .     A
C192   Cl199   1.755   .     S
C192   N213    1.375   .     A
C193   Cl200   1.755   .     S
C193   N214    1.372   .     A
C194   F212    1.358   .     S
C195   F202    1.358   .     S
C196   F203    1.358   .     S
N213   Zn224   2.023   .     S
N214   Zn223   2.023   .     S
O215   Zn223   1.999   .     S
O216   Zn224   1.999   .     S
O217   Zn223   1.999   .     S
O218   Zn224   1.999   .     S
O219   Zn223   1.948   .     S
O220   Zn224   1.948   .     S
O221   Zn223   1.948   .     S
O222   Zn224   1.948   .     S
C225   O274    1.294   .     A
C225   C242    1.439   .     S
C225   O271    1.293   .     A
C226   C230    1.411   .     A
C226   C249    1.410   .     A
C226   F260    1.358   .     S
C227   C231    1.365   .     S
C227   O278    1.282   .     A
C227   O275    1.281   .     A
C228   O277    1.281   .     A
C228   C232    1.365   .     S
C228   O276    1.282   .     A
C229   C252    1.409   .     A
C229   C250    1.409   .     A
C229   C342    1.522   1_545 S
C230   C251    1.411   .     A
C230   C341    1.522   .     S
C232   C455    1.165   .     S
C233   F257    1.359   .     S
C233   C238    1.382   .     A
C233   C244    1.397   .     A
C234   F261    1.359   .     S
C234   C239    1.381   .     A
C234   C245    1.397   .     A
C235   F262    1.359   .     S
C235   C240    1.382   .     A
C235   C245    1.397   .     A
C236   C243    1.439   .     S
C236   O272    1.294   .     A
C236   O273    1.293   .     A
C237   C241    1.381   .     A
C237   F263    1.359   .     S
C237   C244    1.397   .     A
C238   C242    1.404   .     A
C238   F264    1.359   .     S
C239   C243    1.403   .     A
C239   F265    1.357   .     S
C240   C243    1.404   .     A
C240   F266    1.359   .     S
C241   F267    1.357   .     S
C241   C242    1.403   .     A
C244   C301    1.436   1_455 S
C245   C300    1.436   .     S
C246   Cl253   1.755   .     S
C246   N269    1.375   .     A
C246   C250    1.410   .     A
C247   C251    1.410   .     A
C247   N270    1.372   .     A
C247   Cl254   1.755   .     S
C248   C252    1.410   .     A
C248   Cl255   1.755   .     S
C248   N269    1.375   .     A
C249   Cl256   1.755   .     S
C249   N270    1.372   .     A
C250   F268    1.358   .     S
C251   F258    1.358   .     S
C252   F259    1.358   .     S
N269   Zn280   2.023   .     S
N270   Zn279   2.023   .     S
O271   Zn279   1.999   .     S
O272   Zn280   1.999   .     S
O273   Zn279   1.999   .     S
O274   Zn280   1.999   .     S
O275   Zn279   1.948   .     S
O276   Zn280   1.948   .     S
O277   Zn279   1.948   .     S
O278   Zn280   1.948   .     S
C281   O330    1.294   .     A
C281   C298    1.439   .     S
C281   O327    1.293   .     A
C282   C286    1.411   .     A
C282   C305    1.410   .     A
C282   F316    1.358   .     S
C283   C287    1.365   .     S
C283   O334    1.282   .     A
C283   O331    1.281   .     A
C284   O333    1.281   .     A
C284   C288    1.365   .     S
C284   O332    1.282   .     A
C285   C308    1.409   .     A
C285   C306    1.409   .     A
C285   C398    1.522   1_545 S
C286   C307    1.411   .     A
C286   C397    1.522   .     S
C288   C511    1.165   .     S
C289   F313    1.359   .     S
C289   C294    1.382   .     A
C289   C300    1.397   .     A
C290   F317    1.359   .     S
C290   C295    1.381   .     A
C290   C301    1.397   .     A
C291   F318    1.359   .     S
C291   C296    1.382   .     A
C291   C301    1.397   .     A
C292   C299    1.439   .     S
C292   O328    1.294   .     A
C292   O329    1.293   .     A
C293   C297    1.381   .     A
C293   F319    1.359   .     S
C293   C300    1.397   .     A
C294   C298    1.404   .     A
C294   F320    1.359   .     S
C295   C299    1.403   .     A
C295   F321    1.357   .     S
C296   C299    1.404   .     A
C296   F322    1.359   .     S
C297   F323    1.357   .     S
C297   C298    1.403   .     A
C301   C244    1.436   1_655 S
C302   Cl309   1.755   .     S
C302   N325    1.375   .     A
C302   C306    1.410   .     A
C303   C307    1.410   .     A
C303   N326    1.372   .     A
C303   Cl310   1.755   .     S
C304   C308    1.410   .     A
C304   Cl311   1.755   .     S
C304   N325    1.375   .     A
C305   Cl312   1.755   .     S
C305   N326    1.372   .     A
C306   F324    1.358   .     S
C307   F314    1.358   .     S
C308   F315    1.358   .     S
N325   Zn336   2.023   .     S
N326   Zn335   2.023   .     S
O327   Zn335   1.999   .     S
O328   Zn336   1.999   .     S
O329   Zn335   1.999   .     S
O330   Zn336   1.999   .     S
O331   Zn335   1.948   .     S
O332   Zn336   1.948   .     S
O333   Zn335   1.948   .     S
O334   Zn336   1.948   .     S
C337   O386    1.294   .     A
C337   C354    1.439   .     S
C337   O383    1.293   .     A
C338   C342    1.411   .     A
C338   C361    1.410   .     A
C338   F372    1.358   .     S
C339   C343    1.365   .     S
C339   O390    1.282   .     A
C339   O387    1.281   .     A
C340   O389    1.281   .     A
C340   C344    1.365   .     S
C340   O388    1.282   .     A
C341   C364    1.409   .     A
C341   C362    1.409   .     A
C342   C363    1.411   .     A
C342   C229    1.522   1_565 S
C344   C567    1.165   .     S
C345   F369    1.359   .     S
C345   C350    1.382   .     A
C345   C356    1.397   .     A
C346   F373    1.359   .     S
C346   C351    1.381   .     A
C346   C357    1.397   .     A
C347   F374    1.359   .     S
C347   C352    1.382   .     A
C347   C357    1.397   .     A
C348   C355    1.439   .     S
C348   O384    1.294   .     A
C348   O385    1.293   .     A
C349   C353    1.381   .     A
C349   F375    1.359   .     S
C349   C356    1.397   .     A
C350   C354    1.404   .     A
C350   F376    1.359   .     S
C351   C355    1.403   .     A
C351   F377    1.357   .     S
C352   C355    1.404   .     A
C352   F378    1.359   .     S
C353   F379    1.357   .     S
C353   C354    1.403   .     A
C356   C413    1.436   1_455 S
C357   C412    1.436   .     S
C358   Cl365   1.755   .     S
C358   N381    1.375   .     A
C358   C362    1.410   .     A
C359   C363    1.410   .     A
C359   N382    1.372   .     A
C359   Cl366   1.755   .     S
C360   C364    1.410   .     A
C360   Cl367   1.755   .     S
C360   N381    1.375   .     A
C361   Cl368   1.755   .     S
C361   N382    1.372   .     A
C362   F380    1.358   .     S
C363   F370    1.358   .     S
C364   F371    1.358   .     S
N381   Zn392   2.023   .     S
N382   Zn391   2.023   .     S
O383   Zn391   1.999   .     S
O384   Zn392   1.999   .     S
O385   Zn391   1.999   .     S
O386   Zn392   1.999   .     S
O387   Zn391   1.948   .     S
O388   Zn392   1.948   .     S
O389   Zn391   1.948   .     S
O390   Zn392   1.948   .     S
C393   O442    1.294   .     A
C393   C410    1.439   .     S
C393   O439    1.293   .     A
C394   C398    1.411   .     A
C394   C417    1.410   .     A
C394   F428    1.358   .     S
C395   C399    1.365   .     S
C395   O446    1.282   .     A
C395   O443    1.281   .     A
C396   O445    1.281   .     A
C396   C400    1.365   .     S
C396   O444    1.282   .     A
C397   C420    1.409   .     A
C397   C418    1.409   .     A
C398   C419    1.411   .     A
C398   C285    1.522   1_565 S
C400   C623    1.165   .     S
C401   F425    1.359   .     S
C401   C406    1.382   .     A
C401   C412    1.397   .     A
C402   F429    1.359   .     S
C402   C407    1.381   .     A
C402   C413    1.397   .     A
C403   F430    1.359   .     S
C403   C408    1.382   .     A
C403   C413    1.397   .     A
C404   C411    1.439   .     S
C404   O440    1.294   .     A
C404   O441    1.293   .     A
C405   C409    1.381   .     A
C405   F431    1.359   .     S
C405   C412    1.397   .     A
C406   C410    1.404   .     A
C406   F432    1.359   .     S
C407   C411    1.403   .     A
C407   F433    1.357   .     S
C408   C411    1.404   .     A
C408   F434    1.359   .     S
C409   F435    1.357   .     S
C409   C410    1.403   .     A
C413   C356    1.436   1_655 S
C414   Cl421   1.755   .     S
C414   N437    1.375   .     A
C414   C418    1.410   .     A
C415   C419    1.410   .     A
C415   N438    1.372   .     A
C415   Cl422   1.755   .     S
C416   C420    1.410   .     A
C416   Cl423   1.755   .     S
C416   N437    1.375   .     A
C417   Cl424   1.755   .     S
C417   N438    1.372   .     A
C418   F436    1.358   .     S
C419   F426    1.358   .     S
C420   F427    1.358   .     S
N437   Zn448   2.023   .     S
N438   Zn447   2.023   .     S
O439   Zn447   1.999   .     S
O440   Zn448   1.999   .     S
O441   Zn447   1.999   .     S
O442   Zn448   1.999   .     S
O443   Zn447   1.948   .     S
O444   Zn448   1.948   .     S
O445   Zn447   1.948   .     S
O446   Zn448   1.948   .     S
C449   O498    1.294   .     A
C449   C466    1.439   .     S
C449   O495    1.293   .     A
C450   C454    1.411   .     A
C450   C473    1.410   .     A
C450   F484    1.358   .     S
C451   C455    1.365   .     S
C451   O502    1.282   .     A
C451   O499    1.281   .     A
C452   O501    1.281   .     A
C452   C456    1.365   .     S
C452   O500    1.282   .     A
C453   C476    1.409   .     A
C453   C474    1.409   .     A
C453   C566    1.522   1_545 S
C454   C475    1.411   .     A
C454   C565    1.522   .     S
C456   C7      1.165   1_556 S
C457   F481    1.359   .     S
C457   C462    1.382   .     A
C457   C468    1.397   .     A
C458   F485    1.359   .     S
C458   C463    1.381   .     A
C458   C469    1.397   .     A
C459   F486    1.359   .     S
C459   C464    1.382   .     A
C459   C469    1.397   .     A
C460   C467    1.439   .     S
C460   O496    1.294   .     A
C460   O497    1.293   .     A
C461   C465    1.381   .     A
C461   F487    1.359   .     S
C461   C468    1.397   .     A
C462   C466    1.404   .     A
C462   F488    1.359   .     S
C463   C467    1.403   .     A
C463   F489    1.357   .     S
C464   C467    1.404   .     A
C464   F490    1.359   .     S
C465   F491    1.357   .     S
C465   C466    1.403   .     A
C468   C525    1.436   1_455 S
C469   C524    1.436   .     S
C470   Cl477   1.755   .     S
C470   N493    1.375   .     A
C470   C474    1.410   .     A
C471   C475    1.410   .     A
C471   N494    1.372   .     A
C471   Cl478   1.755   .     S
C472   C476    1.410   .     A
C472   Cl479   1.755   .     S
C472   N493    1.375   .     A
C473   Cl480   1.755   .     S
C473   N494    1.372   .     A
C474   F492    1.358   .     S
C475   F482    1.358   .     S
C476   F483    1.358   .     S
N493   Zn504   2.023   .     S
N494   Zn503   2.023   .     S
O495   Zn503   1.999   .     S
O496   Zn504   1.999   .     S
O497   Zn503   1.999   .     S
O498   Zn504   1.999   .     S
O499   Zn503   1.948   .     S
O500   Zn504   1.948   .     S
O501   Zn503   1.948   .     S
O502   Zn504   1.948   .     S
C505   O554    1.294   .     A
C505   C522    1.439   .     S
C505   O551    1.293   .     A
C506   C510    1.411   .     A
C506   C529    1.410   .     A
C506   F540    1.358   .     S
C507   C511    1.365   .     S
C507   O558    1.282   .     A
C507   O555    1.281   .     A
C508   O557    1.281   .     A
C508   C512    1.365   .     S
C508   O556    1.282   .     A
C509   C532    1.409   .     A
C509   C530    1.409   .     A
C509   C622    1.522   1_545 S
C510   C531    1.411   .     A
C510   C621    1.522   .     S
C512   C63     1.165   1_556 S
C513   F537    1.359   .     S
C513   C518    1.382   .     A
C513   C524    1.397   .     A
C514   F541    1.359   .     S
C514   C519    1.381   .     A
C514   C525    1.397   .     A
C515   F542    1.359   .     S
C515   C520    1.382   .     A
C515   C525    1.397   .     A
C516   C523    1.439   .     S
C516   O552    1.294   .     A
C516   O553    1.293   .     A
C517   C521    1.381   .     A
C517   F543    1.359   .     S
C517   C524    1.397   .     A
C518   C522    1.404   .     A
C518   F544    1.359   .     S
C519   C523    1.403   .     A
C519   F545    1.357   .     S
C520   C523    1.404   .     A
C520   F546    1.359   .     S
C521   F547    1.357   .     S
C521   C522    1.403   .     A
C525   C468    1.436   1_655 S
C526   Cl533   1.755   .     S
C526   N549    1.375   .     A
C526   C530    1.410   .     A
C527   C531    1.410   .     A
C527   N550    1.372   .     A
C527   Cl534   1.755   .     S
C528   C532    1.410   .     A
C528   Cl535   1.755   .     S
C528   N549    1.375   .     A
C529   Cl536   1.755   .     S
C529   N550    1.372   .     A
C530   F548    1.358   .     S
C531   F538    1.358   .     S
C532   F539    1.358   .     S
N549   Zn560   2.023   .     S
N550   Zn559   2.023   .     S
O551   Zn559   1.999   .     S
O552   Zn560   1.999   .     S
O553   Zn559   1.999   .     S
O554   Zn560   1.999   .     S
O555   Zn559   1.948   .     S
O556   Zn560   1.948   .     S
O557   Zn559   1.948   .     S
O558   Zn560   1.948   .     S
C561   O610    1.294   .     A
C561   C578    1.439   .     S
C561   O607    1.293   .     A
C562   C566    1.411   .     A
C562   C585    1.410   .     A
C562   F596    1.358   .     S
C563   C567    1.365   .     S
C563   O614    1.282   .     A
C563   O611    1.281   .     A
C564   O613    1.281   .     A
C564   C568    1.365   .     S
C564   O612    1.282   .     A
C565   C588    1.409   .     A
C565   C586    1.409   .     A
C566   C587    1.411   .     A
C566   C453    1.522   1_565 S
C568   C119    1.165   1_556 S
C569   F593    1.359   .     S
C569   C574    1.382   .     A
C569   C580    1.397   .     A
C570   F597    1.359   .     S
C570   C575    1.381   .     A
C570   C581    1.397   .     A
C571   F598    1.359   .     S
C571   C576    1.382   .     A
C571   C581    1.397   .     A
C572   C579    1.439   .     S
C572   O608    1.294   .     A
C572   O609    1.293   .     A
C573   C577    1.381   .     A
C573   F599    1.359   .     S
C573   C580    1.397   .     A
C574   C578    1.404   .     A
C574   F600    1.359   .     S
C575   C579    1.403   .     A
C575   F601    1.357   .     S
C576   C579    1.404   .     A
C576   F602    1.359   .     S
C577   F603    1.357   .     S
C577   C578    1.403   .     A
C580   C637    1.436   1_455 S
C581   C636    1.436   .     S
C582   Cl589   1.755   .     S
C582   N605    1.375   .     A
C582   C586    1.410   .     A
C583   C587    1.410   .     A
C583   N606    1.372   .     A
C583   Cl590   1.755   .     S
C584   C588    1.410   .     A
C584   Cl591   1.755   .     S
C584   N605    1.375   .     A
C585   Cl592   1.755   .     S
C585   N606    1.372   .     A
C586   F604    1.358   .     S
C587   F594    1.358   .     S
C588   F595    1.358   .     S
N605   Zn616   2.023   .     S
N606   Zn615   2.023   .     S
O607   Zn615   1.999   .     S
O608   Zn616   1.999   .     S
O609   Zn615   1.999   .     S
O610   Zn616   1.999   .     S
O611   Zn615   1.948   .     S
O612   Zn616   1.948   .     S
O613   Zn615   1.948   .     S
O614   Zn616   1.948   .     S
C617   O666    1.294   .     A
C617   C634    1.439   .     S
C617   O663    1.293   .     A
C618   C622    1.411   .     A
C618   C641    1.410   .     A
C618   F652    1.358   .     S
C619   C623    1.365   .     S
C619   O670    1.282   .     A
C619   O667    1.281   .     A
C620   O669    1.281   .     A
C620   C624    1.365   .     S
C620   O668    1.282   .     A
C621   C644    1.409   .     A
C621   C642    1.409   .     A
C622   C643    1.411   .     A
C622   C509    1.522   1_565 S
C624   C175    1.165   1_556 S
C625   F649    1.359   .     S
C625   C630    1.382   .     A
C625   C636    1.397   .     A
C626   F653    1.359   .     S
C626   C631    1.381   .     A
C626   C637    1.397   .     A
C627   F654    1.359   .     S
C627   C632    1.382   .     A
C627   C637    1.397   .     A
C628   C635    1.439   .     S
C628   O664    1.294   .     A
C628   O665    1.293   .     A
C629   C633    1.381   .     A
C629   F655    1.359   .     S
C629   C636    1.397   .     A
C630   C634    1.404   .     A
C630   F656    1.359   .     S
C631   C635    1.403   .     A
C631   F657    1.357   .     S
C632   C635    1.404   .     A
C632   F658    1.359   .     S
C633   F659    1.357   .     S
C633   C634    1.403   .     A
C637   C580    1.436   1_655 S
C638   Cl645   1.755   .     S
C638   N661    1.375   .     A
C638   C642    1.410   .     A
C639   C643    1.410   .     A
C639   N662    1.372   .     A
C639   Cl646   1.755   .     S
C640   C644    1.410   .     A
C640   Cl647   1.755   .     S
C640   N661    1.375   .     A
C641   Cl648   1.755   .     S
C641   N662    1.372   .     A
C642   F660    1.358   .     S
C643   F650    1.358   .     S
C644   F651    1.358   .     S
N661   Zn672   2.023   .     S
N662   Zn671   2.023   .     S
O663   Zn671   1.999   .     S
O664   Zn672   1.999   .     S
O665   Zn671   1.999   .     S
O666   Zn672   1.999   .     S
O667   Zn671   1.948   .     S
O668   Zn672   1.948   .     S
O669   Zn671   1.948   .     S
O670   Zn672   1.948   .     S
