data_str_m3_o1_o16_pcu_sym.173
_audit_creation_date              2020-01-03
_audit_creation_method            'Materials Studio'
_symmetry_space_group_name_H-M    'P1'
_symmetry_Int_Tables_number       1
_symmetry_cell_setting            triclinic
loop_
_symmetry_equiv_pos_as_xyz
  x,y,z
_cell_length_a                    29.8197
_cell_length_b                    31.8903
_cell_length_c                    26.8726
_cell_angle_alpha                 90.1661
_cell_angle_beta                  71.3754
_cell_angle_gamma                 88.3883
loop_
_atom_site_label
_atom_site_type_symbol
_atom_site_fract_x
_atom_site_fract_y
_atom_site_fract_z
_atom_site_U_iso_or_equiv
_atom_site_adp_type
_atom_site_occupancy
C1     C     0.16623   0.24657   0.25015   0.00000  Uiso   1.00
C2     C     0.14898   0.17190   0.48987   0.00000  Uiso   1.00
C3     C     0.16334   0.17584   0.43486   0.00000  Uiso   1.00
C4     C     0.18448   0.16691   0.01434   0.00000  Uiso   1.00
C5     C     0.23248   0.15798   0.48397   0.00000  Uiso   1.00
C6     C     0.24590   0.16189   0.42943   0.00000  Uiso   1.00
C7     C     0.21261   0.17826   0.40808   0.00000  Uiso   1.00
C8     C     0.17366   0.17170   0.06815   0.00000  Uiso   1.00
C9     C     0.25380   0.15150   0.06340   0.00000  Uiso   1.00
C10    C     0.12826   0.17601   0.40872   0.00000  Uiso   1.00
C11    C     0.19151   0.31123   0.27803   0.00000  Uiso   1.00
C12    C     0.14125   0.16973   0.35136   0.00000  Uiso   1.00
C13    C     0.19287   0.02083   0.27692   0.00000  Uiso   1.00
C14    C     0.16822   0.04261   0.24849   0.00000  Uiso   1.00
C15    C     0.14304   0.02217   0.22030   0.00000  Uiso   1.00
C16    C     0.14231   0.31253   0.22074   0.00000  Uiso   1.00
C17    C     0.16600   0.29077   0.25018   0.00000  Uiso   1.00
C18    C     0.31473   0.13158   0.23578   0.00000  Uiso   1.00
C19    C     0.02910   0.13159   0.23570   0.00000  Uiso   1.00
C20    C     0.01741   0.20247   0.26364   0.00000  Uiso   1.00
C21    C     0.30329   0.20150   0.26379   0.00000  Uiso   1.00
C22    C     0.16727   0.08679   0.24949   0.00000  Uiso   1.00
C23    C     0.19257   0.16617   0.14902   0.00000  Uiso   1.00
C24    C     0.26635   0.14890   0.00925   0.00000  Uiso   1.00
C25    C     0.20763   0.16370   0.09256   0.00000  Uiso   1.00
C26    C     0.08036   0.17906   0.43842   0.00000  Uiso   1.00
C27    C     0.06631   0.17762   0.49277   0.00000  Uiso   1.00
C28    C     0.09989   0.17254   0.01831   0.00000  Uiso   1.00
H29    H     0.28020   0.14450   0.08231   0.00000  Uiso   1.00
H30    H     0.21204   0.03701   0.29898   0.00000  Uiso   1.00
H31    H     0.12451   0.03941   0.19770   0.00000  Uiso   1.00
H32    H     0.12415   0.29642   0.19763   0.00000  Uiso   1.00
H33    H     0.30113   0.10333   0.22435   0.00000  Uiso   1.00
H34    H     0.05098   0.10336   0.22418   0.00000  Uiso   1.00
H35    H     0.27981   0.22879   0.27541   0.00000  Uiso   1.00
H36    H     0.30285   0.14081   0.48778   0.00000  Uiso   1.00
H37    H     0.13910   0.18337   0.09168   0.00000  Uiso   1.00
H38    H     0.05376   0.18163   0.41935   0.00000  Uiso   1.00
H39    H     0.08626   0.16809   0.06017   0.00000  Uiso   1.00
H40    H     0.02904   0.17895   0.01527   0.00000  Uiso   1.00
H41    H     0.22685   0.19355   0.37096   0.00000  Uiso   1.00
H42    H     0.20998   0.29402   0.30073   0.00000  Uiso   1.00
N43    N     0.04760   0.16668   0.25001   0.00000  Uiso   1.00
N44    N     0.28573   0.16665   0.25000   0.00000  Uiso   1.00
O45    O     0.12846   0.22775   0.25000   0.00000  Uiso   1.00
O46    O     0.20490   0.22774   0.25000   0.00000  Uiso   1.00
O47    O     0.10947   0.16666   0.32681   0.00000  Uiso   1.00
O48    O     0.18591   0.16665   0.32681   0.00000  Uiso   1.00
O49    O     0.12843   0.10559   0.24999   0.00000  Uiso   1.00
O50    O     0.20488   0.10558   0.24999   0.00000  Uiso   1.00
O51    O     0.14742   0.16668   0.17319   0.00000  Uiso   1.00
O52    O     0.22387   0.16667   0.17319   0.00000  Uiso   1.00
Zn53   Zn    0.11562   0.16667   0.25000   0.00000  Uiso   1.00
Zn54   Zn    0.21771   0.16666   0.25000   0.00000  Uiso   1.00
C55    C     0.03106   0.24539   0.27748   0.00000  Uiso   1.00
C56    C     0.03341   0.24811   0.33360   0.00000  Uiso   1.00
C57    C     0.03920   0.29317   0.34935   0.00000  Uiso   1.00
H58    H     0.00833   0.31321   0.34866   0.00000  Uiso   1.00
H59    H     0.04150   0.29378   0.38978   0.00000  Uiso   1.00
H60    H     0.07201   0.30622   0.32229   0.00000  Uiso   1.00
H61    H     0.00017   0.23631   0.36151   0.00000  Uiso   1.00
H62    H     0.06321   0.22885   0.33747   0.00000  Uiso   1.00
H63    H     0.06173   0.25691   0.24650   0.00000  Uiso   1.00
H64    H     0.00381   0.26942   0.27575   0.00000  Uiso   1.00
C65    C     0.29536   0.15096   0.39343   0.00000  Uiso   1.00
C66    C     0.30513   0.10323   0.38994   0.00000  Uiso   1.00
C67    C     0.02472   0.09249   0.36841   0.00000  Uiso   1.00
H68    H     0.04058   0.10710   0.32967   0.00000  Uiso   1.00
H69    H     0.04282   0.10377   0.39595   0.00000  Uiso   1.00
H70    H     0.03042   0.05796   0.36372   0.00000  Uiso   1.00
H71    H     0.29085   0.08853   0.42905   0.00000  Uiso   1.00
H72    H     0.28715   0.08915   0.36376   0.00000  Uiso   1.00
H73    H     0.30021   0.16210   0.35320   0.00000  Uiso   1.00
H74    H     0.32114   0.16764   0.40713   0.00000  Uiso   1.00
C75    C     0.49957   0.24657   0.25015   0.00000  Uiso   1.00
C76    C     0.48231   0.17190   0.48987   0.00000  Uiso   1.00
C77    C     0.49667   0.17584   0.43486   0.00000  Uiso   1.00
C78    C     0.51782   0.16691   0.01434   0.00000  Uiso   1.00
C79    C     0.56582   0.15798   0.48397   0.00000  Uiso   1.00
C80    C     0.57923   0.16189   0.42943   0.00000  Uiso   1.00
C81    C     0.54595   0.17826   0.40808   0.00000  Uiso   1.00
C82    C     0.50700   0.17170   0.06815   0.00000  Uiso   1.00
C83    C     0.58714   0.15150   0.06340   0.00000  Uiso   1.00
C84    C     0.46159   0.17601   0.40872   0.00000  Uiso   1.00
C85    C     0.52485   0.31123   0.27803   0.00000  Uiso   1.00
C86    C     0.47458   0.16973   0.35136   0.00000  Uiso   1.00
C87    C     0.52620   0.02083   0.27692   0.00000  Uiso   1.00
C88    C     0.50156   0.04261   0.24849   0.00000  Uiso   1.00
C89    C     0.47637   0.02217   0.22030   0.00000  Uiso   1.00
C90    C     0.47565   0.31253   0.22074   0.00000  Uiso   1.00
C91    C     0.49934   0.29077   0.25018   0.00000  Uiso   1.00
C92    C     0.64806   0.13158   0.23578   0.00000  Uiso   1.00
C93    C     0.36243   0.13159   0.23570   0.00000  Uiso   1.00
C94    C     0.35074   0.20247   0.26364   0.00000  Uiso   1.00
C95    C     0.63662   0.20150   0.26379   0.00000  Uiso   1.00
C96    C     0.50060   0.08679   0.24949   0.00000  Uiso   1.00
C97    C     0.52590   0.16617   0.14902   0.00000  Uiso   1.00
C98    C     0.59968   0.14890   0.00925   0.00000  Uiso   1.00
C99    C     0.54096   0.16370   0.09256   0.00000  Uiso   1.00
C100   C     0.41369   0.17906   0.43842   0.00000  Uiso   1.00
C101   C     0.39965   0.17762   0.49277   0.00000  Uiso   1.00
C102   C     0.43323   0.17254   0.01831   0.00000  Uiso   1.00
H103   H     0.61353   0.14450   0.08231   0.00000  Uiso   1.00
H104   H     0.54537   0.03701   0.29898   0.00000  Uiso   1.00
H105   H     0.45784   0.03941   0.19770   0.00000  Uiso   1.00
H106   H     0.45748   0.29642   0.19763   0.00000  Uiso   1.00
H107   H     0.63446   0.10333   0.22435   0.00000  Uiso   1.00
H108   H     0.38431   0.10336   0.22418   0.00000  Uiso   1.00
H109   H     0.61314   0.22879   0.27541   0.00000  Uiso   1.00
H110   H     0.63619   0.14081   0.48778   0.00000  Uiso   1.00
H111   H     0.47243   0.18337   0.09168   0.00000  Uiso   1.00
H112   H     0.38709   0.18163   0.41935   0.00000  Uiso   1.00
H113   H     0.41959   0.16809   0.06017   0.00000  Uiso   1.00
H114   H     0.36238   0.17895   0.01527   0.00000  Uiso   1.00
H115   H     0.56018   0.19355   0.37096   0.00000  Uiso   1.00
H116   H     0.54331   0.29402   0.30073   0.00000  Uiso   1.00
N117   N     0.38093   0.16668   0.25001   0.00000  Uiso   1.00
N118   N     0.61906   0.16665   0.25000   0.00000  Uiso   1.00
O119   O     0.46179   0.22775   0.25000   0.00000  Uiso   1.00
O120   O     0.53823   0.22774   0.25000   0.00000  Uiso   1.00
O121   O     0.44280   0.16666   0.32681   0.00000  Uiso   1.00
O122   O     0.51924   0.16665   0.32681   0.00000  Uiso   1.00
O123   O     0.46177   0.10559   0.24999   0.00000  Uiso   1.00
O124   O     0.53821   0.10558   0.24999   0.00000  Uiso   1.00
O125   O     0.48076   0.16668   0.17319   0.00000  Uiso   1.00
O126   O     0.55720   0.16667   0.17319   0.00000  Uiso   1.00
Zn127  Zn    0.44896   0.16667   0.25000   0.00000  Uiso   1.00
Zn128  Zn    0.55104   0.16666   0.25000   0.00000  Uiso   1.00
C129   C     0.36440   0.24539   0.27748   0.00000  Uiso   1.00
C130   C     0.36674   0.24811   0.33360   0.00000  Uiso   1.00
C131   C     0.37254   0.29317   0.34935   0.00000  Uiso   1.00
H132   H     0.34166   0.31321   0.34866   0.00000  Uiso   1.00
H133   H     0.37483   0.29378   0.38978   0.00000  Uiso   1.00
H134   H     0.40534   0.30622   0.32229   0.00000  Uiso   1.00
H135   H     0.33350   0.23631   0.36151   0.00000  Uiso   1.00
H136   H     0.39654   0.22885   0.33747   0.00000  Uiso   1.00
H137   H     0.39507   0.25691   0.24650   0.00000  Uiso   1.00
H138   H     0.33714   0.26942   0.27575   0.00000  Uiso   1.00
C139   C     0.62869   0.15096   0.39343   0.00000  Uiso   1.00
C140   C     0.63847   0.10323   0.38994   0.00000  Uiso   1.00
C141   C     0.35806   0.09249   0.36841   0.00000  Uiso   1.00
H142   H     0.37392   0.10710   0.32967   0.00000  Uiso   1.00
H143   H     0.37616   0.10377   0.39595   0.00000  Uiso   1.00
H144   H     0.36375   0.05796   0.36372   0.00000  Uiso   1.00
H145   H     0.62418   0.08853   0.42905   0.00000  Uiso   1.00
H146   H     0.62048   0.08915   0.36376   0.00000  Uiso   1.00
H147   H     0.63354   0.16210   0.35320   0.00000  Uiso   1.00
H148   H     0.65447   0.16764   0.40713   0.00000  Uiso   1.00
C149   C     0.83290   0.24657   0.25015   0.00000  Uiso   1.00
C150   C     0.81565   0.17190   0.48987   0.00000  Uiso   1.00
C151   C     0.83001   0.17584   0.43486   0.00000  Uiso   1.00
C152   C     0.85115   0.16691   0.01434   0.00000  Uiso   1.00
C153   C     0.89915   0.15798   0.48397   0.00000  Uiso   1.00
C154   C     0.91256   0.16189   0.42943   0.00000  Uiso   1.00
C155   C     0.87928   0.17826   0.40808   0.00000  Uiso   1.00
C156   C     0.84033   0.17170   0.06815   0.00000  Uiso   1.00
C157   C     0.92047   0.15150   0.06340   0.00000  Uiso   1.00
C158   C     0.79492   0.17601   0.40872   0.00000  Uiso   1.00
C159   C     0.85818   0.31123   0.27803   0.00000  Uiso   1.00
C160   C     0.80792   0.16973   0.35136   0.00000  Uiso   1.00
C161   C     0.85954   0.02083   0.27692   0.00000  Uiso   1.00
C162   C     0.83489   0.04261   0.24849   0.00000  Uiso   1.00
C163   C     0.80970   0.02217   0.22030   0.00000  Uiso   1.00
C164   C     0.80898   0.31253   0.22074   0.00000  Uiso   1.00
C165   C     0.83267   0.29077   0.25018   0.00000  Uiso   1.00
C166   C     0.98140   0.13158   0.23578   0.00000  Uiso   1.00
C167   C     0.69577   0.13159   0.23570   0.00000  Uiso   1.00
C168   C     0.68408   0.20247   0.26364   0.00000  Uiso   1.00
C169   C     0.96995   0.20150   0.26379   0.00000  Uiso   1.00
C170   C     0.83394   0.08679   0.24949   0.00000  Uiso   1.00
C171   C     0.85923   0.16617   0.14902   0.00000  Uiso   1.00
C172   C     0.93302   0.14890   0.00925   0.00000  Uiso   1.00
C173   C     0.87430   0.16370   0.09256   0.00000  Uiso   1.00
C174   C     0.74703   0.17906   0.43842   0.00000  Uiso   1.00
C175   C     0.73298   0.17762   0.49277   0.00000  Uiso   1.00
C176   C     0.76656   0.17254   0.01831   0.00000  Uiso   1.00
H177   H     0.94686   0.14450   0.08231   0.00000  Uiso   1.00
H178   H     0.87870   0.03701   0.29898   0.00000  Uiso   1.00
H179   H     0.79118   0.03941   0.19770   0.00000  Uiso   1.00
H180   H     0.79081   0.29642   0.19763   0.00000  Uiso   1.00
H181   H     0.96779   0.10333   0.22435   0.00000  Uiso   1.00
H182   H     0.71765   0.10336   0.22418   0.00000  Uiso   1.00
H183   H     0.94648   0.22879   0.27541   0.00000  Uiso   1.00
H184   H     0.96952   0.14081   0.48778   0.00000  Uiso   1.00
H185   H     0.80576   0.18337   0.09168   0.00000  Uiso   1.00
H186   H     0.72043   0.18163   0.41935   0.00000  Uiso   1.00
H187   H     0.75293   0.16809   0.06017   0.00000  Uiso   1.00
H188   H     0.69571   0.17895   0.01527   0.00000  Uiso   1.00
H189   H     0.89352   0.19355   0.37096   0.00000  Uiso   1.00
H190   H     0.87665   0.29402   0.30073   0.00000  Uiso   1.00
N191   N     0.71426   0.16668   0.25001   0.00000  Uiso   1.00
N192   N     0.95239   0.16665   0.25000   0.00000  Uiso   1.00
O193   O     0.79512   0.22775   0.25000   0.00000  Uiso   1.00
O194   O     0.87157   0.22774   0.25000   0.00000  Uiso   1.00
O195   O     0.77613   0.16666   0.32681   0.00000  Uiso   1.00
O196   O     0.85258   0.16665   0.32681   0.00000  Uiso   1.00
O197   O     0.79510   0.10559   0.24999   0.00000  Uiso   1.00
O198   O     0.87154   0.10558   0.24999   0.00000  Uiso   1.00
O199   O     0.81409   0.16668   0.17319   0.00000  Uiso   1.00
O200   O     0.89053   0.16667   0.17319   0.00000  Uiso   1.00
Zn201  Zn    0.78229   0.16667   0.25000   0.00000  Uiso   1.00
Zn202  Zn    0.88438   0.16666   0.25000   0.00000  Uiso   1.00
C203   C     0.69773   0.24539   0.27748   0.00000  Uiso   1.00
C204   C     0.70007   0.24811   0.33360   0.00000  Uiso   1.00
C205   C     0.70587   0.29317   0.34935   0.00000  Uiso   1.00
H206   H     0.67500   0.31321   0.34866   0.00000  Uiso   1.00
H207   H     0.70817   0.29378   0.38978   0.00000  Uiso   1.00
H208   H     0.73868   0.30622   0.32229   0.00000  Uiso   1.00
H209   H     0.66683   0.23631   0.36151   0.00000  Uiso   1.00
H210   H     0.72987   0.22885   0.33747   0.00000  Uiso   1.00
H211   H     0.72840   0.25691   0.24650   0.00000  Uiso   1.00
H212   H     0.67047   0.26942   0.27575   0.00000  Uiso   1.00
C213   C     0.96202   0.15096   0.39343   0.00000  Uiso   1.00
C214   C     0.97180   0.10323   0.38994   0.00000  Uiso   1.00
C215   C     0.69139   0.09249   0.36841   0.00000  Uiso   1.00
H216   H     0.70725   0.10710   0.32967   0.00000  Uiso   1.00
H217   H     0.70949   0.10377   0.39595   0.00000  Uiso   1.00
H218   H     0.69709   0.05796   0.36372   0.00000  Uiso   1.00
H219   H     0.95752   0.08853   0.42905   0.00000  Uiso   1.00
H220   H     0.95382   0.08915   0.36376   0.00000  Uiso   1.00
H221   H     0.96688   0.16210   0.35320   0.00000  Uiso   1.00
H222   H     0.98781   0.16764   0.40713   0.00000  Uiso   1.00
C223   C     0.16623   0.57990   0.25015   0.00000  Uiso   1.00
C224   C     0.14898   0.50523   0.48987   0.00000  Uiso   1.00
C225   C     0.16334   0.50918   0.43486   0.00000  Uiso   1.00
C226   C     0.18448   0.50025   0.01434   0.00000  Uiso   1.00
C227   C     0.23248   0.49131   0.48397   0.00000  Uiso   1.00
C228   C     0.24590   0.49522   0.42943   0.00000  Uiso   1.00
C229   C     0.21261   0.51159   0.40808   0.00000  Uiso   1.00
C230   C     0.17366   0.50503   0.06815   0.00000  Uiso   1.00
C231   C     0.25380   0.48483   0.06340   0.00000  Uiso   1.00
C232   C     0.12826   0.50934   0.40872   0.00000  Uiso   1.00
C233   C     0.19151   0.64456   0.27803   0.00000  Uiso   1.00
C234   C     0.14125   0.50306   0.35136   0.00000  Uiso   1.00
C235   C     0.19287   0.35417   0.27692   0.00000  Uiso   1.00
C236   C     0.16822   0.37594   0.24849   0.00000  Uiso   1.00
C237   C     0.14304   0.35550   0.22030   0.00000  Uiso   1.00
C238   C     0.14231   0.64587   0.22074   0.00000  Uiso   1.00
C239   C     0.16600   0.62410   0.25018   0.00000  Uiso   1.00
C240   C     0.31473   0.46492   0.23578   0.00000  Uiso   1.00
C241   C     0.02910   0.46493   0.23570   0.00000  Uiso   1.00
C242   C     0.01741   0.53580   0.26364   0.00000  Uiso   1.00
C243   C     0.30329   0.53483   0.26379   0.00000  Uiso   1.00
C244   C     0.16727   0.42012   0.24949   0.00000  Uiso   1.00
C245   C     0.19257   0.49950   0.14902   0.00000  Uiso   1.00
C246   C     0.26635   0.48223   0.00925   0.00000  Uiso   1.00
C247   C     0.20763   0.49703   0.09256   0.00000  Uiso   1.00
C248   C     0.08036   0.51239   0.43842   0.00000  Uiso   1.00
C249   C     0.06631   0.51095   0.49277   0.00000  Uiso   1.00
C250   C     0.09989   0.50588   0.01831   0.00000  Uiso   1.00
H251   H     0.28020   0.47783   0.08231   0.00000  Uiso   1.00
H252   H     0.21204   0.37034   0.29898   0.00000  Uiso   1.00
H253   H     0.12451   0.37274   0.19770   0.00000  Uiso   1.00
H254   H     0.12415   0.62975   0.19763   0.00000  Uiso   1.00
H255   H     0.30113   0.43666   0.22435   0.00000  Uiso   1.00
H256   H     0.05098   0.43670   0.22418   0.00000  Uiso   1.00
H257   H     0.27981   0.56212   0.27541   0.00000  Uiso   1.00
H258   H     0.30285   0.47415   0.48778   0.00000  Uiso   1.00
H259   H     0.13910   0.51671   0.09168   0.00000  Uiso   1.00
H260   H     0.05376   0.51496   0.41935   0.00000  Uiso   1.00
H261   H     0.08626   0.50143   0.06017   0.00000  Uiso   1.00
H262   H     0.02904   0.51228   0.01527   0.00000  Uiso   1.00
H263   H     0.22685   0.52688   0.37096   0.00000  Uiso   1.00
H264   H     0.20998   0.62736   0.30073   0.00000  Uiso   1.00
N265   N     0.04760   0.50001   0.25001   0.00000  Uiso   1.00
N266   N     0.28573   0.49998   0.25000   0.00000  Uiso   1.00
O267   O     0.12846   0.56108   0.25000   0.00000  Uiso   1.00
O268   O     0.20490   0.56107   0.25000   0.00000  Uiso   1.00
O269   O     0.10947   0.50000   0.32681   0.00000  Uiso   1.00
O270   O     0.18591   0.49999   0.32681   0.00000  Uiso   1.00
O271   O     0.12843   0.43893   0.24999   0.00000  Uiso   1.00
O272   O     0.20488   0.43892   0.24999   0.00000  Uiso   1.00
O273   O     0.14742   0.50001   0.17319   0.00000  Uiso   1.00
O274   O     0.22387   0.50000   0.17319   0.00000  Uiso   1.00
Zn275  Zn    0.11562   0.50001   0.25000   0.00000  Uiso   1.00
Zn276  Zn    0.21771   0.49999   0.25000   0.00000  Uiso   1.00
C277   C     0.03106   0.57872   0.27748   0.00000  Uiso   1.00
C278   C     0.03341   0.58144   0.33360   0.00000  Uiso   1.00
C279   C     0.03920   0.62651   0.34935   0.00000  Uiso   1.00
H280   H     0.00833   0.64654   0.34866   0.00000  Uiso   1.00
H281   H     0.04150   0.62711   0.38978   0.00000  Uiso   1.00
H282   H     0.07201   0.63955   0.32229   0.00000  Uiso   1.00
H283   H     0.00017   0.56964   0.36151   0.00000  Uiso   1.00
H284   H     0.06321   0.56218   0.33747   0.00000  Uiso   1.00
H285   H     0.06173   0.59024   0.24650   0.00000  Uiso   1.00
H286   H     0.00381   0.60275   0.27575   0.00000  Uiso   1.00
C287   C     0.29536   0.48429   0.39343   0.00000  Uiso   1.00
C288   C     0.30513   0.43656   0.38994   0.00000  Uiso   1.00
C289   C     0.02472   0.42582   0.36841   0.00000  Uiso   1.00
H290   H     0.04058   0.44043   0.32967   0.00000  Uiso   1.00
H291   H     0.04282   0.43711   0.39595   0.00000  Uiso   1.00
H292   H     0.03042   0.39129   0.36372   0.00000  Uiso   1.00
H293   H     0.29085   0.42186   0.42905   0.00000  Uiso   1.00
H294   H     0.28715   0.42248   0.36376   0.00000  Uiso   1.00
H295   H     0.30021   0.49544   0.35320   0.00000  Uiso   1.00
H296   H     0.32114   0.50098   0.40713   0.00000  Uiso   1.00
C297   C     0.49957   0.57990   0.25015   0.00000  Uiso   1.00
C298   C     0.48231   0.50523   0.48987   0.00000  Uiso   1.00
C299   C     0.49667   0.50918   0.43486   0.00000  Uiso   1.00
C300   C     0.51782   0.50025   0.01434   0.00000  Uiso   1.00
C301   C     0.56582   0.49131   0.48397   0.00000  Uiso   1.00
C302   C     0.57923   0.49522   0.42943   0.00000  Uiso   1.00
C303   C     0.54595   0.51159   0.40808   0.00000  Uiso   1.00
C304   C     0.50700   0.50503   0.06815   0.00000  Uiso   1.00
C305   C     0.58714   0.48483   0.06340   0.00000  Uiso   1.00
C306   C     0.46159   0.50934   0.40872   0.00000  Uiso   1.00
C307   C     0.52485   0.64456   0.27803   0.00000  Uiso   1.00
C308   C     0.47458   0.50306   0.35136   0.00000  Uiso   1.00
C309   C     0.52620   0.35417   0.27692   0.00000  Uiso   1.00
C310   C     0.50156   0.37594   0.24849   0.00000  Uiso   1.00
C311   C     0.47637   0.35550   0.22030   0.00000  Uiso   1.00
C312   C     0.47565   0.64587   0.22074   0.00000  Uiso   1.00
C313   C     0.49934   0.62410   0.25018   0.00000  Uiso   1.00
C314   C     0.64806   0.46492   0.23578   0.00000  Uiso   1.00
C315   C     0.36243   0.46493   0.23570   0.00000  Uiso   1.00
C316   C     0.35074   0.53580   0.26364   0.00000  Uiso   1.00
C317   C     0.63662   0.53483   0.26379   0.00000  Uiso   1.00
C318   C     0.50060   0.42012   0.24949   0.00000  Uiso   1.00
C319   C     0.52590   0.49950   0.14902   0.00000  Uiso   1.00
C320   C     0.59968   0.48223   0.00925   0.00000  Uiso   1.00
C321   C     0.54096   0.49703   0.09256   0.00000  Uiso   1.00
C322   C     0.41369   0.51239   0.43842   0.00000  Uiso   1.00
C323   C     0.39965   0.51095   0.49277   0.00000  Uiso   1.00
C324   C     0.43323   0.50588   0.01831   0.00000  Uiso   1.00
H325   H     0.61353   0.47783   0.08231   0.00000  Uiso   1.00
H326   H     0.54537   0.37034   0.29898   0.00000  Uiso   1.00
H327   H     0.45784   0.37274   0.19770   0.00000  Uiso   1.00
H328   H     0.45748   0.62975   0.19763   0.00000  Uiso   1.00
H329   H     0.63446   0.43666   0.22435   0.00000  Uiso   1.00
H330   H     0.38431   0.43670   0.22418   0.00000  Uiso   1.00
H331   H     0.61314   0.56212   0.27541   0.00000  Uiso   1.00
H332   H     0.63619   0.47415   0.48778   0.00000  Uiso   1.00
H333   H     0.47243   0.51671   0.09168   0.00000  Uiso   1.00
H334   H     0.38709   0.51496   0.41935   0.00000  Uiso   1.00
H335   H     0.41959   0.50143   0.06017   0.00000  Uiso   1.00
H336   H     0.36238   0.51228   0.01527   0.00000  Uiso   1.00
H337   H     0.56018   0.52688   0.37096   0.00000  Uiso   1.00
H338   H     0.54331   0.62736   0.30073   0.00000  Uiso   1.00
N339   N     0.38093   0.50001   0.25001   0.00000  Uiso   1.00
N340   N     0.61906   0.49998   0.25000   0.00000  Uiso   1.00
O341   O     0.46179   0.56108   0.25000   0.00000  Uiso   1.00
O342   O     0.53823   0.56107   0.25000   0.00000  Uiso   1.00
O343   O     0.44280   0.50000   0.32681   0.00000  Uiso   1.00
O344   O     0.51924   0.49999   0.32681   0.00000  Uiso   1.00
O345   O     0.46177   0.43893   0.24999   0.00000  Uiso   1.00
O346   O     0.53821   0.43892   0.24999   0.00000  Uiso   1.00
O347   O     0.48076   0.50001   0.17319   0.00000  Uiso   1.00
O348   O     0.55720   0.50000   0.17319   0.00000  Uiso   1.00
Zn349  Zn    0.44896   0.50001   0.25000   0.00000  Uiso   1.00
Zn350  Zn    0.55104   0.49999   0.25000   0.00000  Uiso   1.00
C351   C     0.36440   0.57872   0.27748   0.00000  Uiso   1.00
C352   C     0.36674   0.58144   0.33360   0.00000  Uiso   1.00
C353   C     0.37254   0.62651   0.34935   0.00000  Uiso   1.00
H354   H     0.34166   0.64654   0.34866   0.00000  Uiso   1.00
H355   H     0.37483   0.62711   0.38978   0.00000  Uiso   1.00
H356   H     0.40534   0.63955   0.32229   0.00000  Uiso   1.00
H357   H     0.33350   0.56964   0.36151   0.00000  Uiso   1.00
H358   H     0.39654   0.56218   0.33747   0.00000  Uiso   1.00
H359   H     0.39507   0.59024   0.24650   0.00000  Uiso   1.00
H360   H     0.33714   0.60275   0.27575   0.00000  Uiso   1.00
C361   C     0.62869   0.48429   0.39343   0.00000  Uiso   1.00
C362   C     0.63847   0.43656   0.38994   0.00000  Uiso   1.00
C363   C     0.35806   0.42582   0.36841   0.00000  Uiso   1.00
H364   H     0.37392   0.44043   0.32967   0.00000  Uiso   1.00
H365   H     0.37616   0.43711   0.39595   0.00000  Uiso   1.00
H366   H     0.36375   0.39129   0.36372   0.00000  Uiso   1.00
H367   H     0.62418   0.42186   0.42905   0.00000  Uiso   1.00
H368   H     0.62048   0.42248   0.36376   0.00000  Uiso   1.00
H369   H     0.63354   0.49544   0.35320   0.00000  Uiso   1.00
H370   H     0.65447   0.50098   0.40713   0.00000  Uiso   1.00
C371   C     0.83290   0.57990   0.25015   0.00000  Uiso   1.00
C372   C     0.81565   0.50523   0.48987   0.00000  Uiso   1.00
C373   C     0.83001   0.50918   0.43486   0.00000  Uiso   1.00
C374   C     0.85115   0.50025   0.01434   0.00000  Uiso   1.00
C375   C     0.89915   0.49131   0.48397   0.00000  Uiso   1.00
C376   C     0.91256   0.49522   0.42943   0.00000  Uiso   1.00
C377   C     0.87928   0.51159   0.40808   0.00000  Uiso   1.00
C378   C     0.84033   0.50503   0.06815   0.00000  Uiso   1.00
C379   C     0.92047   0.48483   0.06340   0.00000  Uiso   1.00
C380   C     0.79492   0.50934   0.40872   0.00000  Uiso   1.00
C381   C     0.85818   0.64456   0.27803   0.00000  Uiso   1.00
C382   C     0.80792   0.50306   0.35136   0.00000  Uiso   1.00
C383   C     0.85954   0.35417   0.27692   0.00000  Uiso   1.00
C384   C     0.83489   0.37594   0.24849   0.00000  Uiso   1.00
C385   C     0.80970   0.35550   0.22030   0.00000  Uiso   1.00
C386   C     0.80898   0.64587   0.22074   0.00000  Uiso   1.00
C387   C     0.83267   0.62410   0.25018   0.00000  Uiso   1.00
C388   C     0.98140   0.46492   0.23578   0.00000  Uiso   1.00
C389   C     0.69577   0.46493   0.23570   0.00000  Uiso   1.00
C390   C     0.68408   0.53580   0.26364   0.00000  Uiso   1.00
C391   C     0.96995   0.53483   0.26379   0.00000  Uiso   1.00
C392   C     0.83394   0.42012   0.24949   0.00000  Uiso   1.00
C393   C     0.85923   0.49950   0.14902   0.00000  Uiso   1.00
C394   C     0.93302   0.48223   0.00925   0.00000  Uiso   1.00
C395   C     0.87430   0.49703   0.09256   0.00000  Uiso   1.00
C396   C     0.74703   0.51239   0.43842   0.00000  Uiso   1.00
C397   C     0.73298   0.51095   0.49277   0.00000  Uiso   1.00
C398   C     0.76656   0.50588   0.01831   0.00000  Uiso   1.00
H399   H     0.94686   0.47783   0.08231   0.00000  Uiso   1.00
H400   H     0.87870   0.37034   0.29898   0.00000  Uiso   1.00
H401   H     0.79118   0.37274   0.19770   0.00000  Uiso   1.00
H402   H     0.79081   0.62975   0.19763   0.00000  Uiso   1.00
H403   H     0.96779   0.43666   0.22435   0.00000  Uiso   1.00
H404   H     0.71765   0.43670   0.22418   0.00000  Uiso   1.00
H405   H     0.94648   0.56212   0.27541   0.00000  Uiso   1.00
H406   H     0.96952   0.47415   0.48778   0.00000  Uiso   1.00
H407   H     0.80576   0.51671   0.09168   0.00000  Uiso   1.00
H408   H     0.72043   0.51496   0.41935   0.00000  Uiso   1.00
H409   H     0.75293   0.50143   0.06017   0.00000  Uiso   1.00
H410   H     0.69571   0.51228   0.01527   0.00000  Uiso   1.00
H411   H     0.89352   0.52688   0.37096   0.00000  Uiso   1.00
H412   H     0.87665   0.62736   0.30073   0.00000  Uiso   1.00
N413   N     0.71426   0.50001   0.25001   0.00000  Uiso   1.00
N414   N     0.95239   0.49998   0.25000   0.00000  Uiso   1.00
O415   O     0.79512   0.56108   0.25000   0.00000  Uiso   1.00
O416   O     0.87157   0.56107   0.25000   0.00000  Uiso   1.00
O417   O     0.77613   0.50000   0.32681   0.00000  Uiso   1.00
O418   O     0.85258   0.49999   0.32681   0.00000  Uiso   1.00
O419   O     0.79510   0.43893   0.24999   0.00000  Uiso   1.00
O420   O     0.87154   0.43892   0.24999   0.00000  Uiso   1.00
O421   O     0.81409   0.50001   0.17319   0.00000  Uiso   1.00
O422   O     0.89053   0.50000   0.17319   0.00000  Uiso   1.00
Zn423  Zn    0.78229   0.50001   0.25000   0.00000  Uiso   1.00
Zn424  Zn    0.88438   0.49999   0.25000   0.00000  Uiso   1.00
C425   C     0.69773   0.57872   0.27748   0.00000  Uiso   1.00
C426   C     0.70007   0.58144   0.33360   0.00000  Uiso   1.00
C427   C     0.70587   0.62651   0.34935   0.00000  Uiso   1.00
H428   H     0.67500   0.64654   0.34866   0.00000  Uiso   1.00
H429   H     0.70817   0.62711   0.38978   0.00000  Uiso   1.00
H430   H     0.73868   0.63955   0.32229   0.00000  Uiso   1.00
H431   H     0.66683   0.56964   0.36151   0.00000  Uiso   1.00
H432   H     0.72987   0.56218   0.33747   0.00000  Uiso   1.00
H433   H     0.72840   0.59024   0.24650   0.00000  Uiso   1.00
H434   H     0.67047   0.60275   0.27575   0.00000  Uiso   1.00
C435   C     0.96202   0.48429   0.39343   0.00000  Uiso   1.00
C436   C     0.97180   0.43656   0.38994   0.00000  Uiso   1.00
C437   C     0.69139   0.42582   0.36841   0.00000  Uiso   1.00
H438   H     0.70725   0.44043   0.32967   0.00000  Uiso   1.00
H439   H     0.70949   0.43711   0.39595   0.00000  Uiso   1.00
H440   H     0.69709   0.39129   0.36372   0.00000  Uiso   1.00
H441   H     0.95752   0.42186   0.42905   0.00000  Uiso   1.00
H442   H     0.95382   0.42248   0.36376   0.00000  Uiso   1.00
H443   H     0.96688   0.49544   0.35320   0.00000  Uiso   1.00
H444   H     0.98781   0.50098   0.40713   0.00000  Uiso   1.00
C445   C     0.16623   0.91323   0.25015   0.00000  Uiso   1.00
C446   C     0.14898   0.83857   0.48987   0.00000  Uiso   1.00
C447   C     0.16334   0.84251   0.43486   0.00000  Uiso   1.00
C448   C     0.18448   0.83358   0.01434   0.00000  Uiso   1.00
C449   C     0.23248   0.82465   0.48397   0.00000  Uiso   1.00
C450   C     0.24590   0.82855   0.42943   0.00000  Uiso   1.00
C451   C     0.21261   0.84493   0.40808   0.00000  Uiso   1.00
C452   C     0.17366   0.83836   0.06815   0.00000  Uiso   1.00
C453   C     0.25380   0.81816   0.06340   0.00000  Uiso   1.00
C454   C     0.12826   0.84268   0.40872   0.00000  Uiso   1.00
C455   C     0.19151   0.97789   0.27803   0.00000  Uiso   1.00
C456   C     0.14125   0.83639   0.35136   0.00000  Uiso   1.00
C457   C     0.19287   0.68750   0.27692   0.00000  Uiso   1.00
C458   C     0.16822   0.70927   0.24849   0.00000  Uiso   1.00
C459   C     0.14304   0.68884   0.22030   0.00000  Uiso   1.00
C460   C     0.14231   0.97920   0.22074   0.00000  Uiso   1.00
C461   C     0.16600   0.95744   0.25018   0.00000  Uiso   1.00
C462   C     0.31473   0.79825   0.23578   0.00000  Uiso   1.00
C463   C     0.02910   0.79826   0.23570   0.00000  Uiso   1.00
C464   C     0.01741   0.86914   0.26364   0.00000  Uiso   1.00
C465   C     0.30329   0.86816   0.26379   0.00000  Uiso   1.00
C466   C     0.16727   0.75345   0.24949   0.00000  Uiso   1.00
C467   C     0.19257   0.83283   0.14902   0.00000  Uiso   1.00
C468   C     0.26635   0.81557   0.00925   0.00000  Uiso   1.00
C469   C     0.20763   0.83037   0.09256   0.00000  Uiso   1.00
C470   C     0.08036   0.84572   0.43842   0.00000  Uiso   1.00
C471   C     0.06631   0.84428   0.49277   0.00000  Uiso   1.00
C472   C     0.09989   0.83921   0.01831   0.00000  Uiso   1.00
H473   H     0.28020   0.81116   0.08231   0.00000  Uiso   1.00
H474   H     0.21204   0.70368   0.29898   0.00000  Uiso   1.00
H475   H     0.12451   0.70607   0.19770   0.00000  Uiso   1.00
H476   H     0.12415   0.96309   0.19763   0.00000  Uiso   1.00
H477   H     0.30113   0.77000   0.22435   0.00000  Uiso   1.00
H478   H     0.05098   0.77003   0.22418   0.00000  Uiso   1.00
H479   H     0.27981   0.89546   0.27541   0.00000  Uiso   1.00
H480   H     0.30285   0.80748   0.48778   0.00000  Uiso   1.00
H481   H     0.13910   0.85004   0.09168   0.00000  Uiso   1.00
H482   H     0.05376   0.84829   0.41935   0.00000  Uiso   1.00
H483   H     0.08626   0.83476   0.06017   0.00000  Uiso   1.00
H484   H     0.02904   0.84562   0.01527   0.00000  Uiso   1.00
H485   H     0.22685   0.86022   0.37096   0.00000  Uiso   1.00
H486   H     0.20998   0.96069   0.30073   0.00000  Uiso   1.00
N487   N     0.04760   0.83334   0.25001   0.00000  Uiso   1.00
N488   N     0.28573   0.83331   0.25000   0.00000  Uiso   1.00
O489   O     0.12846   0.89442   0.25000   0.00000  Uiso   1.00
O490   O     0.20490   0.89441   0.25000   0.00000  Uiso   1.00
O491   O     0.10947   0.83333   0.32681   0.00000  Uiso   1.00
O492   O     0.18591   0.83332   0.32681   0.00000  Uiso   1.00
O493   O     0.12843   0.77226   0.24999   0.00000  Uiso   1.00
O494   O     0.20488   0.77225   0.24999   0.00000  Uiso   1.00
O495   O     0.14742   0.83335   0.17319   0.00000  Uiso   1.00
O496   O     0.22387   0.83334   0.17319   0.00000  Uiso   1.00
Zn497  Zn    0.11562   0.83334   0.25000   0.00000  Uiso   1.00
Zn498  Zn    0.21771   0.83333   0.25000   0.00000  Uiso   1.00
C499   C     0.03106   0.91206   0.27748   0.00000  Uiso   1.00
C500   C     0.03341   0.91477   0.33360   0.00000  Uiso   1.00
C501   C     0.03920   0.95984   0.34935   0.00000  Uiso   1.00
H502   H     0.00833   0.97988   0.34866   0.00000  Uiso   1.00
H503   H     0.04150   0.96045   0.38978   0.00000  Uiso   1.00
H504   H     0.07201   0.97289   0.32229   0.00000  Uiso   1.00
H505   H     0.00017   0.90298   0.36151   0.00000  Uiso   1.00
H506   H     0.06321   0.89552   0.33747   0.00000  Uiso   1.00
H507   H     0.06173   0.92358   0.24650   0.00000  Uiso   1.00
H508   H     0.00381   0.93609   0.27575   0.00000  Uiso   1.00
C509   C     0.29536   0.81763   0.39343   0.00000  Uiso   1.00
C510   C     0.30513   0.76990   0.38994   0.00000  Uiso   1.00
C511   C     0.02472   0.75915   0.36841   0.00000  Uiso   1.00
H512   H     0.04058   0.77377   0.32967   0.00000  Uiso   1.00
H513   H     0.04282   0.77044   0.39595   0.00000  Uiso   1.00
H514   H     0.03042   0.72463   0.36372   0.00000  Uiso   1.00
H515   H     0.29085   0.75520   0.42905   0.00000  Uiso   1.00
H516   H     0.28715   0.75582   0.36376   0.00000  Uiso   1.00
H517   H     0.30021   0.82877   0.35320   0.00000  Uiso   1.00
H518   H     0.32114   0.83431   0.40713   0.00000  Uiso   1.00
C519   C     0.49957   0.91323   0.25015   0.00000  Uiso   1.00
C520   C     0.48231   0.83857   0.48987   0.00000  Uiso   1.00
C521   C     0.49667   0.84251   0.43486   0.00000  Uiso   1.00
C522   C     0.51782   0.83358   0.01434   0.00000  Uiso   1.00
C523   C     0.56582   0.82465   0.48397   0.00000  Uiso   1.00
C524   C     0.57923   0.82855   0.42943   0.00000  Uiso   1.00
C525   C     0.54595   0.84493   0.40808   0.00000  Uiso   1.00
C526   C     0.50700   0.83836   0.06815   0.00000  Uiso   1.00
C527   C     0.58714   0.81816   0.06340   0.00000  Uiso   1.00
C528   C     0.46159   0.84268   0.40872   0.00000  Uiso   1.00
C529   C     0.52485   0.97789   0.27803   0.00000  Uiso   1.00
C530   C     0.47458   0.83639   0.35136   0.00000  Uiso   1.00
C531   C     0.52620   0.68750   0.27692   0.00000  Uiso   1.00
C532   C     0.50156   0.70927   0.24849   0.00000  Uiso   1.00
C533   C     0.47637   0.68884   0.22030   0.00000  Uiso   1.00
C534   C     0.47565   0.97920   0.22074   0.00000  Uiso   1.00
C535   C     0.49934   0.95744   0.25018   0.00000  Uiso   1.00
C536   C     0.64806   0.79825   0.23578   0.00000  Uiso   1.00
C537   C     0.36243   0.79826   0.23570   0.00000  Uiso   1.00
C538   C     0.35074   0.86914   0.26364   0.00000  Uiso   1.00
C539   C     0.63662   0.86816   0.26379   0.00000  Uiso   1.00
C540   C     0.50060   0.75345   0.24949   0.00000  Uiso   1.00
C541   C     0.52590   0.83283   0.14902   0.00000  Uiso   1.00
C542   C     0.59968   0.81557   0.00925   0.00000  Uiso   1.00
C543   C     0.54096   0.83037   0.09256   0.00000  Uiso   1.00
C544   C     0.41369   0.84572   0.43842   0.00000  Uiso   1.00
C545   C     0.39965   0.84428   0.49277   0.00000  Uiso   1.00
C546   C     0.43323   0.83921   0.01831   0.00000  Uiso   1.00
H547   H     0.61353   0.81116   0.08231   0.00000  Uiso   1.00
H548   H     0.54537   0.70368   0.29898   0.00000  Uiso   1.00
H549   H     0.45784   0.70607   0.19770   0.00000  Uiso   1.00
H550   H     0.45748   0.96309   0.19763   0.00000  Uiso   1.00
H551   H     0.63446   0.77000   0.22435   0.00000  Uiso   1.00
H552   H     0.38431   0.77003   0.22418   0.00000  Uiso   1.00
H553   H     0.61314   0.89546   0.27541   0.00000  Uiso   1.00
H554   H     0.63619   0.80748   0.48778   0.00000  Uiso   1.00
H555   H     0.47243   0.85004   0.09168   0.00000  Uiso   1.00
H556   H     0.38709   0.84829   0.41935   0.00000  Uiso   1.00
H557   H     0.41959   0.83476   0.06017   0.00000  Uiso   1.00
H558   H     0.36238   0.84562   0.01527   0.00000  Uiso   1.00
H559   H     0.56018   0.86022   0.37096   0.00000  Uiso   1.00
H560   H     0.54331   0.96069   0.30073   0.00000  Uiso   1.00
N561   N     0.38093   0.83334   0.25001   0.00000  Uiso   1.00
N562   N     0.61906   0.83331   0.25000   0.00000  Uiso   1.00
O563   O     0.46179   0.89442   0.25000   0.00000  Uiso   1.00
O564   O     0.53823   0.89441   0.25000   0.00000  Uiso   1.00
O565   O     0.44280   0.83333   0.32681   0.00000  Uiso   1.00
O566   O     0.51924   0.83332   0.32681   0.00000  Uiso   1.00
O567   O     0.46177   0.77226   0.24999   0.00000  Uiso   1.00
O568   O     0.53821   0.77225   0.24999   0.00000  Uiso   1.00
O569   O     0.48076   0.83335   0.17319   0.00000  Uiso   1.00
O570   O     0.55720   0.83334   0.17319   0.00000  Uiso   1.00
Zn571  Zn    0.44896   0.83334   0.25000   0.00000  Uiso   1.00
Zn572  Zn    0.55104   0.83333   0.25000   0.00000  Uiso   1.00
C573   C     0.36440   0.91206   0.27748   0.00000  Uiso   1.00
C574   C     0.36674   0.91477   0.33360   0.00000  Uiso   1.00
C575   C     0.37254   0.95984   0.34935   0.00000  Uiso   1.00
H576   H     0.34166   0.97988   0.34866   0.00000  Uiso   1.00
H577   H     0.37483   0.96045   0.38978   0.00000  Uiso   1.00
H578   H     0.40534   0.97289   0.32229   0.00000  Uiso   1.00
H579   H     0.33350   0.90298   0.36151   0.00000  Uiso   1.00
H580   H     0.39654   0.89552   0.33747   0.00000  Uiso   1.00
H581   H     0.39507   0.92358   0.24650   0.00000  Uiso   1.00
H582   H     0.33714   0.93609   0.27575   0.00000  Uiso   1.00
C583   C     0.62869   0.81763   0.39343   0.00000  Uiso   1.00
C584   C     0.63847   0.76990   0.38994   0.00000  Uiso   1.00
C585   C     0.35806   0.75915   0.36841   0.00000  Uiso   1.00
H586   H     0.37392   0.77377   0.32967   0.00000  Uiso   1.00
H587   H     0.37616   0.77044   0.39595   0.00000  Uiso   1.00
H588   H     0.36375   0.72463   0.36372   0.00000  Uiso   1.00
H589   H     0.62418   0.75520   0.42905   0.00000  Uiso   1.00
H590   H     0.62048   0.75582   0.36376   0.00000  Uiso   1.00
H591   H     0.63354   0.82877   0.35320   0.00000  Uiso   1.00
H592   H     0.65447   0.83431   0.40713   0.00000  Uiso   1.00
C593   C     0.83290   0.91323   0.25015   0.00000  Uiso   1.00
C594   C     0.81565   0.83857   0.48987   0.00000  Uiso   1.00
C595   C     0.83001   0.84251   0.43486   0.00000  Uiso   1.00
C596   C     0.85115   0.83358   0.01434   0.00000  Uiso   1.00
C597   C     0.89915   0.82465   0.48397   0.00000  Uiso   1.00
C598   C     0.91256   0.82855   0.42943   0.00000  Uiso   1.00
C599   C     0.87928   0.84493   0.40808   0.00000  Uiso   1.00
C600   C     0.84033   0.83836   0.06815   0.00000  Uiso   1.00
C601   C     0.92047   0.81816   0.06340   0.00000  Uiso   1.00
C602   C     0.79492   0.84268   0.40872   0.00000  Uiso   1.00
C603   C     0.85818   0.97789   0.27803   0.00000  Uiso   1.00
C604   C     0.80792   0.83639   0.35136   0.00000  Uiso   1.00
C605   C     0.85954   0.68750   0.27692   0.00000  Uiso   1.00
C606   C     0.83489   0.70927   0.24849   0.00000  Uiso   1.00
C607   C     0.80970   0.68884   0.22030   0.00000  Uiso   1.00
C608   C     0.80898   0.97920   0.22074   0.00000  Uiso   1.00
C609   C     0.83267   0.95744   0.25018   0.00000  Uiso   1.00
C610   C     0.98140   0.79825   0.23578   0.00000  Uiso   1.00
C611   C     0.69577   0.79826   0.23570   0.00000  Uiso   1.00
C612   C     0.68408   0.86914   0.26364   0.00000  Uiso   1.00
C613   C     0.96995   0.86816   0.26379   0.00000  Uiso   1.00
C614   C     0.83394   0.75345   0.24949   0.00000  Uiso   1.00
C615   C     0.85923   0.83283   0.14902   0.00000  Uiso   1.00
C616   C     0.93302   0.81557   0.00925   0.00000  Uiso   1.00
C617   C     0.87430   0.83037   0.09256   0.00000  Uiso   1.00
C618   C     0.74703   0.84572   0.43842   0.00000  Uiso   1.00
C619   C     0.73298   0.84428   0.49277   0.00000  Uiso   1.00
C620   C     0.76656   0.83921   0.01831   0.00000  Uiso   1.00
H621   H     0.94686   0.81116   0.08231   0.00000  Uiso   1.00
H622   H     0.87870   0.70368   0.29898   0.00000  Uiso   1.00
H623   H     0.79118   0.70607   0.19770   0.00000  Uiso   1.00
H624   H     0.79081   0.96309   0.19763   0.00000  Uiso   1.00
H625   H     0.96779   0.77000   0.22435   0.00000  Uiso   1.00
H626   H     0.71765   0.77003   0.22418   0.00000  Uiso   1.00
H627   H     0.94648   0.89546   0.27541   0.00000  Uiso   1.00
H628   H     0.96952   0.80748   0.48778   0.00000  Uiso   1.00
H629   H     0.80576   0.85004   0.09168   0.00000  Uiso   1.00
H630   H     0.72043   0.84829   0.41935   0.00000  Uiso   1.00
H631   H     0.75293   0.83476   0.06017   0.00000  Uiso   1.00
H632   H     0.69571   0.84562   0.01527   0.00000  Uiso   1.00
H633   H     0.89352   0.86022   0.37096   0.00000  Uiso   1.00
H634   H     0.87665   0.96069   0.30073   0.00000  Uiso   1.00
N635   N     0.71426   0.83334   0.25001   0.00000  Uiso   1.00
N636   N     0.95239   0.83331   0.25000   0.00000  Uiso   1.00
O637   O     0.79512   0.89442   0.25000   0.00000  Uiso   1.00
O638   O     0.87157   0.89441   0.25000   0.00000  Uiso   1.00
O639   O     0.77613   0.83333   0.32681   0.00000  Uiso   1.00
O640   O     0.85258   0.83332   0.32681   0.00000  Uiso   1.00
O641   O     0.79510   0.77226   0.24999   0.00000  Uiso   1.00
O642   O     0.87154   0.77225   0.24999   0.00000  Uiso   1.00
O643   O     0.81409   0.83335   0.17319   0.00000  Uiso   1.00
O644   O     0.89053   0.83334   0.17319   0.00000  Uiso   1.00
Zn645  Zn    0.78229   0.83334   0.25000   0.00000  Uiso   1.00
Zn646  Zn    0.88438   0.83333   0.25000   0.00000  Uiso   1.00
C647   C     0.69773   0.91206   0.27748   0.00000  Uiso   1.00
C648   C     0.70007   0.91477   0.33360   0.00000  Uiso   1.00
C649   C     0.70587   0.95984   0.34935   0.00000  Uiso   1.00
H650   H     0.67500   0.97988   0.34866   0.00000  Uiso   1.00
H651   H     0.70817   0.96045   0.38978   0.00000  Uiso   1.00
H652   H     0.73868   0.97289   0.32229   0.00000  Uiso   1.00
H653   H     0.66683   0.90298   0.36151   0.00000  Uiso   1.00
H654   H     0.72987   0.89552   0.33747   0.00000  Uiso   1.00
H655   H     0.72840   0.92358   0.24650   0.00000  Uiso   1.00
H656   H     0.67047   0.93609   0.27575   0.00000  Uiso   1.00
C657   C     0.96202   0.81763   0.39343   0.00000  Uiso   1.00
C658   C     0.97180   0.76990   0.38994   0.00000  Uiso   1.00
C659   C     0.69139   0.75915   0.36841   0.00000  Uiso   1.00
H660   H     0.70725   0.77377   0.32967   0.00000  Uiso   1.00
H661   H     0.70949   0.77044   0.39595   0.00000  Uiso   1.00
H662   H     0.69709   0.72463   0.36372   0.00000  Uiso   1.00
H663   H     0.95752   0.75520   0.42905   0.00000  Uiso   1.00
H664   H     0.95382   0.75582   0.36376   0.00000  Uiso   1.00
H665   H     0.96688   0.82877   0.35320   0.00000  Uiso   1.00
H666   H     0.98781   0.83431   0.40713   0.00000  Uiso   1.00
C667   C     0.16623   0.24657   0.75015   0.00000  Uiso   1.00
C668   C     0.14898   0.17190   0.98987   0.00000  Uiso   1.00
C669   C     0.16334   0.17584   0.93486   0.00000  Uiso   1.00
C670   C     0.18448   0.16691   0.51434   0.00000  Uiso   1.00
C671   C     0.23248   0.15798   0.98397   0.00000  Uiso   1.00
C672   C     0.24590   0.16189   0.92943   0.00000  Uiso   1.00
C673   C     0.21261   0.17826   0.90808   0.00000  Uiso   1.00
C674   C     0.17366   0.17170   0.56815   0.00000  Uiso   1.00
C675   C     0.25380   0.15150   0.56340   0.00000  Uiso   1.00
C676   C     0.12826   0.17601   0.90872   0.00000  Uiso   1.00
C677   C     0.19151   0.31123   0.77803   0.00000  Uiso   1.00
C678   C     0.14125   0.16973   0.85136   0.00000  Uiso   1.00
C679   C     0.19287   0.02083   0.77692   0.00000  Uiso   1.00
C680   C     0.16822   0.04261   0.74849   0.00000  Uiso   1.00
C681   C     0.14304   0.02217   0.72030   0.00000  Uiso   1.00
C682   C     0.14231   0.31253   0.72074   0.00000  Uiso   1.00
C683   C     0.16600   0.29077   0.75018   0.00000  Uiso   1.00
C684   C     0.31473   0.13158   0.73578   0.00000  Uiso   1.00
C685   C     0.02910   0.13159   0.73570   0.00000  Uiso   1.00
C686   C     0.01741   0.20247   0.76364   0.00000  Uiso   1.00
C687   C     0.30329   0.20150   0.76379   0.00000  Uiso   1.00
C688   C     0.16727   0.08679   0.74949   0.00000  Uiso   1.00
C689   C     0.19257   0.16617   0.64902   0.00000  Uiso   1.00
C690   C     0.26635   0.14890   0.50925   0.00000  Uiso   1.00
C691   C     0.20763   0.16370   0.59256   0.00000  Uiso   1.00
C692   C     0.08036   0.17906   0.93842   0.00000  Uiso   1.00
C693   C     0.06631   0.17762   0.99277   0.00000  Uiso   1.00
C694   C     0.09989   0.17254   0.51831   0.00000  Uiso   1.00
H695   H     0.28020   0.14450   0.58231   0.00000  Uiso   1.00
H696   H     0.21204   0.03701   0.79898   0.00000  Uiso   1.00
H697   H     0.12451   0.03941   0.69770   0.00000  Uiso   1.00
H698   H     0.12415   0.29642   0.69763   0.00000  Uiso   1.00
H699   H     0.30113   0.10333   0.72435   0.00000  Uiso   1.00
H700   H     0.05098   0.10336   0.72418   0.00000  Uiso   1.00
H701   H     0.27981   0.22879   0.77541   0.00000  Uiso   1.00
H702   H     0.30285   0.14081   0.98778   0.00000  Uiso   1.00
H703   H     0.13910   0.18337   0.59168   0.00000  Uiso   1.00
H704   H     0.05376   0.18163   0.91935   0.00000  Uiso   1.00
H705   H     0.08626   0.16809   0.56017   0.00000  Uiso   1.00
H706   H     0.02904   0.17895   0.51527   0.00000  Uiso   1.00
H707   H     0.22685   0.19355   0.87096   0.00000  Uiso   1.00
H708   H     0.20998   0.29402   0.80073   0.00000  Uiso   1.00
N709   N     0.04760   0.16668   0.75001   0.00000  Uiso   1.00
N710   N     0.28573   0.16665   0.75000   0.00000  Uiso   1.00
O711   O     0.12846   0.22775   0.75000   0.00000  Uiso   1.00
O712   O     0.20490   0.22774   0.75000   0.00000  Uiso   1.00
O713   O     0.10947   0.16666   0.82681   0.00000  Uiso   1.00
O714   O     0.18591   0.16665   0.82681   0.00000  Uiso   1.00
O715   O     0.12843   0.10559   0.74999   0.00000  Uiso   1.00
O716   O     0.20488   0.10558   0.74999   0.00000  Uiso   1.00
O717   O     0.14742   0.16668   0.67319   0.00000  Uiso   1.00
O718   O     0.22387   0.16667   0.67319   0.00000  Uiso   1.00
Zn719  Zn    0.11562   0.16667   0.75000   0.00000  Uiso   1.00
Zn720  Zn    0.21771   0.16666   0.75000   0.00000  Uiso   1.00
C721   C     0.03106   0.24539   0.77748   0.00000  Uiso   1.00
C722   C     0.03341   0.24811   0.83360   0.00000  Uiso   1.00
C723   C     0.03920   0.29317   0.84935   0.00000  Uiso   1.00
H724   H     0.00833   0.31321   0.84866   0.00000  Uiso   1.00
H725   H     0.04150   0.29378   0.88978   0.00000  Uiso   1.00
H726   H     0.07201   0.30622   0.82229   0.00000  Uiso   1.00
H727   H     0.00017   0.23631   0.86151   0.00000  Uiso   1.00
H728   H     0.06321   0.22885   0.83747   0.00000  Uiso   1.00
H729   H     0.06173   0.25691   0.74650   0.00000  Uiso   1.00
H730   H     0.00381   0.26942   0.77575   0.00000  Uiso   1.00
C731   C     0.29536   0.15096   0.89343   0.00000  Uiso   1.00
C732   C     0.30513   0.10323   0.88994   0.00000  Uiso   1.00
C733   C     0.02472   0.09249   0.86841   0.00000  Uiso   1.00
H734   H     0.04058   0.10710   0.82967   0.00000  Uiso   1.00
H735   H     0.04282   0.10377   0.89595   0.00000  Uiso   1.00
H736   H     0.03042   0.05796   0.86372   0.00000  Uiso   1.00
H737   H     0.29085   0.08853   0.92905   0.00000  Uiso   1.00
H738   H     0.28715   0.08915   0.86376   0.00000  Uiso   1.00
H739   H     0.30021   0.16210   0.85320   0.00000  Uiso   1.00
H740   H     0.32114   0.16764   0.90713   0.00000  Uiso   1.00
C741   C     0.49957   0.24657   0.75015   0.00000  Uiso   1.00
C742   C     0.48231   0.17190   0.98987   0.00000  Uiso   1.00
C743   C     0.49667   0.17584   0.93486   0.00000  Uiso   1.00
C744   C     0.51782   0.16691   0.51434   0.00000  Uiso   1.00
C745   C     0.56582   0.15798   0.98397   0.00000  Uiso   1.00
C746   C     0.57923   0.16189   0.92943   0.00000  Uiso   1.00
C747   C     0.54595   0.17826   0.90808   0.00000  Uiso   1.00
C748   C     0.50700   0.17170   0.56815   0.00000  Uiso   1.00
C749   C     0.58714   0.15150   0.56340   0.00000  Uiso   1.00
C750   C     0.46159   0.17601   0.90872   0.00000  Uiso   1.00
C751   C     0.52485   0.31123   0.77803   0.00000  Uiso   1.00
C752   C     0.47458   0.16973   0.85136   0.00000  Uiso   1.00
C753   C     0.52620   0.02083   0.77692   0.00000  Uiso   1.00
C754   C     0.50156   0.04261   0.74849   0.00000  Uiso   1.00
C755   C     0.47637   0.02217   0.72030   0.00000  Uiso   1.00
C756   C     0.47565   0.31253   0.72074   0.00000  Uiso   1.00
C757   C     0.49934   0.29077   0.75018   0.00000  Uiso   1.00
C758   C     0.64806   0.13158   0.73578   0.00000  Uiso   1.00
C759   C     0.36243   0.13159   0.73570   0.00000  Uiso   1.00
C760   C     0.35074   0.20247   0.76364   0.00000  Uiso   1.00
C761   C     0.63662   0.20150   0.76379   0.00000  Uiso   1.00
C762   C     0.50060   0.08679   0.74949   0.00000  Uiso   1.00
C763   C     0.52590   0.16617   0.64902   0.00000  Uiso   1.00
C764   C     0.59968   0.14890   0.50925   0.00000  Uiso   1.00
C765   C     0.54096   0.16370   0.59256   0.00000  Uiso   1.00
C766   C     0.41369   0.17906   0.93842   0.00000  Uiso   1.00
C767   C     0.39965   0.17762   0.99277   0.00000  Uiso   1.00
C768   C     0.43323   0.17254   0.51831   0.00000  Uiso   1.00
H769   H     0.61353   0.14450   0.58231   0.00000  Uiso   1.00
H770   H     0.54537   0.03701   0.79898   0.00000  Uiso   1.00
H771   H     0.45784   0.03941   0.69770   0.00000  Uiso   1.00
H772   H     0.45748   0.29642   0.69763   0.00000  Uiso   1.00
H773   H     0.63446   0.10333   0.72435   0.00000  Uiso   1.00
H774   H     0.38431   0.10336   0.72418   0.00000  Uiso   1.00
H775   H     0.61314   0.22879   0.77541   0.00000  Uiso   1.00
H776   H     0.63619   0.14081   0.98778   0.00000  Uiso   1.00
H777   H     0.47243   0.18337   0.59168   0.00000  Uiso   1.00
H778   H     0.38709   0.18163   0.91935   0.00000  Uiso   1.00
H779   H     0.41959   0.16809   0.56017   0.00000  Uiso   1.00
H780   H     0.36238   0.17895   0.51527   0.00000  Uiso   1.00
H781   H     0.56018   0.19355   0.87096   0.00000  Uiso   1.00
H782   H     0.54331   0.29402   0.80073   0.00000  Uiso   1.00
N783   N     0.38093   0.16668   0.75001   0.00000  Uiso   1.00
N784   N     0.61906   0.16665   0.75000   0.00000  Uiso   1.00
O785   O     0.46179   0.22775   0.75000   0.00000  Uiso   1.00
O786   O     0.53823   0.22774   0.75000   0.00000  Uiso   1.00
O787   O     0.44280   0.16666   0.82681   0.00000  Uiso   1.00
O788   O     0.51924   0.16665   0.82681   0.00000  Uiso   1.00
O789   O     0.46177   0.10559   0.74999   0.00000  Uiso   1.00
O790   O     0.53821   0.10558   0.74999   0.00000  Uiso   1.00
O791   O     0.48076   0.16668   0.67319   0.00000  Uiso   1.00
O792   O     0.55720   0.16667   0.67319   0.00000  Uiso   1.00
Zn793  Zn    0.44896   0.16667   0.75000   0.00000  Uiso   1.00
Zn794  Zn    0.55104   0.16666   0.75000   0.00000  Uiso   1.00
C795   C     0.36440   0.24539   0.77748   0.00000  Uiso   1.00
C796   C     0.36674   0.24811   0.83360   0.00000  Uiso   1.00
C797   C     0.37254   0.29317   0.84935   0.00000  Uiso   1.00
H798   H     0.34166   0.31321   0.84866   0.00000  Uiso   1.00
H799   H     0.37483   0.29378   0.88978   0.00000  Uiso   1.00
H800   H     0.40534   0.30622   0.82229   0.00000  Uiso   1.00
H801   H     0.33350   0.23631   0.86151   0.00000  Uiso   1.00
H802   H     0.39654   0.22885   0.83747   0.00000  Uiso   1.00
H803   H     0.39507   0.25691   0.74650   0.00000  Uiso   1.00
H804   H     0.33714   0.26942   0.77575   0.00000  Uiso   1.00
C805   C     0.62869   0.15096   0.89343   0.00000  Uiso   1.00
C806   C     0.63847   0.10323   0.88994   0.00000  Uiso   1.00
C807   C     0.35806   0.09249   0.86841   0.00000  Uiso   1.00
H808   H     0.37392   0.10710   0.82967   0.00000  Uiso   1.00
H809   H     0.37616   0.10377   0.89595   0.00000  Uiso   1.00
H810   H     0.36375   0.05796   0.86372   0.00000  Uiso   1.00
H811   H     0.62418   0.08853   0.92905   0.00000  Uiso   1.00
H812   H     0.62048   0.08915   0.86376   0.00000  Uiso   1.00
H813   H     0.63354   0.16210   0.85320   0.00000  Uiso   1.00
H814   H     0.65447   0.16764   0.90713   0.00000  Uiso   1.00
C815   C     0.83290   0.24657   0.75015   0.00000  Uiso   1.00
C816   C     0.81565   0.17190   0.98987   0.00000  Uiso   1.00
C817   C     0.83001   0.17584   0.93486   0.00000  Uiso   1.00
C818   C     0.85115   0.16691   0.51434   0.00000  Uiso   1.00
C819   C     0.89915   0.15798   0.98397   0.00000  Uiso   1.00
C820   C     0.91256   0.16189   0.92943   0.00000  Uiso   1.00
C821   C     0.87928   0.17826   0.90808   0.00000  Uiso   1.00
C822   C     0.84033   0.17170   0.56815   0.00000  Uiso   1.00
C823   C     0.92047   0.15150   0.56340   0.00000  Uiso   1.00
C824   C     0.79492   0.17601   0.90872   0.00000  Uiso   1.00
C825   C     0.85818   0.31123   0.77803   0.00000  Uiso   1.00
C826   C     0.80792   0.16973   0.85136   0.00000  Uiso   1.00
C827   C     0.85954   0.02083   0.77692   0.00000  Uiso   1.00
C828   C     0.83489   0.04261   0.74849   0.00000  Uiso   1.00
C829   C     0.80970   0.02217   0.72030   0.00000  Uiso   1.00
C830   C     0.80898   0.31253   0.72074   0.00000  Uiso   1.00
C831   C     0.83267   0.29077   0.75018   0.00000  Uiso   1.00
C832   C     0.98140   0.13158   0.73578   0.00000  Uiso   1.00
C833   C     0.69577   0.13159   0.73570   0.00000  Uiso   1.00
C834   C     0.68408   0.20247   0.76364   0.00000  Uiso   1.00
C835   C     0.96995   0.20150   0.76379   0.00000  Uiso   1.00
C836   C     0.83394   0.08679   0.74949   0.00000  Uiso   1.00
C837   C     0.85923   0.16617   0.64902   0.00000  Uiso   1.00
C838   C     0.93302   0.14890   0.50925   0.00000  Uiso   1.00
C839   C     0.87430   0.16370   0.59256   0.00000  Uiso   1.00
C840   C     0.74703   0.17906   0.93842   0.00000  Uiso   1.00
C841   C     0.73298   0.17762   0.99277   0.00000  Uiso   1.00
C842   C     0.76656   0.17254   0.51831   0.00000  Uiso   1.00
H843   H     0.94686   0.14450   0.58231   0.00000  Uiso   1.00
H844   H     0.87870   0.03701   0.79898   0.00000  Uiso   1.00
H845   H     0.79118   0.03941   0.69770   0.00000  Uiso   1.00
H846   H     0.79081   0.29642   0.69763   0.00000  Uiso   1.00
H847   H     0.96779   0.10333   0.72435   0.00000  Uiso   1.00
H848   H     0.71765   0.10336   0.72418   0.00000  Uiso   1.00
H849   H     0.94648   0.22879   0.77541   0.00000  Uiso   1.00
H850   H     0.96952   0.14081   0.98778   0.00000  Uiso   1.00
H851   H     0.80576   0.18337   0.59168   0.00000  Uiso   1.00
H852   H     0.72043   0.18163   0.91935   0.00000  Uiso   1.00
H853   H     0.75293   0.16809   0.56017   0.00000  Uiso   1.00
H854   H     0.69571   0.17895   0.51527   0.00000  Uiso   1.00
H855   H     0.89352   0.19355   0.87096   0.00000  Uiso   1.00
H856   H     0.87665   0.29402   0.80073   0.00000  Uiso   1.00
N857   N     0.71426   0.16668   0.75001   0.00000  Uiso   1.00
N858   N     0.95239   0.16665   0.75000   0.00000  Uiso   1.00
O859   O     0.79512   0.22775   0.75000   0.00000  Uiso   1.00
O860   O     0.87157   0.22774   0.75000   0.00000  Uiso   1.00
O861   O     0.77613   0.16666   0.82681   0.00000  Uiso   1.00
O862   O     0.85258   0.16665   0.82681   0.00000  Uiso   1.00
O863   O     0.79510   0.10559   0.74999   0.00000  Uiso   1.00
O864   O     0.87154   0.10558   0.74999   0.00000  Uiso   1.00
O865   O     0.81409   0.16668   0.67319   0.00000  Uiso   1.00
O866   O     0.89053   0.16667   0.67319   0.00000  Uiso   1.00
Zn867  Zn    0.78229   0.16667   0.75000   0.00000  Uiso   1.00
Zn868  Zn    0.88438   0.16666   0.75000   0.00000  Uiso   1.00
C869   C     0.69773   0.24539   0.77748   0.00000  Uiso   1.00
C870   C     0.70007   0.24811   0.83360   0.00000  Uiso   1.00
C871   C     0.70587   0.29317   0.84935   0.00000  Uiso   1.00
H872   H     0.67500   0.31321   0.84866   0.00000  Uiso   1.00
H873   H     0.70817   0.29378   0.88978   0.00000  Uiso   1.00
H874   H     0.73868   0.30622   0.82229   0.00000  Uiso   1.00
H875   H     0.66683   0.23631   0.86151   0.00000  Uiso   1.00
H876   H     0.72987   0.22885   0.83747   0.00000  Uiso   1.00
H877   H     0.72840   0.25691   0.74650   0.00000  Uiso   1.00
H878   H     0.67047   0.26942   0.77575   0.00000  Uiso   1.00
C879   C     0.96202   0.15096   0.89343   0.00000  Uiso   1.00
C880   C     0.97180   0.10323   0.88994   0.00000  Uiso   1.00
C881   C     0.69139   0.09249   0.86841   0.00000  Uiso   1.00
H882   H     0.70725   0.10710   0.82967   0.00000  Uiso   1.00
H883   H     0.70949   0.10377   0.89595   0.00000  Uiso   1.00
H884   H     0.69709   0.05796   0.86372   0.00000  Uiso   1.00
H885   H     0.95752   0.08853   0.92905   0.00000  Uiso   1.00
H886   H     0.95382   0.08915   0.86376   0.00000  Uiso   1.00
H887   H     0.96688   0.16210   0.85320   0.00000  Uiso   1.00
H888   H     0.98781   0.16764   0.90713   0.00000  Uiso   1.00
C889   C     0.16623   0.57990   0.75015   0.00000  Uiso   1.00
C890   C     0.14898   0.50523   0.98987   0.00000  Uiso   1.00
C891   C     0.16334   0.50918   0.93486   0.00000  Uiso   1.00
C892   C     0.18448   0.50025   0.51434   0.00000  Uiso   1.00
C893   C     0.23248   0.49131   0.98397   0.00000  Uiso   1.00
C894   C     0.24590   0.49522   0.92943   0.00000  Uiso   1.00
C895   C     0.21261   0.51159   0.90808   0.00000  Uiso   1.00
C896   C     0.17366   0.50503   0.56815   0.00000  Uiso   1.00
C897   C     0.25380   0.48483   0.56340   0.00000  Uiso   1.00
C898   C     0.12826   0.50934   0.90872   0.00000  Uiso   1.00
C899   C     0.19151   0.64456   0.77803   0.00000  Uiso   1.00
C900   C     0.14125   0.50306   0.85136   0.00000  Uiso   1.00
C901   C     0.19287   0.35417   0.77692   0.00000  Uiso   1.00
C902   C     0.16822   0.37594   0.74849   0.00000  Uiso   1.00
C903   C     0.14304   0.35550   0.72030   0.00000  Uiso   1.00
C904   C     0.14231   0.64587   0.72074   0.00000  Uiso   1.00
C905   C     0.16600   0.62410   0.75018   0.00000  Uiso   1.00
C906   C     0.31473   0.46492   0.73578   0.00000  Uiso   1.00
C907   C     0.02910   0.46493   0.73570   0.00000  Uiso   1.00
C908   C     0.01741   0.53580   0.76364   0.00000  Uiso   1.00
C909   C     0.30329   0.53483   0.76379   0.00000  Uiso   1.00
C910   C     0.16727   0.42012   0.74949   0.00000  Uiso   1.00
C911   C     0.19257   0.49950   0.64902   0.00000  Uiso   1.00
C912   C     0.26635   0.48223   0.50925   0.00000  Uiso   1.00
C913   C     0.20763   0.49703   0.59256   0.00000  Uiso   1.00
C914   C     0.08036   0.51239   0.93842   0.00000  Uiso   1.00
C915   C     0.06631   0.51095   0.99277   0.00000  Uiso   1.00
C916   C     0.09989   0.50588   0.51831   0.00000  Uiso   1.00
H917   H     0.28020   0.47783   0.58231   0.00000  Uiso   1.00
H918   H     0.21204   0.37034   0.79898   0.00000  Uiso   1.00
H919   H     0.12451   0.37274   0.69770   0.00000  Uiso   1.00
H920   H     0.12415   0.62975   0.69763   0.00000  Uiso   1.00
H921   H     0.30113   0.43666   0.72435   0.00000  Uiso   1.00
H922   H     0.05098   0.43670   0.72418   0.00000  Uiso   1.00
H923   H     0.27981   0.56212   0.77541   0.00000  Uiso   1.00
H924   H     0.30285   0.47415   0.98778   0.00000  Uiso   1.00
H925   H     0.13910   0.51671   0.59168   0.00000  Uiso   1.00
H926   H     0.05376   0.51496   0.91935   0.00000  Uiso   1.00
H927   H     0.08626   0.50143   0.56017   0.00000  Uiso   1.00
H928   H     0.02904   0.51228   0.51527   0.00000  Uiso   1.00
H929   H     0.22685   0.52688   0.87096   0.00000  Uiso   1.00
H930   H     0.20998   0.62736   0.80073   0.00000  Uiso   1.00
N931   N     0.04760   0.50001   0.75001   0.00000  Uiso   1.00
N932   N     0.28573   0.49998   0.75000   0.00000  Uiso   1.00
O933   O     0.12846   0.56108   0.75000   0.00000  Uiso   1.00
O934   O     0.20490   0.56107   0.75000   0.00000  Uiso   1.00
O935   O     0.10947   0.50000   0.82681   0.00000  Uiso   1.00
O936   O     0.18591   0.49999   0.82681   0.00000  Uiso   1.00
O937   O     0.12843   0.43893   0.74999   0.00000  Uiso   1.00
O938   O     0.20488   0.43892   0.74999   0.00000  Uiso   1.00
O939   O     0.14742   0.50001   0.67319   0.00000  Uiso   1.00
O940   O     0.22387   0.50000   0.67319   0.00000  Uiso   1.00
Zn941  Zn    0.11562   0.50001   0.75000   0.00000  Uiso   1.00
Zn942  Zn    0.21771   0.49999   0.75000   0.00000  Uiso   1.00
C943   C     0.03106   0.57872   0.77748   0.00000  Uiso   1.00
C944   C     0.03341   0.58144   0.83360   0.00000  Uiso   1.00
C945   C     0.03920   0.62651   0.84935   0.00000  Uiso   1.00
H946   H     0.00833   0.64654   0.84866   0.00000  Uiso   1.00
H947   H     0.04150   0.62711   0.88978   0.00000  Uiso   1.00
H948   H     0.07201   0.63955   0.82229   0.00000  Uiso   1.00
H949   H     0.00017   0.56964   0.86151   0.00000  Uiso   1.00
H950   H     0.06321   0.56218   0.83747   0.00000  Uiso   1.00
H951   H     0.06173   0.59024   0.74650   0.00000  Uiso   1.00
H952   H     0.00381   0.60275   0.77575   0.00000  Uiso   1.00
C953   C     0.29536   0.48429   0.89343   0.00000  Uiso   1.00
C954   C     0.30513   0.43656   0.88994   0.00000  Uiso   1.00
C955   C     0.02472   0.42582   0.86841   0.00000  Uiso   1.00
H956   H     0.04058   0.44043   0.82967   0.00000  Uiso   1.00
H957   H     0.04282   0.43711   0.89595   0.00000  Uiso   1.00
H958   H     0.03042   0.39129   0.86372   0.00000  Uiso   1.00
H959   H     0.29085   0.42186   0.92905   0.00000  Uiso   1.00
H960   H     0.28715   0.42248   0.86376   0.00000  Uiso   1.00
H961   H     0.30021   0.49544   0.85320   0.00000  Uiso   1.00
H962   H     0.32114   0.50098   0.90713   0.00000  Uiso   1.00
C963   C     0.49957   0.57990   0.75015   0.00000  Uiso   1.00
C964   C     0.48231   0.50523   0.98987   0.00000  Uiso   1.00
C965   C     0.49667   0.50918   0.93486   0.00000  Uiso   1.00
C966   C     0.51782   0.50025   0.51434   0.00000  Uiso   1.00
C967   C     0.56582   0.49131   0.98397   0.00000  Uiso   1.00
C968   C     0.57923   0.49522   0.92943   0.00000  Uiso   1.00
C969   C     0.54595   0.51159   0.90808   0.00000  Uiso   1.00
C970   C     0.50700   0.50503   0.56815   0.00000  Uiso   1.00
C971   C     0.58714   0.48483   0.56340   0.00000  Uiso   1.00
C972   C     0.46159   0.50934   0.90872   0.00000  Uiso   1.00
C973   C     0.52485   0.64456   0.77803   0.00000  Uiso   1.00
C974   C     0.47458   0.50306   0.85136   0.00000  Uiso   1.00
C975   C     0.52620   0.35417   0.77692   0.00000  Uiso   1.00
C976   C     0.50156   0.37594   0.74849   0.00000  Uiso   1.00
C977   C     0.47637   0.35550   0.72030   0.00000  Uiso   1.00
C978   C     0.47565   0.64587   0.72074   0.00000  Uiso   1.00
C979   C     0.49934   0.62410   0.75018   0.00000  Uiso   1.00
C980   C     0.64806   0.46492   0.73578   0.00000  Uiso   1.00
C981   C     0.36243   0.46493   0.73570   0.00000  Uiso   1.00
C982   C     0.35074   0.53580   0.76364   0.00000  Uiso   1.00
C983   C     0.63662   0.53483   0.76379   0.00000  Uiso   1.00
C984   C     0.50060   0.42012   0.74949   0.00000  Uiso   1.00
C985   C     0.52590   0.49950   0.64902   0.00000  Uiso   1.00
C986   C     0.59968   0.48223   0.50925   0.00000  Uiso   1.00
C987   C     0.54096   0.49703   0.59256   0.00000  Uiso   1.00
C988   C     0.41369   0.51239   0.93842   0.00000  Uiso   1.00
C989   C     0.39965   0.51095   0.99277   0.00000  Uiso   1.00
C990   C     0.43323   0.50588   0.51831   0.00000  Uiso   1.00
H991   H     0.61353   0.47783   0.58231   0.00000  Uiso   1.00
H992   H     0.54537   0.37034   0.79898   0.00000  Uiso   1.00
H993   H     0.45784   0.37274   0.69770   0.00000  Uiso   1.00
H994   H     0.45748   0.62975   0.69763   0.00000  Uiso   1.00
H995   H     0.63446   0.43666   0.72435   0.00000  Uiso   1.00
H996   H     0.38431   0.43670   0.72418   0.00000  Uiso   1.00
H997   H     0.61314   0.56212   0.77541   0.00000  Uiso   1.00
H998   H     0.63619   0.47415   0.98778   0.00000  Uiso   1.00
H999   H     0.47243   0.51671   0.59168   0.00000  Uiso   1.00
H1000  H     0.38709   0.51496   0.91935   0.00000  Uiso   1.00
H1001  H     0.41959   0.50143   0.56017   0.00000  Uiso   1.00
H1002  H     0.36238   0.51228   0.51527   0.00000  Uiso   1.00
H1003  H     0.56018   0.52688   0.87096   0.00000  Uiso   1.00
H1004  H     0.54331   0.62736   0.80073   0.00000  Uiso   1.00
N1005  N     0.38093   0.50001   0.75001   0.00000  Uiso   1.00
N1006  N     0.61906   0.49998   0.75000   0.00000  Uiso   1.00
O1007  O     0.46179   0.56108   0.75000   0.00000  Uiso   1.00
O1008  O     0.53823   0.56107   0.75000   0.00000  Uiso   1.00
O1009  O     0.44280   0.50000   0.82681   0.00000  Uiso   1.00
O1010  O     0.51924   0.49999   0.82681   0.00000  Uiso   1.00
O1011  O     0.46177   0.43893   0.74999   0.00000  Uiso   1.00
O1012  O     0.53821   0.43892   0.74999   0.00000  Uiso   1.00
O1013  O     0.48076   0.50001   0.67319   0.00000  Uiso   1.00
O1014  O     0.55720   0.50000   0.67319   0.00000  Uiso   1.00
Zn1015 Zn    0.44896   0.50001   0.75000   0.00000  Uiso   1.00
Zn1016 Zn    0.55104   0.49999   0.75000   0.00000  Uiso   1.00
C1017  C     0.36440   0.57872   0.77748   0.00000  Uiso   1.00
C1018  C     0.36674   0.58144   0.83360   0.00000  Uiso   1.00
C1019  C     0.37254   0.62651   0.84935   0.00000  Uiso   1.00
H1020  H     0.34166   0.64654   0.84866   0.00000  Uiso   1.00
H1021  H     0.37483   0.62711   0.88978   0.00000  Uiso   1.00
H1022  H     0.40534   0.63955   0.82229   0.00000  Uiso   1.00
H1023  H     0.33350   0.56964   0.86151   0.00000  Uiso   1.00
H1024  H     0.39654   0.56218   0.83747   0.00000  Uiso   1.00
H1025  H     0.39507   0.59024   0.74650   0.00000  Uiso   1.00
H1026  H     0.33714   0.60275   0.77575   0.00000  Uiso   1.00
C1027  C     0.62869   0.48429   0.89343   0.00000  Uiso   1.00
C1028  C     0.63847   0.43656   0.88994   0.00000  Uiso   1.00
C1029  C     0.35806   0.42582   0.86841   0.00000  Uiso   1.00
H1030  H     0.37392   0.44043   0.82967   0.00000  Uiso   1.00
H1031  H     0.37616   0.43711   0.89595   0.00000  Uiso   1.00
H1032  H     0.36375   0.39129   0.86372   0.00000  Uiso   1.00
H1033  H     0.62418   0.42186   0.92905   0.00000  Uiso   1.00
H1034  H     0.62048   0.42248   0.86376   0.00000  Uiso   1.00
H1035  H     0.63354   0.49544   0.85320   0.00000  Uiso   1.00
H1036  H     0.65447   0.50098   0.90713   0.00000  Uiso   1.00
C1037  C     0.83290   0.57990   0.75015   0.00000  Uiso   1.00
C1038  C     0.81565   0.50523   0.98987   0.00000  Uiso   1.00
C1039  C     0.83001   0.50918   0.93486   0.00000  Uiso   1.00
C1040  C     0.85115   0.50025   0.51434   0.00000  Uiso   1.00
C1041  C     0.89915   0.49131   0.98397   0.00000  Uiso   1.00
C1042  C     0.91256   0.49522   0.92943   0.00000  Uiso   1.00
C1043  C     0.87928   0.51159   0.90808   0.00000  Uiso   1.00
C1044  C     0.84033   0.50503   0.56815   0.00000  Uiso   1.00
C1045  C     0.92047   0.48483   0.56340   0.00000  Uiso   1.00
C1046  C     0.79492   0.50934   0.90872   0.00000  Uiso   1.00
C1047  C     0.85818   0.64456   0.77803   0.00000  Uiso   1.00
C1048  C     0.80792   0.50306   0.85136   0.00000  Uiso   1.00
C1049  C     0.85954   0.35417   0.77692   0.00000  Uiso   1.00
C1050  C     0.83489   0.37594   0.74849   0.00000  Uiso   1.00
C1051  C     0.80970   0.35550   0.72030   0.00000  Uiso   1.00
C1052  C     0.80898   0.64587   0.72074   0.00000  Uiso   1.00
C1053  C     0.83267   0.62410   0.75018   0.00000  Uiso   1.00
C1054  C     0.98140   0.46492   0.73578   0.00000  Uiso   1.00
C1055  C     0.69577   0.46493   0.73570   0.00000  Uiso   1.00
C1056  C     0.68408   0.53580   0.76364   0.00000  Uiso   1.00
C1057  C     0.96995   0.53483   0.76379   0.00000  Uiso   1.00
C1058  C     0.83394   0.42012   0.74949   0.00000  Uiso   1.00
C1059  C     0.85923   0.49950   0.64902   0.00000  Uiso   1.00
C1060  C     0.93302   0.48223   0.50925   0.00000  Uiso   1.00
C1061  C     0.87430   0.49703   0.59256   0.00000  Uiso   1.00
C1062  C     0.74703   0.51239   0.93842   0.00000  Uiso   1.00
C1063  C     0.73298   0.51095   0.99277   0.00000  Uiso   1.00
C1064  C     0.76656   0.50588   0.51831   0.00000  Uiso   1.00
H1065  H     0.94686   0.47783   0.58231   0.00000  Uiso   1.00
H1066  H     0.87870   0.37034   0.79898   0.00000  Uiso   1.00
H1067  H     0.79118   0.37274   0.69770   0.00000  Uiso   1.00
H1068  H     0.79081   0.62975   0.69763   0.00000  Uiso   1.00
H1069  H     0.96779   0.43666   0.72435   0.00000  Uiso   1.00
H1070  H     0.71765   0.43670   0.72418   0.00000  Uiso   1.00
H1071  H     0.94648   0.56212   0.77541   0.00000  Uiso   1.00
H1072  H     0.96952   0.47415   0.98778   0.00000  Uiso   1.00
H1073  H     0.80576   0.51671   0.59168   0.00000  Uiso   1.00
H1074  H     0.72043   0.51496   0.91935   0.00000  Uiso   1.00
H1075  H     0.75293   0.50143   0.56017   0.00000  Uiso   1.00
H1076  H     0.69571   0.51228   0.51527   0.00000  Uiso   1.00
H1077  H     0.89352   0.52688   0.87096   0.00000  Uiso   1.00
H1078  H     0.87665   0.62736   0.80073   0.00000  Uiso   1.00
N1079  N     0.71426   0.50001   0.75001   0.00000  Uiso   1.00
N1080  N     0.95239   0.49998   0.75000   0.00000  Uiso   1.00
O1081  O     0.79512   0.56108   0.75000   0.00000  Uiso   1.00
O1082  O     0.87157   0.56107   0.75000   0.00000  Uiso   1.00
O1083  O     0.77613   0.50000   0.82681   0.00000  Uiso   1.00
O1084  O     0.85258   0.49999   0.82681   0.00000  Uiso   1.00
O1085  O     0.79510   0.43893   0.74999   0.00000  Uiso   1.00
O1086  O     0.87154   0.43892   0.74999   0.00000  Uiso   1.00
O1087  O     0.81409   0.50001   0.67319   0.00000  Uiso   1.00
O1088  O     0.89053   0.50000   0.67319   0.00000  Uiso   1.00
Zn1089 Zn    0.78229   0.50001   0.75000   0.00000  Uiso   1.00
Zn1090 Zn    0.88438   0.49999   0.75000   0.00000  Uiso   1.00
C1091  C     0.69773   0.57872   0.77748   0.00000  Uiso   1.00
C1092  C     0.70007   0.58144   0.83360   0.00000  Uiso   1.00
C1093  C     0.70587   0.62651   0.84935   0.00000  Uiso   1.00
H1094  H     0.67500   0.64654   0.84866   0.00000  Uiso   1.00
H1095  H     0.70817   0.62711   0.88978   0.00000  Uiso   1.00
H1096  H     0.73868   0.63955   0.82229   0.00000  Uiso   1.00
H1097  H     0.66683   0.56964   0.86151   0.00000  Uiso   1.00
H1098  H     0.72987   0.56218   0.83747   0.00000  Uiso   1.00
H1099  H     0.72840   0.59024   0.74650   0.00000  Uiso   1.00
H1100  H     0.67047   0.60275   0.77575   0.00000  Uiso   1.00
C1101  C     0.96202   0.48429   0.89343   0.00000  Uiso   1.00
C1102  C     0.97180   0.43656   0.88994   0.00000  Uiso   1.00
C1103  C     0.69139   0.42582   0.86841   0.00000  Uiso   1.00
H1104  H     0.70725   0.44043   0.82967   0.00000  Uiso   1.00
H1105  H     0.70949   0.43711   0.89595   0.00000  Uiso   1.00
H1106  H     0.69709   0.39129   0.86372   0.00000  Uiso   1.00
H1107  H     0.95752   0.42186   0.92905   0.00000  Uiso   1.00
H1108  H     0.95382   0.42248   0.86376   0.00000  Uiso   1.00
H1109  H     0.96688   0.49544   0.85320   0.00000  Uiso   1.00
H1110  H     0.98781   0.50098   0.90713   0.00000  Uiso   1.00
C1111  C     0.16623   0.91323   0.75015   0.00000  Uiso   1.00
C1112  C     0.14898   0.83857   0.98987   0.00000  Uiso   1.00
C1113  C     0.16334   0.84251   0.93486   0.00000  Uiso   1.00
C1114  C     0.18448   0.83358   0.51434   0.00000  Uiso   1.00
C1115  C     0.23248   0.82465   0.98397   0.00000  Uiso   1.00
C1116  C     0.24590   0.82855   0.92943   0.00000  Uiso   1.00
C1117  C     0.21261   0.84493   0.90808   0.00000  Uiso   1.00
C1118  C     0.17366   0.83836   0.56815   0.00000  Uiso   1.00
C1119  C     0.25380   0.81816   0.56340   0.00000  Uiso   1.00
C1120  C     0.12826   0.84268   0.90872   0.00000  Uiso   1.00
C1121  C     0.19151   0.97789   0.77803   0.00000  Uiso   1.00
C1122  C     0.14125   0.83639   0.85136   0.00000  Uiso   1.00
C1123  C     0.19287   0.68750   0.77692   0.00000  Uiso   1.00
C1124  C     0.16822   0.70927   0.74849   0.00000  Uiso   1.00
C1125  C     0.14304   0.68884   0.72030   0.00000  Uiso   1.00
C1126  C     0.14231   0.97920   0.72074   0.00000  Uiso   1.00
C1127  C     0.16600   0.95744   0.75018   0.00000  Uiso   1.00
C1128  C     0.31473   0.79825   0.73578   0.00000  Uiso   1.00
C1129  C     0.02910   0.79826   0.73570   0.00000  Uiso   1.00
C1130  C     0.01741   0.86914   0.76364   0.00000  Uiso   1.00
C1131  C     0.30329   0.86816   0.76379   0.00000  Uiso   1.00
C1132  C     0.16727   0.75345   0.74949   0.00000  Uiso   1.00
C1133  C     0.19257   0.83283   0.64902   0.00000  Uiso   1.00
C1134  C     0.26635   0.81557   0.50925   0.00000  Uiso   1.00
C1135  C     0.20763   0.83037   0.59256   0.00000  Uiso   1.00
C1136  C     0.08036   0.84572   0.93842   0.00000  Uiso   1.00
C1137  C     0.06631   0.84428   0.99277   0.00000  Uiso   1.00
C1138  C     0.09989   0.83921   0.51831   0.00000  Uiso   1.00
H1139  H     0.28020   0.81116   0.58231   0.00000  Uiso   1.00
H1140  H     0.21204   0.70368   0.79898   0.00000  Uiso   1.00
H1141  H     0.12451   0.70607   0.69770   0.00000  Uiso   1.00
H1142  H     0.12415   0.96309   0.69763   0.00000  Uiso   1.00
H1143  H     0.30113   0.77000   0.72435   0.00000  Uiso   1.00
H1144  H     0.05098   0.77003   0.72418   0.00000  Uiso   1.00
H1145  H     0.27981   0.89546   0.77541   0.00000  Uiso   1.00
H1146  H     0.30285   0.80748   0.98778   0.00000  Uiso   1.00
H1147  H     0.13910   0.85004   0.59168   0.00000  Uiso   1.00
H1148  H     0.05376   0.84829   0.91935   0.00000  Uiso   1.00
H1149  H     0.08626   0.83476   0.56017   0.00000  Uiso   1.00
H1150  H     0.02904   0.84562   0.51527   0.00000  Uiso   1.00
H1151  H     0.22685   0.86022   0.87096   0.00000  Uiso   1.00
H1152  H     0.20998   0.96069   0.80073   0.00000  Uiso   1.00
N1153  N     0.04760   0.83334   0.75001   0.00000  Uiso   1.00
N1154  N     0.28573   0.83331   0.75000   0.00000  Uiso   1.00
O1155  O     0.12846   0.89442   0.75000   0.00000  Uiso   1.00
O1156  O     0.20490   0.89441   0.75000   0.00000  Uiso   1.00
O1157  O     0.10947   0.83333   0.82681   0.00000  Uiso   1.00
O1158  O     0.18591   0.83332   0.82681   0.00000  Uiso   1.00
O1159  O     0.12843   0.77226   0.74999   0.00000  Uiso   1.00
O1160  O     0.20488   0.77225   0.74999   0.00000  Uiso   1.00
O1161  O     0.14742   0.83335   0.67319   0.00000  Uiso   1.00
O1162  O     0.22387   0.83334   0.67319   0.00000  Uiso   1.00
Zn1163 Zn    0.11562   0.83334   0.75000   0.00000  Uiso   1.00
Zn1164 Zn    0.21771   0.83333   0.75000   0.00000  Uiso   1.00
C1165  C     0.03106   0.91206   0.77748   0.00000  Uiso   1.00
C1166  C     0.03341   0.91477   0.83360   0.00000  Uiso   1.00
C1167  C     0.03920   0.95984   0.84935   0.00000  Uiso   1.00
H1168  H     0.00833   0.97988   0.84866   0.00000  Uiso   1.00
H1169  H     0.04150   0.96045   0.88978   0.00000  Uiso   1.00
H1170  H     0.07201   0.97289   0.82229   0.00000  Uiso   1.00
H1171  H     0.00017   0.90298   0.86151   0.00000  Uiso   1.00
H1172  H     0.06321   0.89552   0.83747   0.00000  Uiso   1.00
H1173  H     0.06173   0.92358   0.74650   0.00000  Uiso   1.00
H1174  H     0.00381   0.93609   0.77575   0.00000  Uiso   1.00
C1175  C     0.29536   0.81763   0.89343   0.00000  Uiso   1.00
C1176  C     0.30513   0.76990   0.88994   0.00000  Uiso   1.00
C1177  C     0.02472   0.75915   0.86841   0.00000  Uiso   1.00
H1178  H     0.04058   0.77377   0.82967   0.00000  Uiso   1.00
H1179  H     0.04282   0.77044   0.89595   0.00000  Uiso   1.00
H1180  H     0.03042   0.72463   0.86372   0.00000  Uiso   1.00
H1181  H     0.29085   0.75520   0.92905   0.00000  Uiso   1.00
H1182  H     0.28715   0.75582   0.86376   0.00000  Uiso   1.00
H1183  H     0.30021   0.82877   0.85320   0.00000  Uiso   1.00
H1184  H     0.32114   0.83431   0.90713   0.00000  Uiso   1.00
C1185  C     0.49957   0.91323   0.75015   0.00000  Uiso   1.00
C1186  C     0.48231   0.83857   0.98987   0.00000  Uiso   1.00
C1187  C     0.49667   0.84251   0.93486   0.00000  Uiso   1.00
C1188  C     0.51782   0.83358   0.51434   0.00000  Uiso   1.00
C1189  C     0.56582   0.82465   0.98397   0.00000  Uiso   1.00
C1190  C     0.57923   0.82855   0.92943   0.00000  Uiso   1.00
C1191  C     0.54595   0.84493   0.90808   0.00000  Uiso   1.00
C1192  C     0.50700   0.83836   0.56815   0.00000  Uiso   1.00
C1193  C     0.58714   0.81816   0.56340   0.00000  Uiso   1.00
C1194  C     0.46159   0.84268   0.90872   0.00000  Uiso   1.00
C1195  C     0.52485   0.97789   0.77803   0.00000  Uiso   1.00
C1196  C     0.47458   0.83639   0.85136   0.00000  Uiso   1.00
C1197  C     0.52620   0.68750   0.77692   0.00000  Uiso   1.00
C1198  C     0.50156   0.70927   0.74849   0.00000  Uiso   1.00
C1199  C     0.47637   0.68884   0.72030   0.00000  Uiso   1.00
C1200  C     0.47565   0.97920   0.72074   0.00000  Uiso   1.00
C1201  C     0.49934   0.95744   0.75018   0.00000  Uiso   1.00
C1202  C     0.64806   0.79825   0.73578   0.00000  Uiso   1.00
C1203  C     0.36243   0.79826   0.73570   0.00000  Uiso   1.00
C1204  C     0.35074   0.86914   0.76364   0.00000  Uiso   1.00
C1205  C     0.63662   0.86816   0.76379   0.00000  Uiso   1.00
C1206  C     0.50060   0.75345   0.74949   0.00000  Uiso   1.00
C1207  C     0.52590   0.83283   0.64902   0.00000  Uiso   1.00
C1208  C     0.59968   0.81557   0.50925   0.00000  Uiso   1.00
C1209  C     0.54096   0.83037   0.59256   0.00000  Uiso   1.00
C1210  C     0.41369   0.84572   0.93842   0.00000  Uiso   1.00
C1211  C     0.39965   0.84428   0.99277   0.00000  Uiso   1.00
C1212  C     0.43323   0.83921   0.51831   0.00000  Uiso   1.00
H1213  H     0.61353   0.81116   0.58231   0.00000  Uiso   1.00
H1214  H     0.54537   0.70368   0.79898   0.00000  Uiso   1.00
H1215  H     0.45784   0.70607   0.69770   0.00000  Uiso   1.00
H1216  H     0.45748   0.96309   0.69763   0.00000  Uiso   1.00
H1217  H     0.63446   0.77000   0.72435   0.00000  Uiso   1.00
H1218  H     0.38431   0.77003   0.72418   0.00000  Uiso   1.00
H1219  H     0.61314   0.89546   0.77541   0.00000  Uiso   1.00
H1220  H     0.63619   0.80748   0.98778   0.00000  Uiso   1.00
H1221  H     0.47243   0.85004   0.59168   0.00000  Uiso   1.00
H1222  H     0.38709   0.84829   0.91935   0.00000  Uiso   1.00
H1223  H     0.41959   0.83476   0.56017   0.00000  Uiso   1.00
H1224  H     0.36238   0.84562   0.51527   0.00000  Uiso   1.00
H1225  H     0.56018   0.86022   0.87096   0.00000  Uiso   1.00
H1226  H     0.54331   0.96069   0.80073   0.00000  Uiso   1.00
N1227  N     0.38093   0.83334   0.75001   0.00000  Uiso   1.00
N1228  N     0.61906   0.83331   0.75000   0.00000  Uiso   1.00
O1229  O     0.46179   0.89442   0.75000   0.00000  Uiso   1.00
O1230  O     0.53823   0.89441   0.75000   0.00000  Uiso   1.00
O1231  O     0.44280   0.83333   0.82681   0.00000  Uiso   1.00
O1232  O     0.51924   0.83332   0.82681   0.00000  Uiso   1.00
O1233  O     0.46177   0.77226   0.74999   0.00000  Uiso   1.00
O1234  O     0.53821   0.77225   0.74999   0.00000  Uiso   1.00
O1235  O     0.48076   0.83335   0.67319   0.00000  Uiso   1.00
O1236  O     0.55720   0.83334   0.67319   0.00000  Uiso   1.00
Zn1237 Zn    0.44896   0.83334   0.75000   0.00000  Uiso   1.00
Zn1238 Zn    0.55104   0.83333   0.75000   0.00000  Uiso   1.00
C1239  C     0.36440   0.91206   0.77748   0.00000  Uiso   1.00
C1240  C     0.36674   0.91477   0.83360   0.00000  Uiso   1.00
C1241  C     0.37254   0.95984   0.84935   0.00000  Uiso   1.00
H1242  H     0.34166   0.97988   0.84866   0.00000  Uiso   1.00
H1243  H     0.37483   0.96045   0.88978   0.00000  Uiso   1.00
H1244  H     0.40534   0.97289   0.82229   0.00000  Uiso   1.00
H1245  H     0.33350   0.90298   0.86151   0.00000  Uiso   1.00
H1246  H     0.39654   0.89552   0.83747   0.00000  Uiso   1.00
H1247  H     0.39507   0.92358   0.74650   0.00000  Uiso   1.00
H1248  H     0.33714   0.93609   0.77575   0.00000  Uiso   1.00
C1249  C     0.62869   0.81763   0.89343   0.00000  Uiso   1.00
C1250  C     0.63847   0.76990   0.88994   0.00000  Uiso   1.00
C1251  C     0.35806   0.75915   0.86841   0.00000  Uiso   1.00
H1252  H     0.37392   0.77377   0.82967   0.00000  Uiso   1.00
H1253  H     0.37616   0.77044   0.89595   0.00000  Uiso   1.00
H1254  H     0.36375   0.72463   0.86372   0.00000  Uiso   1.00
H1255  H     0.62418   0.75520   0.92905   0.00000  Uiso   1.00
H1256  H     0.62048   0.75582   0.86376   0.00000  Uiso   1.00
H1257  H     0.63354   0.82877   0.85320   0.00000  Uiso   1.00
H1258  H     0.65447   0.83431   0.90713   0.00000  Uiso   1.00
C1259  C     0.83290   0.91323   0.75015   0.00000  Uiso   1.00
C1260  C     0.81565   0.83857   0.98987   0.00000  Uiso   1.00
C1261  C     0.83001   0.84251   0.93486   0.00000  Uiso   1.00
C1262  C     0.85115   0.83358   0.51434   0.00000  Uiso   1.00
C1263  C     0.89915   0.82465   0.98397   0.00000  Uiso   1.00
C1264  C     0.91256   0.82855   0.92943   0.00000  Uiso   1.00
C1265  C     0.87928   0.84493   0.90808   0.00000  Uiso   1.00
C1266  C     0.84033   0.83836   0.56815   0.00000  Uiso   1.00
C1267  C     0.92047   0.81816   0.56340   0.00000  Uiso   1.00
C1268  C     0.79492   0.84268   0.90872   0.00000  Uiso   1.00
C1269  C     0.85818   0.97789   0.77803   0.00000  Uiso   1.00
C1270  C     0.80792   0.83639   0.85136   0.00000  Uiso   1.00
C1271  C     0.85954   0.68750   0.77692   0.00000  Uiso   1.00
C1272  C     0.83489   0.70927   0.74849   0.00000  Uiso   1.00
C1273  C     0.80970   0.68884   0.72030   0.00000  Uiso   1.00
C1274  C     0.80898   0.97920   0.72074   0.00000  Uiso   1.00
C1275  C     0.83267   0.95744   0.75018   0.00000  Uiso   1.00
C1276  C     0.98140   0.79825   0.73578   0.00000  Uiso   1.00
C1277  C     0.69577   0.79826   0.73570   0.00000  Uiso   1.00
C1278  C     0.68408   0.86914   0.76364   0.00000  Uiso   1.00
C1279  C     0.96995   0.86816   0.76379   0.00000  Uiso   1.00
C1280  C     0.83394   0.75345   0.74949   0.00000  Uiso   1.00
C1281  C     0.85923   0.83283   0.64902   0.00000  Uiso   1.00
C1282  C     0.93302   0.81557   0.50925   0.00000  Uiso   1.00
C1283  C     0.87430   0.83037   0.59256   0.00000  Uiso   1.00
C1284  C     0.74703   0.84572   0.93842   0.00000  Uiso   1.00
C1285  C     0.73298   0.84428   0.99277   0.00000  Uiso   1.00
C1286  C     0.76656   0.83921   0.51831   0.00000  Uiso   1.00
H1287  H     0.94686   0.81116   0.58231   0.00000  Uiso   1.00
H1288  H     0.87870   0.70368   0.79898   0.00000  Uiso   1.00
H1289  H     0.79118   0.70607   0.69770   0.00000  Uiso   1.00
H1290  H     0.79081   0.96309   0.69763   0.00000  Uiso   1.00
H1291  H     0.96779   0.77000   0.72435   0.00000  Uiso   1.00
H1292  H     0.71765   0.77003   0.72418   0.00000  Uiso   1.00
H1293  H     0.94648   0.89546   0.77541   0.00000  Uiso   1.00
H1294  H     0.96952   0.80748   0.98778   0.00000  Uiso   1.00
H1295  H     0.80576   0.85004   0.59168   0.00000  Uiso   1.00
H1296  H     0.72043   0.84829   0.91935   0.00000  Uiso   1.00
H1297  H     0.75293   0.83476   0.56017   0.00000  Uiso   1.00
H1298  H     0.69571   0.84562   0.51527   0.00000  Uiso   1.00
H1299  H     0.89352   0.86022   0.87096   0.00000  Uiso   1.00
H1300  H     0.87665   0.96069   0.80073   0.00000  Uiso   1.00
N1301  N     0.71426   0.83334   0.75001   0.00000  Uiso   1.00
N1302  N     0.95239   0.83331   0.75000   0.00000  Uiso   1.00
O1303  O     0.79512   0.89442   0.75000   0.00000  Uiso   1.00
O1304  O     0.87157   0.89441   0.75000   0.00000  Uiso   1.00
O1305  O     0.77613   0.83333   0.82681   0.00000  Uiso   1.00
O1306  O     0.85258   0.83332   0.82681   0.00000  Uiso   1.00
O1307  O     0.79510   0.77226   0.74999   0.00000  Uiso   1.00
O1308  O     0.87154   0.77225   0.74999   0.00000  Uiso   1.00
O1309  O     0.81409   0.83335   0.67319   0.00000  Uiso   1.00
O1310  O     0.89053   0.83334   0.67319   0.00000  Uiso   1.00
Zn1311 Zn    0.78229   0.83334   0.75000   0.00000  Uiso   1.00
Zn1312 Zn    0.88438   0.83333   0.75000   0.00000  Uiso   1.00
C1313  C     0.69773   0.91206   0.77748   0.00000  Uiso   1.00
C1314  C     0.70007   0.91477   0.83360   0.00000  Uiso   1.00
C1315  C     0.70587   0.95984   0.84935   0.00000  Uiso   1.00
H1316  H     0.67500   0.97988   0.84866   0.00000  Uiso   1.00
H1317  H     0.70817   0.96045   0.88978   0.00000  Uiso   1.00
H1318  H     0.73868   0.97289   0.82229   0.00000  Uiso   1.00
H1319  H     0.66683   0.90298   0.86151   0.00000  Uiso   1.00
H1320  H     0.72987   0.89552   0.83747   0.00000  Uiso   1.00
H1321  H     0.72840   0.92358   0.74650   0.00000  Uiso   1.00
H1322  H     0.67047   0.93609   0.77575   0.00000  Uiso   1.00
C1323  C     0.96202   0.81763   0.89343   0.00000  Uiso   1.00
C1324  C     0.97180   0.76990   0.88994   0.00000  Uiso   1.00
C1325  C     0.69139   0.75915   0.86841   0.00000  Uiso   1.00
H1326  H     0.70725   0.77377   0.82967   0.00000  Uiso   1.00
H1327  H     0.70949   0.77044   0.89595   0.00000  Uiso   1.00
H1328  H     0.69709   0.72463   0.86372   0.00000  Uiso   1.00
H1329  H     0.95752   0.75520   0.92905   0.00000  Uiso   1.00
H1330  H     0.95382   0.75582   0.86376   0.00000  Uiso   1.00
H1331  H     0.96688   0.82877   0.85320   0.00000  Uiso   1.00
H1332  H     0.98781   0.83431   0.90713   0.00000  Uiso   1.00
loop_
_geom_bond_atom_site_label_1
_geom_bond_atom_site_label_2
_geom_bond_distance
_geom_bond_site_symmetry_2
_ccdc_geom_bond_type
C1     O45     1.292   .     A
C1     O46     1.284   .     A
C1     C17     1.409   .     S
C2     C3      1.409   .     A
C2     C670    1.419   .     S
C2     C694    1.418   .     S
C3     C10     1.434   .     A
C3     C7      1.419   .     A
C4     C8      1.384   .     A
C4     C668    1.419   1_554 S
C4     C671    1.423   1_554 S
C5     C6      1.398   .     A
C5     C670    1.423   .     S
C5     C690    1.410   .     S
C6     C7      1.387   .     A
C6     C65     1.513   .     S
C7     H41     1.076   .     S
C8     C25     1.390   .     A
C8     H37     1.078   .     S
C9     C24     1.384   .     A
C9     H29     1.083   .     S
C9     C25     1.393   .     A
C10    C26     1.396   .     A
C10    C12     1.476   .     S
C11    H42     1.084   .     S
C11    C17     1.398   .     A
C11    C235    1.371   .     S
C12    O47     1.322   .     A
C12    O48     1.284   .     A
C13    C14     1.393   .     A
C13    H30     1.084   .     S
C13    C455    1.371   1_545 S
C14    C22     1.408   .     S
C14    C15     1.397   .     A
C15    H31     1.084   .     S
C15    C460    1.371   1_545 S
C16    H32     1.083   .     S
C16    C17     1.393   .     A
C16    C237    1.371   .     S
C18    N44     1.370   .     A
C18    H33     1.081   .     S
C18    C93     1.422   .     S
C19    N43     1.368   .     A
C19    H34     1.081   .     S
C19    C166    1.422   1_455 S
C20    C55     1.517   .     S
C20    N43     1.406   .     A
C20    C169    1.415   1_455 S
C21    H35     1.081   .     S
C21    N44     1.342   .     A
C21    C94     1.415   .     S
C22    O50     1.290   .     A
C22    O49     1.285   .     A
C23    O51     1.294   .     A
C23    C25     1.440   .     S
C23    O52     1.297   .     A
C24    C671    1.410   1_554 S
C24    H702    1.080   1_554 S
C26    H38     1.075   .     S
C26    C27     1.386   .     A
C27    C694    1.389   .     S
C27    H706    1.082   .     S
C28    H39     1.078   .     S
C28    C668    1.418   1_554 S
C28    C693    1.389   1_554 S
H36    C690    1.080   .     S
H40    C693    1.082   1_554 S
N43    Zn53    2.028   .     S
N44    Zn54    2.028   .     S
O45    Zn53    1.996   .     S
O46    Zn54    1.974   .     S
O47    Zn53    2.013   .     S
O48    Zn54    1.977   .     S
O49    Zn53    1.974   .     S
O50    Zn54    1.996   .     S
O51    Zn53    1.977   .     S
O52    Zn54    2.013   .     S
C55    C56     1.534   .     S
C55    H64     1.113   .     S
C55    H63     1.095   .     S
C56    C57     1.527   .     S
C56    H62     1.098   .     S
C56    H61     1.111   .     S
C57    H59     1.110   .     S
C57    H60     1.109   .     S
C57    H58     1.111   .     S
C65    C66     1.539   .     S
C65    H73     1.105   .     S
C65    H74     1.101   .     S
C66    H71     1.111   .     S
C66    H72     1.112   .     S
C66    C141    1.526   .     S
C67    H70     1.110   .     S
C67    H68     1.107   .     S
C67    H69     1.110   .     S
C67    C214    1.526   1_455 S
C75    O119    1.292   .     A
C75    O120    1.284   .     A
C75    C91     1.409   .     S
C76    C77     1.409   .     A
C76    C744    1.419   .     S
C76    C768    1.418   .     S
C77    C84     1.434   .     A
C77    C81     1.419   .     A
C78    C82     1.384   .     A
C78    C742    1.419   1_554 S
C78    C745    1.423   1_554 S
C79    C80     1.398   .     A
C79    C744    1.423   .     S
C79    C764    1.410   .     S
C80    C81     1.387   .     A
C80    C139    1.513   .     S
C81    H115    1.076   .     S
C82    C99     1.390   .     A
C82    H111    1.078   .     S
C83    C98     1.384   .     A
C83    H103    1.083   .     S
C83    C99     1.393   .     A
C84    C100    1.396   .     A
C84    C86     1.476   .     S
C85    H116    1.084   .     S
C85    C91     1.398   .     A
C85    C309    1.371   .     S
C86    O121    1.322   .     A
C86    O122    1.284   .     A
C87    C88     1.393   .     A
C87    H104    1.084   .     S
C87    C529    1.371   1_545 S
C88    C96     1.408   .     S
C88    C89     1.397   .     A
C89    H105    1.084   .     S
C89    C534    1.371   1_545 S
C90    H106    1.083   .     S
C90    C91     1.393   .     A
C90    C311    1.371   .     S
C92    N118    1.370   .     A
C92    H107    1.081   .     S
C92    C167    1.422   .     S
C93    N117    1.368   .     A
C93    H108    1.081   .     S
C94    C129    1.517   .     S
C94    N117    1.406   .     A
C95    H109    1.081   .     S
C95    N118    1.342   .     A
C95    C168    1.415   .     S
C96    O124    1.290   .     A
C96    O123    1.285   .     A
C97    O125    1.294   .     A
C97    C99     1.440   .     S
C97    O126    1.297   .     A
C98    C745    1.410   1_554 S
C98    H776    1.080   1_554 S
C100   H112    1.075   .     S
C100   C101    1.386   .     A
C101   C768    1.389   .     S
C101   H780    1.082   .     S
C102   H113    1.078   .     S
C102   C742    1.418   1_554 S
C102   C767    1.389   1_554 S
H110   C764    1.080   .     S
H114   C767    1.082   1_554 S
N117   Zn127   2.028   .     S
N118   Zn128   2.028   .     S
O119   Zn127   1.996   .     S
O120   Zn128   1.974   .     S
O121   Zn127   2.013   .     S
O122   Zn128   1.977   .     S
O123   Zn127   1.974   .     S
O124   Zn128   1.996   .     S
O125   Zn127   1.977   .     S
O126   Zn128   2.013   .     S
C129   C130    1.534   .     S
C129   H138    1.113   .     S
C129   H137    1.095   .     S
C130   C131    1.527   .     S
C130   H136    1.098   .     S
C130   H135    1.111   .     S
C131   H133    1.110   .     S
C131   H134    1.109   .     S
C131   H132    1.111   .     S
C139   C140    1.539   .     S
C139   H147    1.105   .     S
C139   H148    1.101   .     S
C140   H145    1.111   .     S
C140   H146    1.112   .     S
C140   C215    1.526   .     S
C141   H144    1.110   .     S
C141   H142    1.107   .     S
C141   H143    1.110   .     S
C149   O193    1.292   .     A
C149   O194    1.284   .     A
C149   C165    1.409   .     S
C150   C151    1.409   .     A
C150   C818    1.419   .     S
C150   C842    1.418   .     S
C151   C158    1.434   .     A
C151   C155    1.419   .     A
C152   C156    1.384   .     A
C152   C816    1.419   1_554 S
C152   C819    1.423   1_554 S
C153   C154    1.398   .     A
C153   C818    1.423   .     S
C153   C838    1.410   .     S
C154   C155    1.387   .     A
C154   C213    1.513   .     S
C155   H189    1.076   .     S
C156   C173    1.390   .     A
C156   H185    1.078   .     S
C157   C172    1.384   .     A
C157   H177    1.083   .     S
C157   C173    1.393   .     A
C158   C174    1.396   .     A
C158   C160    1.476   .     S
C159   H190    1.084   .     S
C159   C165    1.398   .     A
C159   C383    1.371   .     S
C160   O195    1.322   .     A
C160   O196    1.284   .     A
C161   C162    1.393   .     A
C161   H178    1.084   .     S
C161   C603    1.371   1_545 S
C162   C170    1.408   .     S
C162   C163    1.397   .     A
C163   H179    1.084   .     S
C163   C608    1.371   1_545 S
C164   H180    1.083   .     S
C164   C165    1.393   .     A
C164   C385    1.371   .     S
C166   N192    1.370   .     A
C166   H181    1.081   .     S
C166   C19     1.422   1_655 S
C167   N191    1.368   .     A
C167   H182    1.081   .     S
C168   C203    1.517   .     S
C168   N191    1.406   .     A
C169   H183    1.081   .     S
C169   N192    1.342   .     A
C169   C20     1.415   1_655 S
C170   O198    1.290   .     A
C170   O197    1.285   .     A
C171   O199    1.294   .     A
C171   C173    1.440   .     S
C171   O200    1.297   .     A
C172   C819    1.410   1_554 S
C172   H850    1.080   1_554 S
C174   H186    1.075   .     S
C174   C175    1.386   .     A
C175   C842    1.389   .     S
C175   H854    1.082   .     S
C176   H187    1.078   .     S
C176   C816    1.418   1_554 S
C176   C841    1.389   1_554 S
H184   C838    1.080   .     S
H188   C841    1.082   1_554 S
N191   Zn201   2.028   .     S
N192   Zn202   2.028   .     S
O193   Zn201   1.996   .     S
O194   Zn202   1.974   .     S
O195   Zn201   2.013   .     S
O196   Zn202   1.977   .     S
O197   Zn201   1.974   .     S
O198   Zn202   1.996   .     S
O199   Zn201   1.977   .     S
O200   Zn202   2.013   .     S
C203   C204    1.534   .     S
C203   H212    1.113   .     S
C203   H211    1.095   .     S
C204   C205    1.527   .     S
C204   H210    1.098   .     S
C204   H209    1.111   .     S
C205   H207    1.110   .     S
C205   H208    1.109   .     S
C205   H206    1.111   .     S
C213   C214    1.539   .     S
C213   H221    1.105   .     S
C213   H222    1.101   .     S
C214   H219    1.111   .     S
C214   H220    1.112   .     S
C214   C67     1.526   1_655 S
C215   H218    1.110   .     S
C215   H216    1.107   .     S
C215   H217    1.110   .     S
C223   O267    1.292   .     A
C223   O268    1.284   .     A
C223   C239    1.409   .     S
C224   C225    1.409   .     A
C224   C892    1.419   .     S
C224   C916    1.418   .     S
C225   C232    1.434   .     A
C225   C229    1.419   .     A
C226   C230    1.384   .     A
C226   C890    1.419   1_554 S
C226   C893    1.423   1_554 S
C227   C228    1.398   .     A
C227   C892    1.423   .     S
C227   C912    1.410   .     S
C228   C229    1.387   .     A
C228   C287    1.513   .     S
C229   H263    1.076   .     S
C230   C247    1.390   .     A
C230   H259    1.078   .     S
C231   C246    1.384   .     A
C231   H251    1.083   .     S
C231   C247    1.393   .     A
C232   C248    1.396   .     A
C232   C234    1.476   .     S
C233   H264    1.084   .     S
C233   C239    1.398   .     A
C233   C457    1.371   .     S
C234   O269    1.322   .     A
C234   O270    1.284   .     A
C235   C236    1.393   .     A
C235   H252    1.084   .     S
C236   C244    1.408   .     S
C236   C237    1.397   .     A
C237   H253    1.084   .     S
C238   H254    1.083   .     S
C238   C239    1.393   .     A
C238   C459    1.371   .     S
C240   N266    1.370   .     A
C240   H255    1.081   .     S
C240   C315    1.422   .     S
C241   N265    1.368   .     A
C241   H256    1.081   .     S
C241   C388    1.422   1_455 S
C242   C277    1.517   .     S
C242   N265    1.406   .     A
C242   C391    1.415   1_455 S
C243   H257    1.081   .     S
C243   N266    1.342   .     A
C243   C316    1.415   .     S
C244   O272    1.290   .     A
C244   O271    1.285   .     A
C245   O273    1.294   .     A
C245   C247    1.440   .     S
C245   O274    1.297   .     A
C246   C893    1.410   1_554 S
C246   H924    1.080   1_554 S
C248   H260    1.075   .     S
C248   C249    1.386   .     A
C249   C916    1.389   .     S
C249   H928    1.082   .     S
C250   H261    1.078   .     S
C250   C890    1.418   1_554 S
C250   C915    1.389   1_554 S
H258   C912    1.080   .     S
H262   C915    1.082   1_554 S
N265   Zn275   2.028   .     S
N266   Zn276   2.028   .     S
O267   Zn275   1.996   .     S
O268   Zn276   1.974   .     S
O269   Zn275   2.013   .     S
O270   Zn276   1.977   .     S
O271   Zn275   1.974   .     S
O272   Zn276   1.996   .     S
O273   Zn275   1.977   .     S
O274   Zn276   2.013   .     S
C277   C278    1.534   .     S
C277   H286    1.113   .     S
C277   H285    1.095   .     S
C278   C279    1.527   .     S
C278   H284    1.098   .     S
C278   H283    1.111   .     S
C279   H281    1.110   .     S
C279   H282    1.109   .     S
C279   H280    1.111   .     S
C287   C288    1.539   .     S
C287   H295    1.105   .     S
C287   H296    1.101   .     S
C288   H293    1.111   .     S
C288   H294    1.112   .     S
C288   C363    1.526   .     S
C289   H292    1.110   .     S
C289   H290    1.107   .     S
C289   H291    1.110   .     S
C289   C436    1.526   1_455 S
C297   O341    1.292   .     A
C297   O342    1.284   .     A
C297   C313    1.409   .     S
C298   C299    1.409   .     A
C298   C966    1.419   .     S
C298   C990    1.418   .     S
C299   C306    1.434   .     A
C299   C303    1.419   .     A
C300   C304    1.384   .     A
C300   C964    1.419   1_554 S
C300   C967    1.423   1_554 S
C301   C302    1.398   .     A
C301   C966    1.423   .     S
C301   C986    1.410   .     S
C302   C303    1.387   .     A
C302   C361    1.513   .     S
C303   H337    1.076   .     S
C304   C321    1.390   .     A
C304   H333    1.078   .     S
C305   C320    1.384   .     A
C305   H325    1.083   .     S
C305   C321    1.393   .     A
C306   C322    1.396   .     A
C306   C308    1.476   .     S
C307   H338    1.084   .     S
C307   C313    1.398   .     A
C307   C531    1.371   .     S
C308   O343    1.322   .     A
C308   O344    1.284   .     A
C309   C310    1.393   .     A
C309   H326    1.084   .     S
C310   C318    1.408   .     S
C310   C311    1.397   .     A
C311   H327    1.084   .     S
C312   H328    1.083   .     S
C312   C313    1.393   .     A
C312   C533    1.371   .     S
C314   N340    1.370   .     A
C314   H329    1.081   .     S
C314   C389    1.422   .     S
C315   N339    1.368   .     A
C315   H330    1.081   .     S
C316   C351    1.517   .     S
C316   N339    1.406   .     A
C317   H331    1.081   .     S
C317   N340    1.342   .     A
C317   C390    1.415   .     S
C318   O346    1.290   .     A
C318   O345    1.285   .     A
C319   O347    1.294   .     A
C319   C321    1.440   .     S
C319   O348    1.297   .     A
C320   C967    1.410   1_554 S
C320   H998    1.080   1_554 S
C322   H334    1.075   .     S
C322   C323    1.386   .     A
C323   C990    1.389   .     S
C323   H1002   1.082   .     S
C324   H335    1.078   .     S
C324   C964    1.418   1_554 S
C324   C989    1.389   1_554 S
H332   C986    1.080   .     S
H336   C989    1.082   1_554 S
N339   Zn349   2.028   .     S
N340   Zn350   2.028   .     S
O341   Zn349   1.996   .     S
O342   Zn350   1.974   .     S
O343   Zn349   2.013   .     S
O344   Zn350   1.977   .     S
O345   Zn349   1.974   .     S
O346   Zn350   1.996   .     S
O347   Zn349   1.977   .     S
O348   Zn350   2.013   .     S
C351   C352    1.534   .     S
C351   H360    1.113   .     S
C351   H359    1.095   .     S
C352   C353    1.527   .     S
C352   H358    1.098   .     S
C352   H357    1.111   .     S
C353   H355    1.110   .     S
C353   H356    1.109   .     S
C353   H354    1.111   .     S
C361   C362    1.539   .     S
C361   H369    1.105   .     S
C361   H370    1.101   .     S
C362   H367    1.111   .     S
C362   H368    1.112   .     S
C362   C437    1.526   .     S
C363   H366    1.110   .     S
C363   H364    1.107   .     S
C363   H365    1.110   .     S
C371   O415    1.292   .     A
C371   O416    1.284   .     A
C371   C387    1.409   .     S
C372   C373    1.409   .     A
C372   C1040   1.419   .     S
C372   C1064   1.418   .     S
C373   C380    1.434   .     A
C373   C377    1.419   .     A
C374   C378    1.384   .     A
C374   C1038   1.419   1_554 S
C374   C1041   1.423   1_554 S
C375   C376    1.398   .     A
C375   C1040   1.423   .     S
C375   C1060   1.410   .     S
C376   C377    1.387   .     A
C376   C435    1.513   .     S
C377   H411    1.076   .     S
C378   C395    1.390   .     A
C378   H407    1.078   .     S
C379   C394    1.384   .     A
C379   H399    1.083   .     S
C379   C395    1.393   .     A
C380   C396    1.396   .     A
C380   C382    1.476   .     S
C381   H412    1.084   .     S
C381   C387    1.398   .     A
C381   C605    1.371   .     S
C382   O417    1.322   .     A
C382   O418    1.284   .     A
C383   C384    1.393   .     A
C383   H400    1.084   .     S
C384   C392    1.408   .     S
C384   C385    1.397   .     A
C385   H401    1.084   .     S
C386   H402    1.083   .     S
C386   C387    1.393   .     A
C386   C607    1.371   .     S
C388   N414    1.370   .     A
C388   H403    1.081   .     S
C388   C241    1.422   1_655 S
C389   N413    1.368   .     A
C389   H404    1.081   .     S
C390   C425    1.517   .     S
C390   N413    1.406   .     A
C391   H405    1.081   .     S
C391   N414    1.342   .     A
C391   C242    1.415   1_655 S
C392   O420    1.290   .     A
C392   O419    1.285   .     A
C393   O421    1.294   .     A
C393   C395    1.440   .     S
C393   O422    1.297   .     A
C394   C1041   1.410   1_554 S
C394   H1072   1.080   1_554 S
C396   H408    1.075   .     S
C396   C397    1.386   .     A
C397   C1064   1.389   .     S
C397   H1076   1.082   .     S
C398   H409    1.078   .     S
C398   C1038   1.418   1_554 S
C398   C1063   1.389   1_554 S
H406   C1060   1.080   .     S
H410   C1063   1.082   1_554 S
N413   Zn423   2.028   .     S
N414   Zn424   2.028   .     S
O415   Zn423   1.996   .     S
O416   Zn424   1.974   .     S
O417   Zn423   2.013   .     S
O418   Zn424   1.977   .     S
O419   Zn423   1.974   .     S
O420   Zn424   1.996   .     S
O421   Zn423   1.977   .     S
O422   Zn424   2.013   .     S
C425   C426    1.534   .     S
C425   H434    1.113   .     S
C425   H433    1.095   .     S
C426   C427    1.527   .     S
C426   H432    1.098   .     S
C426   H431    1.111   .     S
C427   H429    1.110   .     S
C427   H430    1.109   .     S
C427   H428    1.111   .     S
C435   C436    1.539   .     S
C435   H443    1.105   .     S
C435   H444    1.101   .     S
C436   H441    1.111   .     S
C436   H442    1.112   .     S
C436   C289    1.526   1_655 S
C437   H440    1.110   .     S
C437   H438    1.107   .     S
C437   H439    1.110   .     S
C445   O489    1.292   .     A
C445   O490    1.284   .     A
C445   C461    1.409   .     S
C446   C447    1.409   .     A
C446   C1114   1.419   .     S
C446   C1138   1.418   .     S
C447   C454    1.434   .     A
C447   C451    1.419   .     A
C448   C452    1.384   .     A
C448   C1112   1.419   1_554 S
C448   C1115   1.423   1_554 S
C449   C450    1.398   .     A
C449   C1114   1.423   .     S
C449   C1134   1.410   .     S
C450   C451    1.387   .     A
C450   C509    1.513   .     S
C451   H485    1.076   .     S
C452   C469    1.390   .     A
C452   H481    1.078   .     S
C453   C468    1.384   .     A
C453   H473    1.083   .     S
C453   C469    1.393   .     A
C454   C470    1.396   .     A
C454   C456    1.476   .     S
C455   H486    1.084   .     S
C455   C461    1.398   .     A
C455   C13     1.371   1_565 S
C456   O491    1.322   .     A
C456   O492    1.284   .     A
C457   C458    1.393   .     A
C457   H474    1.084   .     S
C458   C466    1.408   .     S
C458   C459    1.397   .     A
C459   H475    1.084   .     S
C460   H476    1.083   .     S
C460   C461    1.393   .     A
C460   C15     1.371   1_565 S
C462   N488    1.370   .     A
C462   H477    1.081   .     S
C462   C537    1.422   .     S
C463   N487    1.368   .     A
C463   H478    1.081   .     S
C463   C610    1.422   1_455 S
C464   C499    1.517   .     S
C464   N487    1.406   .     A
C464   C613    1.415   1_455 S
C465   H479    1.081   .     S
C465   N488    1.342   .     A
C465   C538    1.415   .     S
C466   O494    1.290   .     A
C466   O493    1.285   .     A
C467   O495    1.294   .     A
C467   C469    1.440   .     S
C467   O496    1.297   .     A
C468   C1115   1.410   1_554 S
C468   H1146   1.080   1_554 S
C470   H482    1.075   .     S
C470   C471    1.386   .     A
C471   C1138   1.389   .     S
C471   H1150   1.082   .     S
C472   H483    1.078   .     S
C472   C1112   1.418   1_554 S
C472   C1137   1.389   1_554 S
H480   C1134   1.080   .     S
H484   C1137   1.082   1_554 S
N487   Zn497   2.028   .     S
N488   Zn498   2.028   .     S
O489   Zn497   1.996   .     S
O490   Zn498   1.974   .     S
O491   Zn497   2.013   .     S
O492   Zn498   1.977   .     S
O493   Zn497   1.974   .     S
O494   Zn498   1.996   .     S
O495   Zn497   1.977   .     S
O496   Zn498   2.013   .     S
C499   C500    1.534   .     S
C499   H508    1.113   .     S
C499   H507    1.095   .     S
C500   C501    1.527   .     S
C500   H506    1.098   .     S
C500   H505    1.111   .     S
C501   H503    1.110   .     S
C501   H504    1.109   .     S
C501   H502    1.111   .     S
C509   C510    1.539   .     S
C509   H517    1.105   .     S
C509   H518    1.101   .     S
C510   H515    1.111   .     S
C510   H516    1.112   .     S
C510   C585    1.526   .     S
C511   H514    1.110   .     S
C511   H512    1.107   .     S
C511   H513    1.110   .     S
C511   C658    1.526   1_455 S
C519   O563    1.292   .     A
C519   O564    1.284   .     A
C519   C535    1.409   .     S
C520   C521    1.409   .     A
C520   C1188   1.419   .     S
C520   C1212   1.418   .     S
C521   C528    1.434   .     A
C521   C525    1.419   .     A
C522   C526    1.384   .     A
C522   C1186   1.419   1_554 S
C522   C1189   1.423   1_554 S
C523   C524    1.398   .     A
C523   C1188   1.423   .     S
C523   C1208   1.410   .     S
C524   C525    1.387   .     A
C524   C583    1.513   .     S
C525   H559    1.076   .     S
C526   C543    1.390   .     A
C526   H555    1.078   .     S
C527   C542    1.384   .     A
C527   H547    1.083   .     S
C527   C543    1.393   .     A
C528   C544    1.396   .     A
C528   C530    1.476   .     S
C529   H560    1.084   .     S
C529   C535    1.398   .     A
C529   C87     1.371   1_565 S
C530   O565    1.322   .     A
C530   O566    1.284   .     A
C531   C532    1.393   .     A
C531   H548    1.084   .     S
C532   C540    1.408   .     S
C532   C533    1.397   .     A
C533   H549    1.084   .     S
C534   H550    1.083   .     S
C534   C535    1.393   .     A
C534   C89     1.371   1_565 S
C536   N562    1.370   .     A
C536   H551    1.081   .     S
C536   C611    1.422   .     S
C537   N561    1.368   .     A
C537   H552    1.081   .     S
C538   C573    1.517   .     S
C538   N561    1.406   .     A
C539   H553    1.081   .     S
C539   N562    1.342   .     A
C539   C612    1.415   .     S
C540   O568    1.290   .     A
C540   O567    1.285   .     A
C541   O569    1.294   .     A
C541   C543    1.440   .     S
C541   O570    1.297   .     A
C542   C1189   1.410   1_554 S
C542   H1220   1.080   1_554 S
C544   H556    1.075   .     S
C544   C545    1.386   .     A
C545   C1212   1.389   .     S
C545   H1224   1.082   .     S
C546   H557    1.078   .     S
C546   C1186   1.418   1_554 S
C546   C1211   1.389   1_554 S
H554   C1208   1.080   .     S
H558   C1211   1.082   1_554 S
N561   Zn571   2.028   .     S
N562   Zn572   2.028   .     S
O563   Zn571   1.996   .     S
O564   Zn572   1.974   .     S
O565   Zn571   2.013   .     S
O566   Zn572   1.977   .     S
O567   Zn571   1.974   .     S
O568   Zn572   1.996   .     S
O569   Zn571   1.977   .     S
O570   Zn572   2.013   .     S
C573   C574    1.534   .     S
C573   H582    1.113   .     S
C573   H581    1.095   .     S
C574   C575    1.527   .     S
C574   H580    1.098   .     S
C574   H579    1.111   .     S
C575   H577    1.110   .     S
C575   H578    1.109   .     S
C575   H576    1.111   .     S
C583   C584    1.539   .     S
C583   H591    1.105   .     S
C583   H592    1.101   .     S
C584   H589    1.111   .     S
C584   H590    1.112   .     S
C584   C659    1.526   .     S
C585   H588    1.110   .     S
C585   H586    1.107   .     S
C585   H587    1.110   .     S
C593   O637    1.292   .     A
C593   O638    1.284   .     A
C593   C609    1.409   .     S
C594   C595    1.409   .     A
C594   C1262   1.419   .     S
C594   C1286   1.418   .     S
C595   C602    1.434   .     A
C595   C599    1.419   .     A
C596   C600    1.384   .     A
C596   C1260   1.419   1_554 S
C596   C1263   1.423   1_554 S
C597   C598    1.398   .     A
C597   C1262   1.423   .     S
C597   C1282   1.410   .     S
C598   C599    1.387   .     A
C598   C657    1.513   .     S
C599   H633    1.076   .     S
C600   C617    1.390   .     A
C600   H629    1.078   .     S
C601   C616    1.384   .     A
C601   H621    1.083   .     S
C601   C617    1.393   .     A
C602   C618    1.396   .     A
C602   C604    1.476   .     S
C603   H634    1.084   .     S
C603   C609    1.398   .     A
C603   C161    1.371   1_565 S
C604   O639    1.322   .     A
C604   O640    1.284   .     A
C605   C606    1.393   .     A
C605   H622    1.084   .     S
C606   C614    1.408   .     S
C606   C607    1.397   .     A
C607   H623    1.084   .     S
C608   H624    1.083   .     S
C608   C609    1.393   .     A
C608   C163    1.371   1_565 S
C610   N636    1.370   .     A
C610   H625    1.081   .     S
C610   C463    1.422   1_655 S
C611   N635    1.368   .     A
C611   H626    1.081   .     S
C612   C647    1.517   .     S
C612   N635    1.406   .     A
C613   H627    1.081   .     S
C613   N636    1.342   .     A
C613   C464    1.415   1_655 S
C614   O642    1.290   .     A
C614   O641    1.285   .     A
C615   O643    1.294   .     A
C615   C617    1.440   .     S
C615   O644    1.297   .     A
C616   C1263   1.410   1_554 S
C616   H1294   1.080   1_554 S
C618   H630    1.075   .     S
C618   C619    1.386   .     A
C619   C1286   1.389   .     S
C619   H1298   1.082   .     S
C620   H631    1.078   .     S
C620   C1260   1.418   1_554 S
C620   C1285   1.389   1_554 S
H628   C1282   1.080   .     S
H632   C1285   1.082   1_554 S
N635   Zn645   2.028   .     S
N636   Zn646   2.028   .     S
O637   Zn645   1.996   .     S
O638   Zn646   1.974   .     S
O639   Zn645   2.013   .     S
O640   Zn646   1.977   .     S
O641   Zn645   1.974   .     S
O642   Zn646   1.996   .     S
O643   Zn645   1.977   .     S
O644   Zn646   2.013   .     S
C647   C648    1.534   .     S
C647   H656    1.113   .     S
C647   H655    1.095   .     S
C648   C649    1.527   .     S
C648   H654    1.098   .     S
C648   H653    1.111   .     S
C649   H651    1.110   .     S
C649   H652    1.109   .     S
C649   H650    1.111   .     S
C657   C658    1.539   .     S
C657   H665    1.105   .     S
C657   H666    1.101   .     S
C658   H663    1.111   .     S
C658   H664    1.112   .     S
C658   C511    1.526   1_655 S
C659   H662    1.110   .     S
C659   H660    1.107   .     S
C659   H661    1.110   .     S
C667   O711    1.292   .     A
C667   O712    1.284   .     A
C667   C683    1.409   .     S
C668   C669    1.409   .     A
C668   C4      1.419   1_556 S
C668   C28     1.418   1_556 S
C669   C676    1.434   .     A
C669   C673    1.419   .     A
C670   C674    1.384   .     A
C671   C672    1.398   .     A
C671   C4      1.423   1_556 S
C671   C24     1.410   1_556 S
C672   C673    1.387   .     A
C672   C731    1.513   .     S
C673   H707    1.076   .     S
C674   C691    1.390   .     A
C674   H703    1.078   .     S
C675   C690    1.384   .     A
C675   H695    1.083   .     S
C675   C691    1.393   .     A
C676   C692    1.396   .     A
C676   C678    1.476   .     S
C677   H708    1.084   .     S
C677   C683    1.398   .     A
C677   C901    1.371   .     S
C678   O713    1.322   .     A
C678   O714    1.284   .     A
C679   C680    1.393   .     A
C679   H696    1.084   .     S
C679   C1121   1.371   1_545 S
C680   C688    1.408   .     S
C680   C681    1.397   .     A
C681   H697    1.084   .     S
C681   C1126   1.371   1_545 S
C682   H698    1.083   .     S
C682   C683    1.393   .     A
C682   C903    1.371   .     S
C684   N710    1.370   .     A
C684   H699    1.081   .     S
C684   C759    1.422   .     S
C685   N709    1.368   .     A
C685   H700    1.081   .     S
C685   C832    1.422   1_455 S
C686   C721    1.517   .     S
C686   N709    1.406   .     A
C686   C835    1.415   1_455 S
C687   H701    1.081   .     S
C687   N710    1.342   .     A
C687   C760    1.415   .     S
C688   O716    1.290   .     A
C688   O715    1.285   .     A
C689   O717    1.294   .     A
C689   C691    1.440   .     S
C689   O718    1.297   .     A
C692   H704    1.075   .     S
C692   C693    1.386   .     A
C693   C28     1.389   1_556 S
C693   H40     1.082   1_556 S
C694   H705    1.078   .     S
H702   C24     1.080   1_556 S
N709   Zn719   2.028   .     S
N710   Zn720   2.028   .     S
O711   Zn719   1.996   .     S
O712   Zn720   1.974   .     S
O713   Zn719   2.013   .     S
O714   Zn720   1.977   .     S
O715   Zn719   1.974   .     S
O716   Zn720   1.996   .     S
O717   Zn719   1.977   .     S
O718   Zn720   2.013   .     S
C721   C722    1.534   .     S
C721   H730    1.113   .     S
C721   H729    1.095   .     S
C722   C723    1.527   .     S
C722   H728    1.098   .     S
C722   H727    1.111   .     S
C723   H725    1.110   .     S
C723   H726    1.109   .     S
C723   H724    1.111   .     S
C731   C732    1.539   .     S
C731   H739    1.105   .     S
C731   H740    1.101   .     S
C732   H737    1.111   .     S
C732   H738    1.112   .     S
C732   C807    1.526   .     S
C733   H736    1.110   .     S
C733   H734    1.107   .     S
C733   H735    1.110   .     S
C733   C880    1.526   1_455 S
C741   O785    1.292   .     A
C741   O786    1.284   .     A
C741   C757    1.409   .     S
C742   C743    1.409   .     A
C742   C78     1.419   1_556 S
C742   C102    1.418   1_556 S
C743   C750    1.434   .     A
C743   C747    1.419   .     A
C744   C748    1.384   .     A
C745   C746    1.398   .     A
C745   C78     1.423   1_556 S
C745   C98     1.410   1_556 S
C746   C747    1.387   .     A
C746   C805    1.513   .     S
C747   H781    1.076   .     S
C748   C765    1.390   .     A
C748   H777    1.078   .     S
C749   C764    1.384   .     A
C749   H769    1.083   .     S
C749   C765    1.393   .     A
C750   C766    1.396   .     A
C750   C752    1.476   .     S
C751   H782    1.084   .     S
C751   C757    1.398   .     A
C751   C975    1.371   .     S
C752   O787    1.322   .     A
C752   O788    1.284   .     A
C753   C754    1.393   .     A
C753   H770    1.084   .     S
C753   C1195   1.371   1_545 S
C754   C762    1.408   .     S
C754   C755    1.397   .     A
C755   H771    1.084   .     S
C755   C1200   1.371   1_545 S
C756   H772    1.083   .     S
C756   C757    1.393   .     A
C756   C977    1.371   .     S
C758   N784    1.370   .     A
C758   H773    1.081   .     S
C758   C833    1.422   .     S
C759   N783    1.368   .     A
C759   H774    1.081   .     S
C760   C795    1.517   .     S
C760   N783    1.406   .     A
C761   H775    1.081   .     S
C761   N784    1.342   .     A
C761   C834    1.415   .     S
C762   O790    1.290   .     A
C762   O789    1.285   .     A
C763   O791    1.294   .     A
C763   C765    1.440   .     S
C763   O792    1.297   .     A
C766   H778    1.075   .     S
C766   C767    1.386   .     A
C767   C102    1.389   1_556 S
C767   H114    1.082   1_556 S
C768   H779    1.078   .     S
H776   C98     1.080   1_556 S
N783   Zn793   2.028   .     S
N784   Zn794   2.028   .     S
O785   Zn793   1.996   .     S
O786   Zn794   1.974   .     S
O787   Zn793   2.013   .     S
O788   Zn794   1.977   .     S
O789   Zn793   1.974   .     S
O790   Zn794   1.996   .     S
O791   Zn793   1.977   .     S
O792   Zn794   2.013   .     S
C795   C796    1.534   .     S
C795   H804    1.113   .     S
C795   H803    1.095   .     S
C796   C797    1.527   .     S
C796   H802    1.098   .     S
C796   H801    1.111   .     S
C797   H799    1.110   .     S
C797   H800    1.109   .     S
C797   H798    1.111   .     S
C805   C806    1.539   .     S
C805   H813    1.105   .     S
C805   H814    1.101   .     S
C806   H811    1.111   .     S
C806   H812    1.112   .     S
C806   C881    1.526   .     S
C807   H810    1.110   .     S
C807   H808    1.107   .     S
C807   H809    1.110   .     S
C815   O859    1.292   .     A
C815   O860    1.284   .     A
C815   C831    1.409   .     S
C816   C817    1.409   .     A
C816   C152    1.419   1_556 S
C816   C176    1.418   1_556 S
C817   C824    1.434   .     A
C817   C821    1.419   .     A
C818   C822    1.384   .     A
C819   C820    1.398   .     A
C819   C152    1.423   1_556 S
C819   C172    1.410   1_556 S
C820   C821    1.387   .     A
C820   C879    1.513   .     S
C821   H855    1.076   .     S
C822   C839    1.390   .     A
C822   H851    1.078   .     S
C823   C838    1.384   .     A
C823   H843    1.083   .     S
C823   C839    1.393   .     A
C824   C840    1.396   .     A
C824   C826    1.476   .     S
C825   H856    1.084   .     S
C825   C831    1.398   .     A
C825   C1049   1.371   .     S
C826   O861    1.322   .     A
C826   O862    1.284   .     A
C827   C828    1.393   .     A
C827   H844    1.084   .     S
C827   C1269   1.371   1_545 S
C828   C836    1.408   .     S
C828   C829    1.397   .     A
C829   H845    1.084   .     S
C829   C1274   1.371   1_545 S
C830   H846    1.083   .     S
C830   C831    1.393   .     A
C830   C1051   1.371   .     S
C832   N858    1.370   .     A
C832   H847    1.081   .     S
C832   C685    1.422   1_655 S
C833   N857    1.368   .     A
C833   H848    1.081   .     S
C834   C869    1.517   .     S
C834   N857    1.406   .     A
C835   H849    1.081   .     S
C835   N858    1.342   .     A
C835   C686    1.415   1_655 S
C836   O864    1.290   .     A
C836   O863    1.285   .     A
C837   O865    1.294   .     A
C837   C839    1.440   .     S
C837   O866    1.297   .     A
C840   H852    1.075   .     S
C840   C841    1.386   .     A
C841   C176    1.389   1_556 S
C841   H188    1.082   1_556 S
C842   H853    1.078   .     S
H850   C172    1.080   1_556 S
N857   Zn867   2.028   .     S
N858   Zn868   2.028   .     S
O859   Zn867   1.996   .     S
O860   Zn868   1.974   .     S
O861   Zn867   2.013   .     S
O862   Zn868   1.977   .     S
O863   Zn867   1.974   .     S
O864   Zn868   1.996   .     S
O865   Zn867   1.977   .     S
O866   Zn868   2.013   .     S
C869   C870    1.534   .     S
C869   H878    1.113   .     S
C869   H877    1.095   .     S
C870   C871    1.527   .     S
C870   H876    1.098   .     S
C870   H875    1.111   .     S
C871   H873    1.110   .     S
C871   H874    1.109   .     S
C871   H872    1.111   .     S
C879   C880    1.539   .     S
C879   H887    1.105   .     S
C879   H888    1.101   .     S
C880   H885    1.111   .     S
C880   H886    1.112   .     S
C880   C733    1.526   1_655 S
C881   H884    1.110   .     S
C881   H882    1.107   .     S
C881   H883    1.110   .     S
C889   O933    1.292   .     A
C889   O934    1.284   .     A
C889   C905    1.409   .     S
C890   C891    1.409   .     A
C890   C226    1.419   1_556 S
C890   C250    1.418   1_556 S
C891   C898    1.434   .     A
C891   C895    1.419   .     A
C892   C896    1.384   .     A
C893   C894    1.398   .     A
C893   C226    1.423   1_556 S
C893   C246    1.410   1_556 S
C894   C895    1.387   .     A
C894   C953    1.513   .     S
C895   H929    1.076   .     S
C896   C913    1.390   .     A
C896   H925    1.078   .     S
C897   C912    1.384   .     A
C897   H917    1.083   .     S
C897   C913    1.393   .     A
C898   C914    1.396   .     A
C898   C900    1.476   .     S
C899   H930    1.084   .     S
C899   C905    1.398   .     A
C899   C1123   1.371   .     S
C900   O935    1.322   .     A
C900   O936    1.284   .     A
C901   C902    1.393   .     A
C901   H918    1.084   .     S
C902   C910    1.408   .     S
C902   C903    1.397   .     A
C903   H919    1.084   .     S
C904   H920    1.083   .     S
C904   C905    1.393   .     A
C904   C1125   1.371   .     S
C906   N932    1.370   .     A
C906   H921    1.081   .     S
C906   C981    1.422   .     S
C907   N931    1.368   .     A
C907   H922    1.081   .     S
C907   C1054   1.422   1_455 S
C908   C943    1.517   .     S
C908   N931    1.406   .     A
C908   C1057   1.415   1_455 S
C909   H923    1.081   .     S
C909   N932    1.342   .     A
C909   C982    1.415   .     S
C910   O938    1.290   .     A
C910   O937    1.285   .     A
C911   O939    1.294   .     A
C911   C913    1.440   .     S
C911   O940    1.297   .     A
C914   H926    1.075   .     S
C914   C915    1.386   .     A
C915   C250    1.389   1_556 S
C915   H262    1.082   1_556 S
C916   H927    1.078   .     S
H924   C246    1.080   1_556 S
N931   Zn941   2.028   .     S
N932   Zn942   2.028   .     S
O933   Zn941   1.996   .     S
O934   Zn942   1.974   .     S
O935   Zn941   2.013   .     S
O936   Zn942   1.977   .     S
O937   Zn941   1.974   .     S
O938   Zn942   1.996   .     S
O939   Zn941   1.977   .     S
O940   Zn942   2.013   .     S
C943   C944    1.534   .     S
C943   H952    1.113   .     S
C943   H951    1.095   .     S
C944   C945    1.527   .     S
C944   H950    1.098   .     S
C944   H949    1.111   .     S
C945   H947    1.110   .     S
C945   H948    1.109   .     S
C945   H946    1.111   .     S
C953   C954    1.539   .     S
C953   H961    1.105   .     S
C953   H962    1.101   .     S
C954   H959    1.111   .     S
C954   H960    1.112   .     S
C954   C1029   1.526   .     S
C955   H958    1.110   .     S
C955   H956    1.107   .     S
C955   H957    1.110   .     S
C955   C1102   1.526   1_455 S
C963   O1007   1.292   .     A
C963   O1008   1.284   .     A
C963   C979    1.409   .     S
C964   C965    1.409   .     A
C964   C300    1.419   1_556 S
C964   C324    1.418   1_556 S
C965   C972    1.434   .     A
C965   C969    1.419   .     A
C966   C970    1.384   .     A
C967   C968    1.398   .     A
C967   C300    1.423   1_556 S
C967   C320    1.410   1_556 S
C968   C969    1.387   .     A
C968   C1027   1.513   .     S
C969   H1003   1.076   .     S
C970   C987    1.390   .     A
C970   H999    1.078   .     S
C971   C986    1.384   .     A
C971   H991    1.083   .     S
C971   C987    1.393   .     A
C972   C988    1.396   .     A
C972   C974    1.476   .     S
C973   H1004   1.084   .     S
C973   C979    1.398   .     A
C973   C1197   1.371   .     S
C974   O1009   1.322   .     A
C974   O1010   1.284   .     A
C975   C976    1.393   .     A
C975   H992    1.084   .     S
C976   C984    1.408   .     S
C976   C977    1.397   .     A
C977   H993    1.084   .     S
C978   H994    1.083   .     S
C978   C979    1.393   .     A
C978   C1199   1.371   .     S
C980   N1006   1.370   .     A
C980   H995    1.081   .     S
C980   C1055   1.422   .     S
C981   N1005   1.368   .     A
C981   H996    1.081   .     S
C982   C1017   1.517   .     S
C982   N1005   1.406   .     A
C983   H997    1.081   .     S
C983   N1006   1.342   .     A
C983   C1056   1.415   .     S
C984   O1012   1.290   .     A
C984   O1011   1.285   .     A
C985   O1013   1.294   .     A
C985   C987    1.440   .     S
C985   O1014   1.297   .     A
C988   H1000   1.075   .     S
C988   C989    1.386   .     A
C989   C324    1.389   1_556 S
C989   H336    1.082   1_556 S
C990   H1001   1.078   .     S
H998   C320    1.080   1_556 S
N1005  Zn1015  2.028   .     S
N1006  Zn1016  2.028   .     S
O1007  Zn1015  1.996   .     S
O1008  Zn1016  1.974   .     S
O1009  Zn1015  2.013   .     S
O1010  Zn1016  1.977   .     S
O1011  Zn1015  1.974   .     S
O1012  Zn1016  1.996   .     S
O1013  Zn1015  1.977   .     S
O1014  Zn1016  2.013   .     S
C1017  C1018   1.534   .     S
C1017  H1026   1.113   .     S
C1017  H1025   1.095   .     S
C1018  C1019   1.527   .     S
C1018  H1024   1.098   .     S
C1018  H1023   1.111   .     S
C1019  H1021   1.110   .     S
C1019  H1022   1.109   .     S
C1019  H1020   1.111   .     S
C1027  C1028   1.539   .     S
C1027  H1035   1.105   .     S
C1027  H1036   1.101   .     S
C1028  H1033   1.111   .     S
C1028  H1034   1.112   .     S
C1028  C1103   1.526   .     S
C1029  H1032   1.110   .     S
C1029  H1030   1.107   .     S
C1029  H1031   1.110   .     S
C1037  O1081   1.292   .     A
C1037  O1082   1.284   .     A
C1037  C1053   1.409   .     S
C1038  C1039   1.409   .     A
C1038  C374    1.419   1_556 S
C1038  C398    1.418   1_556 S
C1039  C1046   1.434   .     A
C1039  C1043   1.419   .     A
C1040  C1044   1.384   .     A
C1041  C1042   1.398   .     A
C1041  C374    1.423   1_556 S
C1041  C394    1.410   1_556 S
C1042  C1043   1.387   .     A
C1042  C1101   1.513   .     S
C1043  H1077   1.076   .     S
C1044  C1061   1.390   .     A
C1044  H1073   1.078   .     S
C1045  C1060   1.384   .     A
C1045  H1065   1.083   .     S
C1045  C1061   1.393   .     A
C1046  C1062   1.396   .     A
C1046  C1048   1.476   .     S
C1047  H1078   1.084   .     S
C1047  C1053   1.398   .     A
C1047  C1271   1.371   .     S
C1048  O1083   1.322   .     A
C1048  O1084   1.284   .     A
C1049  C1050   1.393   .     A
C1049  H1066   1.084   .     S
C1050  C1058   1.408   .     S
C1050  C1051   1.397   .     A
C1051  H1067   1.084   .     S
C1052  H1068   1.083   .     S
C1052  C1053   1.393   .     A
C1052  C1273   1.371   .     S
C1054  N1080   1.370   .     A
C1054  H1069   1.081   .     S
C1054  C907    1.422   1_655 S
C1055  N1079   1.368   .     A
C1055  H1070   1.081   .     S
C1056  C1091   1.517   .     S
C1056  N1079   1.406   .     A
C1057  H1071   1.081   .     S
C1057  N1080   1.342   .     A
C1057  C908    1.415   1_655 S
C1058  O1086   1.290   .     A
C1058  O1085   1.285   .     A
C1059  O1087   1.294   .     A
C1059  C1061   1.440   .     S
C1059  O1088   1.297   .     A
C1062  H1074   1.075   .     S
C1062  C1063   1.386   .     A
C1063  C398    1.389   1_556 S
C1063  H410    1.082   1_556 S
C1064  H1075   1.078   .     S
H1072  C394    1.080   1_556 S
N1079  Zn1089  2.028   .     S
N1080  Zn1090  2.028   .     S
O1081  Zn1089  1.996   .     S
O1082  Zn1090  1.974   .     S
O1083  Zn1089  2.013   .     S
O1084  Zn1090  1.977   .     S
O1085  Zn1089  1.974   .     S
O1086  Zn1090  1.996   .     S
O1087  Zn1089  1.977   .     S
O1088  Zn1090  2.013   .     S
C1091  C1092   1.534   .     S
C1091  H1100   1.113   .     S
C1091  H1099   1.095   .     S
C1092  C1093   1.527   .     S
C1092  H1098   1.098   .     S
C1092  H1097   1.111   .     S
C1093  H1095   1.110   .     S
C1093  H1096   1.109   .     S
C1093  H1094   1.111   .     S
C1101  C1102   1.539   .     S
C1101  H1109   1.105   .     S
C1101  H1110   1.101   .     S
C1102  H1107   1.111   .     S
C1102  H1108   1.112   .     S
C1102  C955    1.526   1_655 S
C1103  H1106   1.110   .     S
C1103  H1104   1.107   .     S
C1103  H1105   1.110   .     S
C1111  O1155   1.292   .     A
C1111  O1156   1.284   .     A
C1111  C1127   1.409   .     S
C1112  C1113   1.409   .     A
C1112  C448    1.419   1_556 S
C1112  C472    1.418   1_556 S
C1113  C1120   1.434   .     A
C1113  C1117   1.419   .     A
C1114  C1118   1.384   .     A
C1115  C1116   1.398   .     A
C1115  C448    1.423   1_556 S
C1115  C468    1.410   1_556 S
C1116  C1117   1.387   .     A
C1116  C1175   1.513   .     S
C1117  H1151   1.076   .     S
C1118  C1135   1.390   .     A
C1118  H1147   1.078   .     S
C1119  C1134   1.384   .     A
C1119  H1139   1.083   .     S
C1119  C1135   1.393   .     A
C1120  C1136   1.396   .     A
C1120  C1122   1.476   .     S
C1121  H1152   1.084   .     S
C1121  C1127   1.398   .     A
C1121  C679    1.371   1_565 S
C1122  O1157   1.322   .     A
C1122  O1158   1.284   .     A
C1123  C1124   1.393   .     A
C1123  H1140   1.084   .     S
C1124  C1132   1.408   .     S
C1124  C1125   1.397   .     A
C1125  H1141   1.084   .     S
C1126  H1142   1.083   .     S
C1126  C1127   1.393   .     A
C1126  C681    1.371   1_565 S
C1128  N1154   1.370   .     A
C1128  H1143   1.081   .     S
C1128  C1203   1.422   .     S
C1129  N1153   1.368   .     A
C1129  H1144   1.081   .     S
C1129  C1276   1.422   1_455 S
C1130  C1165   1.517   .     S
C1130  N1153   1.406   .     A
C1130  C1279   1.415   1_455 S
C1131  H1145   1.081   .     S
C1131  N1154   1.342   .     A
C1131  C1204   1.415   .     S
C1132  O1160   1.290   .     A
C1132  O1159   1.285   .     A
C1133  O1161   1.294   .     A
C1133  C1135   1.440   .     S
C1133  O1162   1.297   .     A
C1136  H1148   1.075   .     S
C1136  C1137   1.386   .     A
C1137  C472    1.389   1_556 S
C1137  H484    1.082   1_556 S
C1138  H1149   1.078   .     S
H1146  C468    1.080   1_556 S
N1153  Zn1163  2.028   .     S
N1154  Zn1164  2.028   .     S
O1155  Zn1163  1.996   .     S
O1156  Zn1164  1.974   .     S
O1157  Zn1163  2.013   .     S
O1158  Zn1164  1.977   .     S
O1159  Zn1163  1.974   .     S
O1160  Zn1164  1.996   .     S
O1161  Zn1163  1.977   .     S
O1162  Zn1164  2.013   .     S
C1165  C1166   1.534   .     S
C1165  H1174   1.113   .     S
C1165  H1173   1.095   .     S
C1166  C1167   1.527   .     S
C1166  H1172   1.098   .     S
C1166  H1171   1.111   .     S
C1167  H1169   1.110   .     S
C1167  H1170   1.109   .     S
C1167  H1168   1.111   .     S
C1175  C1176   1.539   .     S
C1175  H1183   1.105   .     S
C1175  H1184   1.101   .     S
C1176  H1181   1.111   .     S
C1176  H1182   1.112   .     S
C1176  C1251   1.526   .     S
C1177  H1180   1.110   .     S
C1177  H1178   1.107   .     S
C1177  H1179   1.110   .     S
C1177  C1324   1.526   1_455 S
C1185  O1229   1.292   .     A
C1185  O1230   1.284   .     A
C1185  C1201   1.409   .     S
C1186  C1187   1.409   .     A
C1186  C522    1.419   1_556 S
C1186  C546    1.418   1_556 S
C1187  C1194   1.434   .     A
C1187  C1191   1.419   .     A
C1188  C1192   1.384   .     A
C1189  C1190   1.398   .     A
C1189  C522    1.423   1_556 S
C1189  C542    1.410   1_556 S
C1190  C1191   1.387   .     A
C1190  C1249   1.513   .     S
C1191  H1225   1.076   .     S
C1192  C1209   1.390   .     A
C1192  H1221   1.078   .     S
C1193  C1208   1.384   .     A
C1193  H1213   1.083   .     S
C1193  C1209   1.393   .     A
C1194  C1210   1.396   .     A
C1194  C1196   1.476   .     S
C1195  H1226   1.084   .     S
C1195  C1201   1.398   .     A
C1195  C753    1.371   1_565 S
C1196  O1231   1.322   .     A
C1196  O1232   1.284   .     A
C1197  C1198   1.393   .     A
C1197  H1214   1.084   .     S
C1198  C1206   1.408   .     S
C1198  C1199   1.397   .     A
C1199  H1215   1.084   .     S
C1200  H1216   1.083   .     S
C1200  C1201   1.393   .     A
C1200  C755    1.371   1_565 S
C1202  N1228   1.370   .     A
C1202  H1217   1.081   .     S
C1202  C1277   1.422   .     S
C1203  N1227   1.368   .     A
C1203  H1218   1.081   .     S
C1204  C1239   1.517   .     S
C1204  N1227   1.406   .     A
C1205  H1219   1.081   .     S
C1205  N1228   1.342   .     A
C1205  C1278   1.415   .     S
C1206  O1234   1.290   .     A
C1206  O1233   1.285   .     A
C1207  O1235   1.294   .     A
C1207  C1209   1.440   .     S
C1207  O1236   1.297   .     A
C1210  H1222   1.075   .     S
C1210  C1211   1.386   .     A
C1211  C546    1.389   1_556 S
C1211  H558    1.082   1_556 S
C1212  H1223   1.078   .     S
H1220  C542    1.080   1_556 S
N1227  Zn1237  2.028   .     S
N1228  Zn1238  2.028   .     S
O1229  Zn1237  1.996   .     S
O1230  Zn1238  1.974   .     S
O1231  Zn1237  2.013   .     S
O1232  Zn1238  1.977   .     S
O1233  Zn1237  1.974   .     S
O1234  Zn1238  1.996   .     S
O1235  Zn1237  1.977   .     S
O1236  Zn1238  2.013   .     S
C1239  C1240   1.534   .     S
C1239  H1248   1.113   .     S
C1239  H1247   1.095   .     S
C1240  C1241   1.527   .     S
C1240  H1246   1.098   .     S
C1240  H1245   1.111   .     S
C1241  H1243   1.110   .     S
C1241  H1244   1.109   .     S
C1241  H1242   1.111   .     S
C1249  C1250   1.539   .     S
C1249  H1257   1.105   .     S
C1249  H1258   1.101   .     S
C1250  H1255   1.111   .     S
C1250  H1256   1.112   .     S
C1250  C1325   1.526   .     S
C1251  H1254   1.110   .     S
C1251  H1252   1.107   .     S
C1251  H1253   1.110   .     S
C1259  O1303   1.292   .     A
C1259  O1304   1.284   .     A
C1259  C1275   1.409   .     S
C1260  C1261   1.409   .     A
C1260  C596    1.419   1_556 S
C1260  C620    1.418   1_556 S
C1261  C1268   1.434   .     A
C1261  C1265   1.419   .     A
C1262  C1266   1.384   .     A
C1263  C1264   1.398   .     A
C1263  C596    1.423   1_556 S
C1263  C616    1.410   1_556 S
C1264  C1265   1.387   .     A
C1264  C1323   1.513   .     S
C1265  H1299   1.076   .     S
C1266  C1283   1.390   .     A
C1266  H1295   1.078   .     S
C1267  C1282   1.384   .     A
C1267  H1287   1.083   .     S
C1267  C1283   1.393   .     A
C1268  C1284   1.396   .     A
C1268  C1270   1.476   .     S
C1269  H1300   1.084   .     S
C1269  C1275   1.398   .     A
C1269  C827    1.371   1_565 S
C1270  O1305   1.322   .     A
C1270  O1306   1.284   .     A
C1271  C1272   1.393   .     A
C1271  H1288   1.084   .     S
C1272  C1280   1.408   .     S
C1272  C1273   1.397   .     A
C1273  H1289   1.084   .     S
C1274  H1290   1.083   .     S
C1274  C1275   1.393   .     A
C1274  C829    1.371   1_565 S
C1276  N1302   1.370   .     A
C1276  H1291   1.081   .     S
C1276  C1129   1.422   1_655 S
C1277  N1301   1.368   .     A
C1277  H1292   1.081   .     S
C1278  C1313   1.517   .     S
C1278  N1301   1.406   .     A
C1279  H1293   1.081   .     S
C1279  N1302   1.342   .     A
C1279  C1130   1.415   1_655 S
C1280  O1308   1.290   .     A
C1280  O1307   1.285   .     A
C1281  O1309   1.294   .     A
C1281  C1283   1.440   .     S
C1281  O1310   1.297   .     A
C1284  H1296   1.075   .     S
C1284  C1285   1.386   .     A
C1285  C620    1.389   1_556 S
C1285  H632    1.082   1_556 S
C1286  H1297   1.078   .     S
H1294  C616    1.080   1_556 S
N1301  Zn1311  2.028   .     S
N1302  Zn1312  2.028   .     S
O1303  Zn1311  1.996   .     S
O1304  Zn1312  1.974   .     S
O1305  Zn1311  2.013   .     S
O1306  Zn1312  1.977   .     S
O1307  Zn1311  1.974   .     S
O1308  Zn1312  1.996   .     S
O1309  Zn1311  1.977   .     S
O1310  Zn1312  2.013   .     S
C1313  C1314   1.534   .     S
C1313  H1322   1.113   .     S
C1313  H1321   1.095   .     S
C1314  C1315   1.527   .     S
C1314  H1320   1.098   .     S
C1314  H1319   1.111   .     S
C1315  H1317   1.110   .     S
C1315  H1318   1.109   .     S
C1315  H1316   1.111   .     S
C1323  C1324   1.539   .     S
C1323  H1331   1.105   .     S
C1323  H1332   1.101   .     S
C1324  H1329   1.111   .     S
C1324  H1330   1.112   .     S
C1324  C1177   1.526   1_655 S
C1325  H1328   1.110   .     S
C1325  H1326   1.107   .     S
C1325  H1327   1.110   .     S
