data_str_m3_o1_o18_pcu_sym.41
_audit_creation_date              2020-01-03
_audit_creation_method            'Materials Studio'
_symmetry_space_group_name_H-M    'P1'
_symmetry_Int_Tables_number       1
_symmetry_cell_setting            triclinic
loop_
_symmetry_equiv_pos_as_xyz
  x,y,z
_cell_length_a                    29.5499
_cell_length_b                    32.1469
_cell_length_c                    30.9770
_cell_angle_alpha                 90.1291
_cell_angle_beta                  67.5085
_cell_angle_gamma                 89.9654
loop_
_atom_site_label
_atom_site_type_symbol
_atom_site_fract_x
_atom_site_fract_y
_atom_site_fract_z
_atom_site_U_iso_or_equiv
_atom_site_adp_type
_atom_site_occupancy
C1     C     0.16667   0.24670   0.25001   0.00000  Uiso   1.00
C2     C     0.12253   0.31206   0.25998   0.00000  Uiso   1.00
C3     C     0.16669   0.04248   0.24993   0.00000  Uiso   1.00
C4     C     0.16667   0.29085   0.24998   0.00000  Uiso   1.00
C5     C     0.32176   0.14289   0.21847   0.00000  Uiso   1.00
C6     C     0.01159   0.19049   0.28149   0.00000  Uiso   1.00
C7     C     0.03659   0.14299   0.21870   0.00000  Uiso   1.00
C8     C     0.29676   0.19038   0.28126   0.00000  Uiso   1.00
C9     C     0.13600   0.16712   0.33809   0.00000  Uiso   1.00
C10    C     0.19729   0.16708   0.16190   0.00000  Uiso   1.00
C11    C     0.11629   0.16905   0.38898   0.00000  Uiso   1.00
C12    C     0.16668   0.08663   0.24996   0.00000  Uiso   1.00
C13    C     0.21583   0.17394   0.11163   0.00000  Uiso   1.00
C14    C     0.05275   0.15419   0.46470   0.00000  Uiso   1.00
C15    C     0.27004   0.21031   0.04255   0.00000  Uiso   1.00
C16    C     0.06855   0.15640   0.41585   0.00000  Uiso   1.00
C17    C     0.25940   0.19552   0.08812   0.00000  Uiso   1.00
C18    C     0.14734   0.18218   0.41052   0.00000  Uiso   1.00
C19    C     0.18392   0.16564   0.08948   0.00000  Uiso   1.00
C20    C     0.13284   0.18104   0.45895   0.00000  Uiso   1.00
C21    C     0.19073   0.18341   0.04649   0.00000  Uiso   1.00
C22    C     0.08537   0.16563   0.48617   0.00000  Uiso   1.00
C23    C     0.10577   0.16739   0.05451   0.00000  Uiso   1.00
C24    C     0.23545   0.20431   0.02176   0.00000  Uiso   1.00
C25    C     0.16603   0.19155   0.48040   0.00000  Uiso   1.00
C26    C     0.15416   0.18035   0.02752   0.00000  Uiso   1.00
C27    C     0.21079   0.21251   0.45631   0.00000  Uiso   1.00
C28    C     0.07184   0.16086   0.03425   0.00000  Uiso   1.00
C29    C     0.24444   0.21924   0.47694   0.00000  Uiso   1.00
C30    C     0.21083   0.31198   0.23993   0.00000  Uiso   1.00
C31    C     0.12254   0.02135   0.25995   0.00000  Uiso   1.00
C32    C     0.21084   0.02126   0.23990   0.00000  Uiso   1.00
H33    H     0.03542   0.15054   0.05631   0.00000  Uiso   1.00
H34    H     0.08811   0.29586   0.26813   0.00000  Uiso   1.00
H35    H     0.32202   0.13304   0.47125   0.00000  Uiso   1.00
H36    H     0.33270   0.23309   0.03809   0.00000  Uiso   1.00
H37    H     0.09262   0.16311   0.09185   0.00000  Uiso   1.00
H38    H     0.22009   0.22555   0.42194   0.00000  Uiso   1.00
H39    H     0.00681   0.10413   0.16645   0.00000  Uiso   1.00
H40    H     0.32659   0.22937   0.33340   0.00000  Uiso   1.00
H41    H     0.06514   0.12415   0.19387   0.00000  Uiso   1.00
H42    H     0.26822   0.20927   0.30605   0.00000  Uiso   1.00
H43    H     0.27793   0.23577   0.45724   0.00000  Uiso   1.00
H44    H     0.15280   0.14597   0.10739   0.00000  Uiso   1.00
H45    H     0.18409   0.19090   0.38839   0.00000  Uiso   1.00
H46    H     0.28396   0.20224   0.10573   0.00000  Uiso   1.00
H47    H     0.04448   0.14650   0.39878   0.00000  Uiso   1.00
H48    H     0.24524   0.29570   0.23182   0.00000  Uiso   1.00
H49    H     0.08813   0.03762   0.26806   0.00000  Uiso   1.00
H50    H     0.24526   0.03747   0.23176   0.00000  Uiso   1.00
N51    N     0.04759   0.16668   0.25001   0.00000  Uiso   1.00
N52    N     0.28574   0.16666   0.24999   0.00000  Uiso   1.00
O53    O     0.12846   0.22775   0.25000   0.00000  Uiso   1.00
O54    O     0.31279   0.23181   0.01861   0.00000  Uiso   1.00
O55    O     0.31033   0.11919   0.18692   0.00000  Uiso   1.00
O56    O     0.02304   0.21425   0.31299   0.00000  Uiso   1.00
O57    O     0.20488   0.10558   0.24999   0.00000  Uiso   1.00
O58    O     0.20490   0.22774   0.25000   0.00000  Uiso   1.00
O59    O     0.12843   0.10559   0.25000   0.00000  Uiso   1.00
O60    O     0.10661   0.16667   0.31612   0.00000  Uiso   1.00
O61    O     0.22672   0.16666   0.18387   0.00000  Uiso   1.00
O62    O     0.18305   0.16666   0.31612   0.00000  Uiso   1.00
O63    O     0.15028   0.16667   0.18388   0.00000  Uiso   1.00
O64    O     0.00678   0.13919   0.49168   0.00000  Uiso   1.00
Zn65   Zn    0.11562   0.16667   0.25000   0.00000  Uiso   1.00
Zn66   Zn    0.21771   0.16666   0.25000   0.00000  Uiso   1.00
C67    C     0.50000   0.24670   0.25001   0.00000  Uiso   1.00
C68    C     0.45586   0.31206   0.25998   0.00000  Uiso   1.00
C69    C     0.50002   0.04248   0.24993   0.00000  Uiso   1.00
C70    C     0.50001   0.29085   0.24998   0.00000  Uiso   1.00
C71    C     0.65509   0.14289   0.21847   0.00000  Uiso   1.00
C72    C     0.34493   0.19049   0.28149   0.00000  Uiso   1.00
C73    C     0.36993   0.14299   0.21870   0.00000  Uiso   1.00
C74    C     0.63009   0.19038   0.28126   0.00000  Uiso   1.00
C75    C     0.46933   0.16712   0.33809   0.00000  Uiso   1.00
C76    C     0.53063   0.16708   0.16190   0.00000  Uiso   1.00
C77    C     0.44963   0.16905   0.38898   0.00000  Uiso   1.00
C78    C     0.50001   0.08663   0.24996   0.00000  Uiso   1.00
C79    C     0.54916   0.17394   0.11163   0.00000  Uiso   1.00
C80    C     0.38609   0.15419   0.46470   0.00000  Uiso   1.00
C81    C     0.60337   0.21031   0.04255   0.00000  Uiso   1.00
C82    C     0.40189   0.15640   0.41585   0.00000  Uiso   1.00
C83    C     0.59273   0.19552   0.08812   0.00000  Uiso   1.00
C84    C     0.48067   0.18218   0.41052   0.00000  Uiso   1.00
C85    C     0.51725   0.16564   0.08948   0.00000  Uiso   1.00
C86    C     0.46617   0.18104   0.45895   0.00000  Uiso   1.00
C87    C     0.52407   0.18341   0.04649   0.00000  Uiso   1.00
C88    C     0.41871   0.16563   0.48617   0.00000  Uiso   1.00
C89    C     0.43910   0.16739   0.05451   0.00000  Uiso   1.00
C90    C     0.56879   0.20431   0.02176   0.00000  Uiso   1.00
C91    C     0.49936   0.19155   0.48040   0.00000  Uiso   1.00
C92    C     0.48750   0.18035   0.02752   0.00000  Uiso   1.00
C93    C     0.54412   0.21251   0.45631   0.00000  Uiso   1.00
C94    C     0.40518   0.16086   0.03425   0.00000  Uiso   1.00
C95    C     0.57778   0.21924   0.47694   0.00000  Uiso   1.00
C96    C     0.54416   0.31198   0.23993   0.00000  Uiso   1.00
C97    C     0.45587   0.02135   0.25995   0.00000  Uiso   1.00
C98    C     0.54417   0.02126   0.23990   0.00000  Uiso   1.00
H99    H     0.36875   0.15054   0.05631   0.00000  Uiso   1.00
H100   H     0.42144   0.29586   0.26813   0.00000  Uiso   1.00
H101   H     0.65535   0.13304   0.47125   0.00000  Uiso   1.00
H102   H     0.66604   0.23309   0.03809   0.00000  Uiso   1.00
H103   H     0.42596   0.16311   0.09185   0.00000  Uiso   1.00
H104   H     0.55342   0.22555   0.42194   0.00000  Uiso   1.00
H105   H     0.34014   0.10413   0.16645   0.00000  Uiso   1.00
H106   H     0.65992   0.22937   0.33340   0.00000  Uiso   1.00
H107   H     0.39848   0.12415   0.19387   0.00000  Uiso   1.00
H108   H     0.60156   0.20927   0.30605   0.00000  Uiso   1.00
H109   H     0.61126   0.23577   0.45724   0.00000  Uiso   1.00
H110   H     0.48614   0.14597   0.10739   0.00000  Uiso   1.00
H111   H     0.51742   0.19090   0.38839   0.00000  Uiso   1.00
H112   H     0.61729   0.20224   0.10573   0.00000  Uiso   1.00
H113   H     0.37781   0.14650   0.39878   0.00000  Uiso   1.00
H114   H     0.57858   0.29570   0.23182   0.00000  Uiso   1.00
H115   H     0.42146   0.03762   0.26806   0.00000  Uiso   1.00
H116   H     0.57859   0.03747   0.23176   0.00000  Uiso   1.00
N117   N     0.38093   0.16668   0.25001   0.00000  Uiso   1.00
N118   N     0.61907   0.16666   0.24999   0.00000  Uiso   1.00
O119   O     0.46179   0.22775   0.25000   0.00000  Uiso   1.00
O120   O     0.64612   0.23181   0.01861   0.00000  Uiso   1.00
O121   O     0.64366   0.11919   0.18692   0.00000  Uiso   1.00
O122   O     0.35638   0.21425   0.31299   0.00000  Uiso   1.00
O123   O     0.53821   0.10558   0.24999   0.00000  Uiso   1.00
O124   O     0.53823   0.22774   0.25000   0.00000  Uiso   1.00
O125   O     0.46177   0.10559   0.25000   0.00000  Uiso   1.00
O126   O     0.43994   0.16667   0.31612   0.00000  Uiso   1.00
O127   O     0.56006   0.16666   0.18387   0.00000  Uiso   1.00
O128   O     0.51639   0.16666   0.31612   0.00000  Uiso   1.00
O129   O     0.48361   0.16667   0.18388   0.00000  Uiso   1.00
O130   O     0.34011   0.13919   0.49168   0.00000  Uiso   1.00
Zn131  Zn    0.44896   0.16667   0.25000   0.00000  Uiso   1.00
Zn132  Zn    0.55104   0.16666   0.25000   0.00000  Uiso   1.00
C133   C     0.83334   0.24670   0.25001   0.00000  Uiso   1.00
C134   C     0.78920   0.31206   0.25998   0.00000  Uiso   1.00
C135   C     0.83336   0.04248   0.24993   0.00000  Uiso   1.00
C136   C     0.83334   0.29085   0.24998   0.00000  Uiso   1.00
C137   C     0.98842   0.14289   0.21847   0.00000  Uiso   1.00
C138   C     0.67826   0.19049   0.28149   0.00000  Uiso   1.00
C139   C     0.70326   0.14299   0.21870   0.00000  Uiso   1.00
C140   C     0.96342   0.19038   0.28126   0.00000  Uiso   1.00
C141   C     0.80266   0.16712   0.33809   0.00000  Uiso   1.00
C142   C     0.86396   0.16708   0.16190   0.00000  Uiso   1.00
C143   C     0.78296   0.16905   0.38898   0.00000  Uiso   1.00
C144   C     0.83334   0.08663   0.24996   0.00000  Uiso   1.00
C145   C     0.88249   0.17394   0.11163   0.00000  Uiso   1.00
C146   C     0.71942   0.15419   0.46470   0.00000  Uiso   1.00
C147   C     0.93670   0.21031   0.04255   0.00000  Uiso   1.00
C148   C     0.73522   0.15640   0.41585   0.00000  Uiso   1.00
C149   C     0.92606   0.19552   0.08812   0.00000  Uiso   1.00
C150   C     0.81400   0.18218   0.41052   0.00000  Uiso   1.00
C151   C     0.85059   0.16564   0.08948   0.00000  Uiso   1.00
C152   C     0.79950   0.18104   0.45895   0.00000  Uiso   1.00
C153   C     0.85740   0.18341   0.04649   0.00000  Uiso   1.00
C154   C     0.75204   0.16563   0.48617   0.00000  Uiso   1.00
C155   C     0.77243   0.16739   0.05451   0.00000  Uiso   1.00
C156   C     0.90212   0.20431   0.02176   0.00000  Uiso   1.00
C157   C     0.83270   0.19155   0.48040   0.00000  Uiso   1.00
C158   C     0.82083   0.18035   0.02752   0.00000  Uiso   1.00
C159   C     0.87745   0.21251   0.45631   0.00000  Uiso   1.00
C160   C     0.73851   0.16086   0.03425   0.00000  Uiso   1.00
C161   C     0.91111   0.21924   0.47694   0.00000  Uiso   1.00
C162   C     0.87749   0.31198   0.23993   0.00000  Uiso   1.00
C163   C     0.78921   0.02135   0.25995   0.00000  Uiso   1.00
C164   C     0.87751   0.02126   0.23990   0.00000  Uiso   1.00
H165   H     0.70209   0.15054   0.05631   0.00000  Uiso   1.00
H166   H     0.75478   0.29586   0.26813   0.00000  Uiso   1.00
H167   H     0.98868   0.13304   0.47125   0.00000  Uiso   1.00
H168   H     0.99937   0.23309   0.03809   0.00000  Uiso   1.00
H169   H     0.75929   0.16311   0.09185   0.00000  Uiso   1.00
H170   H     0.88676   0.22555   0.42194   0.00000  Uiso   1.00
H171   H     0.67348   0.10413   0.16645   0.00000  Uiso   1.00
H172   H     0.99325   0.22937   0.33340   0.00000  Uiso   1.00
H173   H     0.73181   0.12415   0.19387   0.00000  Uiso   1.00
H174   H     0.93489   0.20927   0.30605   0.00000  Uiso   1.00
H175   H     0.94459   0.23577   0.45724   0.00000  Uiso   1.00
H176   H     0.81947   0.14597   0.10739   0.00000  Uiso   1.00
H177   H     0.85076   0.19090   0.38839   0.00000  Uiso   1.00
H178   H     0.95063   0.20224   0.10573   0.00000  Uiso   1.00
H179   H     0.71114   0.14650   0.39878   0.00000  Uiso   1.00
H180   H     0.91191   0.29570   0.23182   0.00000  Uiso   1.00
H181   H     0.75479   0.03762   0.26806   0.00000  Uiso   1.00
H182   H     0.91192   0.03747   0.23176   0.00000  Uiso   1.00
N183   N     0.71426   0.16668   0.25001   0.00000  Uiso   1.00
N184   N     0.95241   0.16666   0.24999   0.00000  Uiso   1.00
O185   O     0.79512   0.22775   0.25000   0.00000  Uiso   1.00
O186   O     0.97946   0.23181   0.01861   0.00000  Uiso   1.00
O187   O     0.97700   0.11919   0.18692   0.00000  Uiso   1.00
O188   O     0.68971   0.21425   0.31299   0.00000  Uiso   1.00
O189   O     0.87154   0.10558   0.24999   0.00000  Uiso   1.00
O190   O     0.87157   0.22774   0.25000   0.00000  Uiso   1.00
O191   O     0.79510   0.10559   0.25000   0.00000  Uiso   1.00
O192   O     0.77328   0.16667   0.31612   0.00000  Uiso   1.00
O193   O     0.89339   0.16666   0.18387   0.00000  Uiso   1.00
O194   O     0.84972   0.16666   0.31612   0.00000  Uiso   1.00
O195   O     0.81695   0.16667   0.18388   0.00000  Uiso   1.00
O196   O     0.67344   0.13919   0.49168   0.00000  Uiso   1.00
Zn197  Zn    0.78229   0.16667   0.25000   0.00000  Uiso   1.00
Zn198  Zn    0.88438   0.16666   0.25000   0.00000  Uiso   1.00
C199   C     0.16667   0.58003   0.25001   0.00000  Uiso   1.00
C200   C     0.12253   0.64540   0.25998   0.00000  Uiso   1.00
C201   C     0.16669   0.37581   0.24993   0.00000  Uiso   1.00
C202   C     0.16667   0.62418   0.24998   0.00000  Uiso   1.00
C203   C     0.32176   0.47622   0.21847   0.00000  Uiso   1.00
C204   C     0.01159   0.52382   0.28149   0.00000  Uiso   1.00
C205   C     0.03659   0.47633   0.21870   0.00000  Uiso   1.00
C206   C     0.29676   0.52372   0.28126   0.00000  Uiso   1.00
C207   C     0.13600   0.50045   0.33809   0.00000  Uiso   1.00
C208   C     0.19729   0.50042   0.16190   0.00000  Uiso   1.00
C209   C     0.11629   0.50238   0.38898   0.00000  Uiso   1.00
C210   C     0.16668   0.41996   0.24996   0.00000  Uiso   1.00
C211   C     0.21583   0.50728   0.11163   0.00000  Uiso   1.00
C212   C     0.05275   0.48752   0.46470   0.00000  Uiso   1.00
C213   C     0.27004   0.54364   0.04255   0.00000  Uiso   1.00
C214   C     0.06855   0.48973   0.41585   0.00000  Uiso   1.00
C215   C     0.25940   0.52885   0.08812   0.00000  Uiso   1.00
C216   C     0.14734   0.51551   0.41052   0.00000  Uiso   1.00
C217   C     0.18392   0.49897   0.08948   0.00000  Uiso   1.00
C218   C     0.13284   0.51437   0.45895   0.00000  Uiso   1.00
C219   C     0.19073   0.51675   0.04649   0.00000  Uiso   1.00
C220   C     0.08537   0.49896   0.48617   0.00000  Uiso   1.00
C221   C     0.10577   0.50073   0.05451   0.00000  Uiso   1.00
C222   C     0.23545   0.53764   0.02176   0.00000  Uiso   1.00
C223   C     0.16603   0.52488   0.48040   0.00000  Uiso   1.00
C224   C     0.15416   0.51368   0.02752   0.00000  Uiso   1.00
C225   C     0.21079   0.54584   0.45631   0.00000  Uiso   1.00
C226   C     0.07184   0.49419   0.03425   0.00000  Uiso   1.00
C227   C     0.24444   0.55257   0.47694   0.00000  Uiso   1.00
C228   C     0.21083   0.64531   0.23993   0.00000  Uiso   1.00
C229   C     0.12254   0.35468   0.25995   0.00000  Uiso   1.00
C230   C     0.21084   0.35460   0.23990   0.00000  Uiso   1.00
H231   H     0.03542   0.48388   0.05631   0.00000  Uiso   1.00
H232   H     0.08811   0.62919   0.26813   0.00000  Uiso   1.00
H233   H     0.32202   0.46637   0.47125   0.00000  Uiso   1.00
H234   H     0.33270   0.56642   0.03809   0.00000  Uiso   1.00
H235   H     0.09262   0.49645   0.09185   0.00000  Uiso   1.00
H236   H     0.22009   0.55888   0.42194   0.00000  Uiso   1.00
H237   H     0.00681   0.43747   0.16645   0.00000  Uiso   1.00
H238   H     0.32659   0.56271   0.33340   0.00000  Uiso   1.00
H239   H     0.06514   0.45749   0.19387   0.00000  Uiso   1.00
H240   H     0.26822   0.54260   0.30605   0.00000  Uiso   1.00
H241   H     0.27793   0.56910   0.45724   0.00000  Uiso   1.00
H242   H     0.15280   0.47931   0.10739   0.00000  Uiso   1.00
H243   H     0.18409   0.52423   0.38839   0.00000  Uiso   1.00
H244   H     0.28396   0.53558   0.10573   0.00000  Uiso   1.00
H245   H     0.04448   0.47983   0.39878   0.00000  Uiso   1.00
H246   H     0.24524   0.62903   0.23182   0.00000  Uiso   1.00
H247   H     0.08813   0.37096   0.26806   0.00000  Uiso   1.00
H248   H     0.24526   0.37081   0.23176   0.00000  Uiso   1.00
N249   N     0.04759   0.50001   0.25001   0.00000  Uiso   1.00
N250   N     0.28574   0.49999   0.24999   0.00000  Uiso   1.00
O251   O     0.12846   0.56108   0.25000   0.00000  Uiso   1.00
O252   O     0.31279   0.56515   0.01861   0.00000  Uiso   1.00
O253   O     0.31033   0.45252   0.18692   0.00000  Uiso   1.00
O254   O     0.02304   0.54758   0.31299   0.00000  Uiso   1.00
O255   O     0.20488   0.43892   0.24999   0.00000  Uiso   1.00
O256   O     0.20490   0.56107   0.25000   0.00000  Uiso   1.00
O257   O     0.12843   0.43893   0.25000   0.00000  Uiso   1.00
O258   O     0.10661   0.50001   0.31612   0.00000  Uiso   1.00
O259   O     0.22672   0.49999   0.18387   0.00000  Uiso   1.00
O260   O     0.18305   0.50000   0.31612   0.00000  Uiso   1.00
O261   O     0.15028   0.50000   0.18388   0.00000  Uiso   1.00
O262   O     0.00678   0.47252   0.49168   0.00000  Uiso   1.00
Zn263  Zn    0.11562   0.50001   0.25000   0.00000  Uiso   1.00
Zn264  Zn    0.21771   0.49999   0.25000   0.00000  Uiso   1.00
C265   C     0.50000   0.58003   0.25001   0.00000  Uiso   1.00
C266   C     0.45586   0.64540   0.25998   0.00000  Uiso   1.00
C267   C     0.50002   0.37581   0.24993   0.00000  Uiso   1.00
C268   C     0.50001   0.62418   0.24998   0.00000  Uiso   1.00
C269   C     0.65509   0.47622   0.21847   0.00000  Uiso   1.00
C270   C     0.34493   0.52382   0.28149   0.00000  Uiso   1.00
C271   C     0.36993   0.47633   0.21870   0.00000  Uiso   1.00
C272   C     0.63009   0.52372   0.28126   0.00000  Uiso   1.00
C273   C     0.46933   0.50045   0.33809   0.00000  Uiso   1.00
C274   C     0.53063   0.50042   0.16190   0.00000  Uiso   1.00
C275   C     0.44963   0.50238   0.38898   0.00000  Uiso   1.00
C276   C     0.50001   0.41996   0.24996   0.00000  Uiso   1.00
C277   C     0.54916   0.50728   0.11163   0.00000  Uiso   1.00
C278   C     0.38609   0.48752   0.46470   0.00000  Uiso   1.00
C279   C     0.60337   0.54364   0.04255   0.00000  Uiso   1.00
C280   C     0.40189   0.48973   0.41585   0.00000  Uiso   1.00
C281   C     0.59273   0.52885   0.08812   0.00000  Uiso   1.00
C282   C     0.48067   0.51551   0.41052   0.00000  Uiso   1.00
C283   C     0.51725   0.49897   0.08948   0.00000  Uiso   1.00
C284   C     0.46617   0.51437   0.45895   0.00000  Uiso   1.00
C285   C     0.52407   0.51675   0.04649   0.00000  Uiso   1.00
C286   C     0.41871   0.49896   0.48617   0.00000  Uiso   1.00
C287   C     0.43910   0.50073   0.05451   0.00000  Uiso   1.00
C288   C     0.56879   0.53764   0.02176   0.00000  Uiso   1.00
C289   C     0.49936   0.52488   0.48040   0.00000  Uiso   1.00
C290   C     0.48750   0.51368   0.02752   0.00000  Uiso   1.00
C291   C     0.54412   0.54584   0.45631   0.00000  Uiso   1.00
C292   C     0.40518   0.49419   0.03425   0.00000  Uiso   1.00
C293   C     0.57778   0.55257   0.47694   0.00000  Uiso   1.00
C294   C     0.54416   0.64531   0.23993   0.00000  Uiso   1.00
C295   C     0.45587   0.35468   0.25995   0.00000  Uiso   1.00
C296   C     0.54417   0.35460   0.23990   0.00000  Uiso   1.00
H297   H     0.36875   0.48388   0.05631   0.00000  Uiso   1.00
H298   H     0.42144   0.62919   0.26813   0.00000  Uiso   1.00
H299   H     0.65535   0.46637   0.47125   0.00000  Uiso   1.00
H300   H     0.66604   0.56642   0.03809   0.00000  Uiso   1.00
H301   H     0.42596   0.49645   0.09185   0.00000  Uiso   1.00
H302   H     0.55342   0.55888   0.42194   0.00000  Uiso   1.00
H303   H     0.34014   0.43747   0.16645   0.00000  Uiso   1.00
H304   H     0.65992   0.56271   0.33340   0.00000  Uiso   1.00
H305   H     0.39848   0.45749   0.19387   0.00000  Uiso   1.00
H306   H     0.60156   0.54260   0.30605   0.00000  Uiso   1.00
H307   H     0.61126   0.56910   0.45724   0.00000  Uiso   1.00
H308   H     0.48614   0.47931   0.10739   0.00000  Uiso   1.00
H309   H     0.51742   0.52423   0.38839   0.00000  Uiso   1.00
H310   H     0.61729   0.53558   0.10573   0.00000  Uiso   1.00
H311   H     0.37781   0.47983   0.39878   0.00000  Uiso   1.00
H312   H     0.57858   0.62903   0.23182   0.00000  Uiso   1.00
H313   H     0.42146   0.37096   0.26806   0.00000  Uiso   1.00
H314   H     0.57859   0.37081   0.23176   0.00000  Uiso   1.00
N315   N     0.38093   0.50001   0.25001   0.00000  Uiso   1.00
N316   N     0.61907   0.49999   0.24999   0.00000  Uiso   1.00
O317   O     0.46179   0.56108   0.25000   0.00000  Uiso   1.00
O318   O     0.64612   0.56515   0.01861   0.00000  Uiso   1.00
O319   O     0.64366   0.45252   0.18692   0.00000  Uiso   1.00
O320   O     0.35638   0.54758   0.31299   0.00000  Uiso   1.00
O321   O     0.53821   0.43892   0.24999   0.00000  Uiso   1.00
O322   O     0.53823   0.56107   0.25000   0.00000  Uiso   1.00
O323   O     0.46177   0.43893   0.25000   0.00000  Uiso   1.00
O324   O     0.43994   0.50001   0.31612   0.00000  Uiso   1.00
O325   O     0.56006   0.49999   0.18387   0.00000  Uiso   1.00
O326   O     0.51639   0.50000   0.31612   0.00000  Uiso   1.00
O327   O     0.48361   0.50000   0.18388   0.00000  Uiso   1.00
O328   O     0.34011   0.47252   0.49168   0.00000  Uiso   1.00
Zn329  Zn    0.44896   0.50001   0.25000   0.00000  Uiso   1.00
Zn330  Zn    0.55104   0.49999   0.25000   0.00000  Uiso   1.00
C331   C     0.83334   0.58003   0.25001   0.00000  Uiso   1.00
C332   C     0.78920   0.64540   0.25998   0.00000  Uiso   1.00
C333   C     0.83336   0.37581   0.24993   0.00000  Uiso   1.00
C334   C     0.83334   0.62418   0.24998   0.00000  Uiso   1.00
C335   C     0.98842   0.47622   0.21847   0.00000  Uiso   1.00
C336   C     0.67826   0.52382   0.28149   0.00000  Uiso   1.00
C337   C     0.70326   0.47633   0.21870   0.00000  Uiso   1.00
C338   C     0.96342   0.52372   0.28126   0.00000  Uiso   1.00
C339   C     0.80266   0.50045   0.33809   0.00000  Uiso   1.00
C340   C     0.86396   0.50042   0.16190   0.00000  Uiso   1.00
C341   C     0.78296   0.50238   0.38898   0.00000  Uiso   1.00
C342   C     0.83334   0.41996   0.24996   0.00000  Uiso   1.00
C343   C     0.88249   0.50728   0.11163   0.00000  Uiso   1.00
C344   C     0.71942   0.48752   0.46470   0.00000  Uiso   1.00
C345   C     0.93670   0.54364   0.04255   0.00000  Uiso   1.00
C346   C     0.73522   0.48973   0.41585   0.00000  Uiso   1.00
C347   C     0.92606   0.52885   0.08812   0.00000  Uiso   1.00
C348   C     0.81400   0.51551   0.41052   0.00000  Uiso   1.00
C349   C     0.85059   0.49897   0.08948   0.00000  Uiso   1.00
C350   C     0.79950   0.51437   0.45895   0.00000  Uiso   1.00
C351   C     0.85740   0.51675   0.04649   0.00000  Uiso   1.00
C352   C     0.75204   0.49896   0.48617   0.00000  Uiso   1.00
C353   C     0.77243   0.50073   0.05451   0.00000  Uiso   1.00
C354   C     0.90212   0.53764   0.02176   0.00000  Uiso   1.00
C355   C     0.83270   0.52488   0.48040   0.00000  Uiso   1.00
C356   C     0.82083   0.51368   0.02752   0.00000  Uiso   1.00
C357   C     0.87745   0.54584   0.45631   0.00000  Uiso   1.00
C358   C     0.73851   0.49419   0.03425   0.00000  Uiso   1.00
C359   C     0.91111   0.55257   0.47694   0.00000  Uiso   1.00
C360   C     0.87749   0.64531   0.23993   0.00000  Uiso   1.00
C361   C     0.78921   0.35468   0.25995   0.00000  Uiso   1.00
C362   C     0.87751   0.35460   0.23990   0.00000  Uiso   1.00
H363   H     0.70209   0.48388   0.05631   0.00000  Uiso   1.00
H364   H     0.75478   0.62919   0.26813   0.00000  Uiso   1.00
H365   H     0.98868   0.46637   0.47125   0.00000  Uiso   1.00
H366   H     0.99937   0.56642   0.03809   0.00000  Uiso   1.00
H367   H     0.75929   0.49645   0.09185   0.00000  Uiso   1.00
H368   H     0.88676   0.55888   0.42194   0.00000  Uiso   1.00
H369   H     0.67348   0.43747   0.16645   0.00000  Uiso   1.00
H370   H     0.99325   0.56271   0.33340   0.00000  Uiso   1.00
H371   H     0.73181   0.45749   0.19387   0.00000  Uiso   1.00
H372   H     0.93489   0.54260   0.30605   0.00000  Uiso   1.00
H373   H     0.94459   0.56910   0.45724   0.00000  Uiso   1.00
H374   H     0.81947   0.47931   0.10739   0.00000  Uiso   1.00
H375   H     0.85076   0.52423   0.38839   0.00000  Uiso   1.00
H376   H     0.95063   0.53558   0.10573   0.00000  Uiso   1.00
H377   H     0.71114   0.47983   0.39878   0.00000  Uiso   1.00
H378   H     0.91191   0.62903   0.23182   0.00000  Uiso   1.00
H379   H     0.75479   0.37096   0.26806   0.00000  Uiso   1.00
H380   H     0.91192   0.37081   0.23176   0.00000  Uiso   1.00
N381   N     0.71426   0.50001   0.25001   0.00000  Uiso   1.00
N382   N     0.95241   0.49999   0.24999   0.00000  Uiso   1.00
O383   O     0.79512   0.56108   0.25000   0.00000  Uiso   1.00
O384   O     0.97946   0.56515   0.01861   0.00000  Uiso   1.00
O385   O     0.97700   0.45252   0.18692   0.00000  Uiso   1.00
O386   O     0.68971   0.54758   0.31299   0.00000  Uiso   1.00
O387   O     0.87154   0.43892   0.24999   0.00000  Uiso   1.00
O388   O     0.87157   0.56107   0.25000   0.00000  Uiso   1.00
O389   O     0.79510   0.43893   0.25000   0.00000  Uiso   1.00
O390   O     0.77328   0.50001   0.31612   0.00000  Uiso   1.00
O391   O     0.89339   0.49999   0.18387   0.00000  Uiso   1.00
O392   O     0.84972   0.50000   0.31612   0.00000  Uiso   1.00
O393   O     0.81695   0.50000   0.18388   0.00000  Uiso   1.00
O394   O     0.67344   0.47252   0.49168   0.00000  Uiso   1.00
Zn395  Zn    0.78229   0.50001   0.25000   0.00000  Uiso   1.00
Zn396  Zn    0.88438   0.49999   0.25000   0.00000  Uiso   1.00
C397   C     0.16667   0.91337   0.25001   0.00000  Uiso   1.00
C398   C     0.12253   0.97873   0.25998   0.00000  Uiso   1.00
C399   C     0.16669   0.70915   0.24993   0.00000  Uiso   1.00
C400   C     0.16667   0.95751   0.24998   0.00000  Uiso   1.00
C401   C     0.32176   0.80956   0.21847   0.00000  Uiso   1.00
C402   C     0.01159   0.85716   0.28149   0.00000  Uiso   1.00
C403   C     0.03659   0.80966   0.21870   0.00000  Uiso   1.00
C404   C     0.29676   0.85705   0.28126   0.00000  Uiso   1.00
C405   C     0.13600   0.83378   0.33809   0.00000  Uiso   1.00
C406   C     0.19729   0.83375   0.16190   0.00000  Uiso   1.00
C407   C     0.11629   0.83571   0.38898   0.00000  Uiso   1.00
C408   C     0.16668   0.75330   0.24996   0.00000  Uiso   1.00
C409   C     0.21583   0.84061   0.11163   0.00000  Uiso   1.00
C410   C     0.05275   0.82085   0.46470   0.00000  Uiso   1.00
C411   C     0.27004   0.87698   0.04255   0.00000  Uiso   1.00
C412   C     0.06855   0.82306   0.41585   0.00000  Uiso   1.00
C413   C     0.25940   0.86218   0.08812   0.00000  Uiso   1.00
C414   C     0.14734   0.84885   0.41052   0.00000  Uiso   1.00
C415   C     0.18392   0.83231   0.08948   0.00000  Uiso   1.00
C416   C     0.13284   0.84770   0.45895   0.00000  Uiso   1.00
C417   C     0.19073   0.85008   0.04649   0.00000  Uiso   1.00
C418   C     0.08537   0.83230   0.48617   0.00000  Uiso   1.00
C419   C     0.10577   0.83406   0.05451   0.00000  Uiso   1.00
C420   C     0.23545   0.87097   0.02176   0.00000  Uiso   1.00
C421   C     0.16603   0.85822   0.48040   0.00000  Uiso   1.00
C422   C     0.15416   0.84701   0.02752   0.00000  Uiso   1.00
C423   C     0.21079   0.87918   0.45631   0.00000  Uiso   1.00
C424   C     0.07184   0.82753   0.03425   0.00000  Uiso   1.00
C425   C     0.24444   0.88590   0.47694   0.00000  Uiso   1.00
C426   C     0.21083   0.97864   0.23993   0.00000  Uiso   1.00
C427   C     0.12254   0.68802   0.25995   0.00000  Uiso   1.00
C428   C     0.21084   0.68793   0.23990   0.00000  Uiso   1.00
H429   H     0.03542   0.81721   0.05631   0.00000  Uiso   1.00
H430   H     0.08811   0.96252   0.26813   0.00000  Uiso   1.00
H431   H     0.32202   0.79971   0.47125   0.00000  Uiso   1.00
H432   H     0.33270   0.89975   0.03809   0.00000  Uiso   1.00
H433   H     0.09262   0.82978   0.09185   0.00000  Uiso   1.00
H434   H     0.22009   0.89221   0.42194   0.00000  Uiso   1.00
H435   H     0.00681   0.77080   0.16645   0.00000  Uiso   1.00
H436   H     0.32659   0.89604   0.33340   0.00000  Uiso   1.00
H437   H     0.06514   0.79082   0.19387   0.00000  Uiso   1.00
H438   H     0.26822   0.87593   0.30605   0.00000  Uiso   1.00
H439   H     0.27793   0.90243   0.45724   0.00000  Uiso   1.00
H440   H     0.15280   0.81264   0.10739   0.00000  Uiso   1.00
H441   H     0.18409   0.85756   0.38839   0.00000  Uiso   1.00
H442   H     0.28396   0.86891   0.10573   0.00000  Uiso   1.00
H443   H     0.04448   0.81317   0.39878   0.00000  Uiso   1.00
H444   H     0.24524   0.96236   0.23182   0.00000  Uiso   1.00
H445   H     0.08813   0.70429   0.26806   0.00000  Uiso   1.00
H446   H     0.24526   0.70414   0.23176   0.00000  Uiso   1.00
N447   N     0.04759   0.83334   0.25001   0.00000  Uiso   1.00
N448   N     0.28574   0.83332   0.24999   0.00000  Uiso   1.00
O449   O     0.12846   0.89442   0.25000   0.00000  Uiso   1.00
O450   O     0.31279   0.89848   0.01861   0.00000  Uiso   1.00
O451   O     0.31033   0.78586   0.18692   0.00000  Uiso   1.00
O452   O     0.02304   0.88091   0.31299   0.00000  Uiso   1.00
O453   O     0.20488   0.77225   0.24999   0.00000  Uiso   1.00
O454   O     0.20490   0.89441   0.25000   0.00000  Uiso   1.00
O455   O     0.12843   0.77226   0.25000   0.00000  Uiso   1.00
O456   O     0.10661   0.83334   0.31612   0.00000  Uiso   1.00
O457   O     0.22672   0.83333   0.18387   0.00000  Uiso   1.00
O458   O     0.18305   0.83333   0.31612   0.00000  Uiso   1.00
O459   O     0.15028   0.83334   0.18388   0.00000  Uiso   1.00
O460   O     0.00678   0.80586   0.49168   0.00000  Uiso   1.00
Zn461  Zn    0.11562   0.83334   0.25000   0.00000  Uiso   1.00
Zn462  Zn    0.21771   0.83333   0.25000   0.00000  Uiso   1.00
C463   C     0.50000   0.91337   0.25001   0.00000  Uiso   1.00
C464   C     0.45586   0.97873   0.25998   0.00000  Uiso   1.00
C465   C     0.50002   0.70915   0.24993   0.00000  Uiso   1.00
C466   C     0.50001   0.95751   0.24998   0.00000  Uiso   1.00
C467   C     0.65509   0.80956   0.21847   0.00000  Uiso   1.00
C468   C     0.34493   0.85716   0.28149   0.00000  Uiso   1.00
C469   C     0.36993   0.80966   0.21870   0.00000  Uiso   1.00
C470   C     0.63009   0.85705   0.28126   0.00000  Uiso   1.00
C471   C     0.46933   0.83378   0.33809   0.00000  Uiso   1.00
C472   C     0.53063   0.83375   0.16190   0.00000  Uiso   1.00
C473   C     0.44963   0.83571   0.38898   0.00000  Uiso   1.00
C474   C     0.50001   0.75330   0.24996   0.00000  Uiso   1.00
C475   C     0.54916   0.84061   0.11163   0.00000  Uiso   1.00
C476   C     0.38609   0.82085   0.46470   0.00000  Uiso   1.00
C477   C     0.60337   0.87698   0.04255   0.00000  Uiso   1.00
C478   C     0.40189   0.82306   0.41585   0.00000  Uiso   1.00
C479   C     0.59273   0.86218   0.08812   0.00000  Uiso   1.00
C480   C     0.48067   0.84885   0.41052   0.00000  Uiso   1.00
C481   C     0.51725   0.83231   0.08948   0.00000  Uiso   1.00
C482   C     0.46617   0.84770   0.45895   0.00000  Uiso   1.00
C483   C     0.52407   0.85008   0.04649   0.00000  Uiso   1.00
C484   C     0.41871   0.83230   0.48617   0.00000  Uiso   1.00
C485   C     0.43910   0.83406   0.05451   0.00000  Uiso   1.00
C486   C     0.56879   0.87097   0.02176   0.00000  Uiso   1.00
C487   C     0.49936   0.85822   0.48040   0.00000  Uiso   1.00
C488   C     0.48750   0.84701   0.02752   0.00000  Uiso   1.00
C489   C     0.54412   0.87918   0.45631   0.00000  Uiso   1.00
C490   C     0.40518   0.82753   0.03425   0.00000  Uiso   1.00
C491   C     0.57778   0.88590   0.47694   0.00000  Uiso   1.00
C492   C     0.54416   0.97864   0.23993   0.00000  Uiso   1.00
C493   C     0.45587   0.68802   0.25995   0.00000  Uiso   1.00
C494   C     0.54417   0.68793   0.23990   0.00000  Uiso   1.00
H495   H     0.36875   0.81721   0.05631   0.00000  Uiso   1.00
H496   H     0.42144   0.96252   0.26813   0.00000  Uiso   1.00
H497   H     0.65535   0.79971   0.47125   0.00000  Uiso   1.00
H498   H     0.66604   0.89975   0.03809   0.00000  Uiso   1.00
H499   H     0.42596   0.82978   0.09185   0.00000  Uiso   1.00
H500   H     0.55342   0.89221   0.42194   0.00000  Uiso   1.00
H501   H     0.34014   0.77080   0.16645   0.00000  Uiso   1.00
H502   H     0.65992   0.89604   0.33340   0.00000  Uiso   1.00
H503   H     0.39848   0.79082   0.19387   0.00000  Uiso   1.00
H504   H     0.60156   0.87593   0.30605   0.00000  Uiso   1.00
H505   H     0.61126   0.90243   0.45724   0.00000  Uiso   1.00
H506   H     0.48614   0.81264   0.10739   0.00000  Uiso   1.00
H507   H     0.51742   0.85756   0.38839   0.00000  Uiso   1.00
H508   H     0.61729   0.86891   0.10573   0.00000  Uiso   1.00
H509   H     0.37781   0.81317   0.39878   0.00000  Uiso   1.00
H510   H     0.57858   0.96236   0.23182   0.00000  Uiso   1.00
H511   H     0.42146   0.70429   0.26806   0.00000  Uiso   1.00
H512   H     0.57859   0.70414   0.23176   0.00000  Uiso   1.00
N513   N     0.38093   0.83334   0.25001   0.00000  Uiso   1.00
N514   N     0.61907   0.83332   0.24999   0.00000  Uiso   1.00
O515   O     0.46179   0.89442   0.25000   0.00000  Uiso   1.00
O516   O     0.64612   0.89848   0.01861   0.00000  Uiso   1.00
O517   O     0.64366   0.78586   0.18692   0.00000  Uiso   1.00
O518   O     0.35638   0.88091   0.31299   0.00000  Uiso   1.00
O519   O     0.53821   0.77225   0.24999   0.00000  Uiso   1.00
O520   O     0.53823   0.89441   0.25000   0.00000  Uiso   1.00
O521   O     0.46177   0.77226   0.25000   0.00000  Uiso   1.00
O522   O     0.43994   0.83334   0.31612   0.00000  Uiso   1.00
O523   O     0.56006   0.83333   0.18387   0.00000  Uiso   1.00
O524   O     0.51639   0.83333   0.31612   0.00000  Uiso   1.00
O525   O     0.48361   0.83334   0.18388   0.00000  Uiso   1.00
O526   O     0.34011   0.80586   0.49168   0.00000  Uiso   1.00
Zn527  Zn    0.44896   0.83334   0.25000   0.00000  Uiso   1.00
Zn528  Zn    0.55104   0.83333   0.25000   0.00000  Uiso   1.00
C529   C     0.83334   0.91337   0.25001   0.00000  Uiso   1.00
C530   C     0.78920   0.97873   0.25998   0.00000  Uiso   1.00
C531   C     0.83336   0.70915   0.24993   0.00000  Uiso   1.00
C532   C     0.83334   0.95751   0.24998   0.00000  Uiso   1.00
C533   C     0.98842   0.80956   0.21847   0.00000  Uiso   1.00
C534   C     0.67826   0.85716   0.28149   0.00000  Uiso   1.00
C535   C     0.70326   0.80966   0.21870   0.00000  Uiso   1.00
C536   C     0.96342   0.85705   0.28126   0.00000  Uiso   1.00
C537   C     0.80266   0.83378   0.33809   0.00000  Uiso   1.00
C538   C     0.86396   0.83375   0.16190   0.00000  Uiso   1.00
C539   C     0.78296   0.83571   0.38898   0.00000  Uiso   1.00
C540   C     0.83334   0.75330   0.24996   0.00000  Uiso   1.00
C541   C     0.88249   0.84061   0.11163   0.00000  Uiso   1.00
C542   C     0.71942   0.82085   0.46470   0.00000  Uiso   1.00
C543   C     0.93670   0.87698   0.04255   0.00000  Uiso   1.00
C544   C     0.73522   0.82306   0.41585   0.00000  Uiso   1.00
C545   C     0.92606   0.86218   0.08812   0.00000  Uiso   1.00
C546   C     0.81400   0.84885   0.41052   0.00000  Uiso   1.00
C547   C     0.85059   0.83231   0.08948   0.00000  Uiso   1.00
C548   C     0.79950   0.84770   0.45895   0.00000  Uiso   1.00
C549   C     0.85740   0.85008   0.04649   0.00000  Uiso   1.00
C550   C     0.75204   0.83230   0.48617   0.00000  Uiso   1.00
C551   C     0.77243   0.83406   0.05451   0.00000  Uiso   1.00
C552   C     0.90212   0.87097   0.02176   0.00000  Uiso   1.00
C553   C     0.83270   0.85822   0.48040   0.00000  Uiso   1.00
C554   C     0.82083   0.84701   0.02752   0.00000  Uiso   1.00
C555   C     0.87745   0.87918   0.45631   0.00000  Uiso   1.00
C556   C     0.73851   0.82753   0.03425   0.00000  Uiso   1.00
C557   C     0.91111   0.88590   0.47694   0.00000  Uiso   1.00
C558   C     0.87749   0.97864   0.23993   0.00000  Uiso   1.00
C559   C     0.78921   0.68802   0.25995   0.00000  Uiso   1.00
C560   C     0.87751   0.68793   0.23990   0.00000  Uiso   1.00
H561   H     0.70209   0.81721   0.05631   0.00000  Uiso   1.00
H562   H     0.75478   0.96252   0.26813   0.00000  Uiso   1.00
H563   H     0.98868   0.79971   0.47125   0.00000  Uiso   1.00
H564   H     0.99937   0.89975   0.03809   0.00000  Uiso   1.00
H565   H     0.75929   0.82978   0.09185   0.00000  Uiso   1.00
H566   H     0.88676   0.89221   0.42194   0.00000  Uiso   1.00
H567   H     0.67348   0.77080   0.16645   0.00000  Uiso   1.00
H568   H     0.99325   0.89604   0.33340   0.00000  Uiso   1.00
H569   H     0.73181   0.79082   0.19387   0.00000  Uiso   1.00
H570   H     0.93489   0.87593   0.30605   0.00000  Uiso   1.00
H571   H     0.94459   0.90243   0.45724   0.00000  Uiso   1.00
H572   H     0.81947   0.81264   0.10739   0.00000  Uiso   1.00
H573   H     0.85076   0.85756   0.38839   0.00000  Uiso   1.00
H574   H     0.95063   0.86891   0.10573   0.00000  Uiso   1.00
H575   H     0.71114   0.81317   0.39878   0.00000  Uiso   1.00
H576   H     0.91191   0.96236   0.23182   0.00000  Uiso   1.00
H577   H     0.75479   0.70429   0.26806   0.00000  Uiso   1.00
H578   H     0.91192   0.70414   0.23176   0.00000  Uiso   1.00
N579   N     0.71426   0.83334   0.25001   0.00000  Uiso   1.00
N580   N     0.95241   0.83332   0.24999   0.00000  Uiso   1.00
O581   O     0.79512   0.89442   0.25000   0.00000  Uiso   1.00
O582   O     0.97946   0.89848   0.01861   0.00000  Uiso   1.00
O583   O     0.97700   0.78586   0.18692   0.00000  Uiso   1.00
O584   O     0.68971   0.88091   0.31299   0.00000  Uiso   1.00
O585   O     0.87154   0.77225   0.24999   0.00000  Uiso   1.00
O586   O     0.87157   0.89441   0.25000   0.00000  Uiso   1.00
O587   O     0.79510   0.77226   0.25000   0.00000  Uiso   1.00
O588   O     0.77328   0.83334   0.31612   0.00000  Uiso   1.00
O589   O     0.89339   0.83333   0.18387   0.00000  Uiso   1.00
O590   O     0.84972   0.83333   0.31612   0.00000  Uiso   1.00
O591   O     0.81695   0.83334   0.18388   0.00000  Uiso   1.00
O592   O     0.67344   0.80586   0.49168   0.00000  Uiso   1.00
Zn593  Zn    0.78229   0.83334   0.25000   0.00000  Uiso   1.00
Zn594  Zn    0.88438   0.83333   0.25000   0.00000  Uiso   1.00
C595   C     0.16667   0.24670   0.75001   0.00000  Uiso   1.00
C596   C     0.12253   0.31206   0.75998   0.00000  Uiso   1.00
C597   C     0.16669   0.04248   0.74993   0.00000  Uiso   1.00
C598   C     0.16667   0.29085   0.74998   0.00000  Uiso   1.00
C599   C     0.32176   0.14289   0.71847   0.00000  Uiso   1.00
C600   C     0.01159   0.19049   0.78149   0.00000  Uiso   1.00
C601   C     0.03659   0.14299   0.71870   0.00000  Uiso   1.00
C602   C     0.29676   0.19038   0.78126   0.00000  Uiso   1.00
C603   C     0.13600   0.16712   0.83809   0.00000  Uiso   1.00
C604   C     0.19729   0.16708   0.66190   0.00000  Uiso   1.00
C605   C     0.11629   0.16905   0.88898   0.00000  Uiso   1.00
C606   C     0.16668   0.08663   0.74996   0.00000  Uiso   1.00
C607   C     0.21583   0.17394   0.61163   0.00000  Uiso   1.00
C608   C     0.05275   0.15419   0.96470   0.00000  Uiso   1.00
C609   C     0.27004   0.21031   0.54255   0.00000  Uiso   1.00
C610   C     0.06855   0.15640   0.91585   0.00000  Uiso   1.00
C611   C     0.25940   0.19552   0.58812   0.00000  Uiso   1.00
C612   C     0.14734   0.18218   0.91052   0.00000  Uiso   1.00
C613   C     0.18392   0.16564   0.58948   0.00000  Uiso   1.00
C614   C     0.13284   0.18104   0.95895   0.00000  Uiso   1.00
C615   C     0.19073   0.18341   0.54649   0.00000  Uiso   1.00
C616   C     0.08537   0.16563   0.98617   0.00000  Uiso   1.00
C617   C     0.10577   0.16739   0.55451   0.00000  Uiso   1.00
C618   C     0.23545   0.20431   0.52176   0.00000  Uiso   1.00
C619   C     0.16603   0.19155   0.98040   0.00000  Uiso   1.00
C620   C     0.15416   0.18035   0.52752   0.00000  Uiso   1.00
C621   C     0.21079   0.21251   0.95631   0.00000  Uiso   1.00
C622   C     0.07184   0.16086   0.53425   0.00000  Uiso   1.00
C623   C     0.24444   0.21924   0.97694   0.00000  Uiso   1.00
C624   C     0.21083   0.31198   0.73993   0.00000  Uiso   1.00
C625   C     0.12254   0.02135   0.75995   0.00000  Uiso   1.00
C626   C     0.21084   0.02126   0.73990   0.00000  Uiso   1.00
H627   H     0.03542   0.15054   0.55631   0.00000  Uiso   1.00
H628   H     0.08811   0.29586   0.76813   0.00000  Uiso   1.00
H629   H     0.32202   0.13304   0.97125   0.00000  Uiso   1.00
H630   H     0.33270   0.23309   0.53809   0.00000  Uiso   1.00
H631   H     0.09262   0.16311   0.59185   0.00000  Uiso   1.00
H632   H     0.22009   0.22555   0.92194   0.00000  Uiso   1.00
H633   H     0.00681   0.10413   0.66645   0.00000  Uiso   1.00
H634   H     0.32659   0.22937   0.83340   0.00000  Uiso   1.00
H635   H     0.06514   0.12415   0.69387   0.00000  Uiso   1.00
H636   H     0.26822   0.20927   0.80605   0.00000  Uiso   1.00
H637   H     0.27793   0.23577   0.95724   0.00000  Uiso   1.00
H638   H     0.15280   0.14597   0.60739   0.00000  Uiso   1.00
H639   H     0.18409   0.19090   0.88839   0.00000  Uiso   1.00
H640   H     0.28396   0.20224   0.60573   0.00000  Uiso   1.00
H641   H     0.04448   0.14650   0.89878   0.00000  Uiso   1.00
H642   H     0.24524   0.29570   0.73182   0.00000  Uiso   1.00
H643   H     0.08813   0.03762   0.76806   0.00000  Uiso   1.00
H644   H     0.24526   0.03747   0.73176   0.00000  Uiso   1.00
N645   N     0.04759   0.16668   0.75001   0.00000  Uiso   1.00
N646   N     0.28574   0.16666   0.74999   0.00000  Uiso   1.00
O647   O     0.12846   0.22775   0.75000   0.00000  Uiso   1.00
O648   O     0.31279   0.23181   0.51861   0.00000  Uiso   1.00
O649   O     0.31033   0.11919   0.68692   0.00000  Uiso   1.00
O650   O     0.02304   0.21425   0.81299   0.00000  Uiso   1.00
O651   O     0.20488   0.10558   0.74999   0.00000  Uiso   1.00
O652   O     0.20490   0.22774   0.75000   0.00000  Uiso   1.00
O653   O     0.12843   0.10559   0.75000   0.00000  Uiso   1.00
O654   O     0.10661   0.16667   0.81612   0.00000  Uiso   1.00
O655   O     0.22672   0.16666   0.68387   0.00000  Uiso   1.00
O656   O     0.18305   0.16666   0.81612   0.00000  Uiso   1.00
O657   O     0.15028   0.16667   0.68388   0.00000  Uiso   1.00
O658   O     0.00678   0.13919   0.99168   0.00000  Uiso   1.00
Zn659  Zn    0.11562   0.16667   0.75000   0.00000  Uiso   1.00
Zn660  Zn    0.21771   0.16666   0.75000   0.00000  Uiso   1.00
C661   C     0.50000   0.24670   0.75001   0.00000  Uiso   1.00
C662   C     0.45586   0.31206   0.75998   0.00000  Uiso   1.00
C663   C     0.50002   0.04248   0.74993   0.00000  Uiso   1.00
C664   C     0.50001   0.29085   0.74998   0.00000  Uiso   1.00
C665   C     0.65509   0.14289   0.71847   0.00000  Uiso   1.00
C666   C     0.34493   0.19049   0.78149   0.00000  Uiso   1.00
C667   C     0.36993   0.14299   0.71870   0.00000  Uiso   1.00
C668   C     0.63009   0.19038   0.78126   0.00000  Uiso   1.00
C669   C     0.46933   0.16712   0.83809   0.00000  Uiso   1.00
C670   C     0.53063   0.16708   0.66190   0.00000  Uiso   1.00
C671   C     0.44963   0.16905   0.88898   0.00000  Uiso   1.00
C672   C     0.50001   0.08663   0.74996   0.00000  Uiso   1.00
C673   C     0.54916   0.17394   0.61163   0.00000  Uiso   1.00
C674   C     0.38609   0.15419   0.96470   0.00000  Uiso   1.00
C675   C     0.60337   0.21031   0.54255   0.00000  Uiso   1.00
C676   C     0.40189   0.15640   0.91585   0.00000  Uiso   1.00
C677   C     0.59273   0.19552   0.58812   0.00000  Uiso   1.00
C678   C     0.48067   0.18218   0.91052   0.00000  Uiso   1.00
C679   C     0.51725   0.16564   0.58948   0.00000  Uiso   1.00
C680   C     0.46617   0.18104   0.95895   0.00000  Uiso   1.00
C681   C     0.52407   0.18341   0.54649   0.00000  Uiso   1.00
C682   C     0.41871   0.16563   0.98617   0.00000  Uiso   1.00
C683   C     0.43910   0.16739   0.55451   0.00000  Uiso   1.00
C684   C     0.56879   0.20431   0.52176   0.00000  Uiso   1.00
C685   C     0.49936   0.19155   0.98040   0.00000  Uiso   1.00
C686   C     0.48750   0.18035   0.52752   0.00000  Uiso   1.00
C687   C     0.54412   0.21251   0.95631   0.00000  Uiso   1.00
C688   C     0.40518   0.16086   0.53425   0.00000  Uiso   1.00
C689   C     0.57778   0.21924   0.97694   0.00000  Uiso   1.00
C690   C     0.54416   0.31198   0.73993   0.00000  Uiso   1.00
C691   C     0.45587   0.02135   0.75995   0.00000  Uiso   1.00
C692   C     0.54417   0.02126   0.73990   0.00000  Uiso   1.00
H693   H     0.36875   0.15054   0.55631   0.00000  Uiso   1.00
H694   H     0.42144   0.29586   0.76813   0.00000  Uiso   1.00
H695   H     0.65535   0.13304   0.97125   0.00000  Uiso   1.00
H696   H     0.66604   0.23309   0.53809   0.00000  Uiso   1.00
H697   H     0.42596   0.16311   0.59185   0.00000  Uiso   1.00
H698   H     0.55342   0.22555   0.92194   0.00000  Uiso   1.00
H699   H     0.34014   0.10413   0.66645   0.00000  Uiso   1.00
H700   H     0.65992   0.22937   0.83340   0.00000  Uiso   1.00
H701   H     0.39848   0.12415   0.69387   0.00000  Uiso   1.00
H702   H     0.60156   0.20927   0.80605   0.00000  Uiso   1.00
H703   H     0.61126   0.23577   0.95724   0.00000  Uiso   1.00
H704   H     0.48614   0.14597   0.60739   0.00000  Uiso   1.00
H705   H     0.51742   0.19090   0.88839   0.00000  Uiso   1.00
H706   H     0.61729   0.20224   0.60573   0.00000  Uiso   1.00
H707   H     0.37781   0.14650   0.89878   0.00000  Uiso   1.00
H708   H     0.57858   0.29570   0.73182   0.00000  Uiso   1.00
H709   H     0.42146   0.03762   0.76806   0.00000  Uiso   1.00
H710   H     0.57859   0.03747   0.73176   0.00000  Uiso   1.00
N711   N     0.38093   0.16668   0.75001   0.00000  Uiso   1.00
N712   N     0.61907   0.16666   0.74999   0.00000  Uiso   1.00
O713   O     0.46179   0.22775   0.75000   0.00000  Uiso   1.00
O714   O     0.64612   0.23181   0.51861   0.00000  Uiso   1.00
O715   O     0.64366   0.11919   0.68692   0.00000  Uiso   1.00
O716   O     0.35638   0.21425   0.81299   0.00000  Uiso   1.00
O717   O     0.53821   0.10558   0.74999   0.00000  Uiso   1.00
O718   O     0.53823   0.22774   0.75000   0.00000  Uiso   1.00
O719   O     0.46177   0.10559   0.75000   0.00000  Uiso   1.00
O720   O     0.43994   0.16667   0.81612   0.00000  Uiso   1.00
O721   O     0.56006   0.16666   0.68387   0.00000  Uiso   1.00
O722   O     0.51639   0.16666   0.81612   0.00000  Uiso   1.00
O723   O     0.48361   0.16667   0.68388   0.00000  Uiso   1.00
O724   O     0.34011   0.13919   0.99168   0.00000  Uiso   1.00
Zn725  Zn    0.44896   0.16667   0.75000   0.00000  Uiso   1.00
Zn726  Zn    0.55104   0.16666   0.75000   0.00000  Uiso   1.00
C727   C     0.83334   0.24670   0.75001   0.00000  Uiso   1.00
C728   C     0.78920   0.31206   0.75998   0.00000  Uiso   1.00
C729   C     0.83336   0.04248   0.74993   0.00000  Uiso   1.00
C730   C     0.83334   0.29085   0.74998   0.00000  Uiso   1.00
C731   C     0.98842   0.14289   0.71847   0.00000  Uiso   1.00
C732   C     0.67826   0.19049   0.78149   0.00000  Uiso   1.00
C733   C     0.70326   0.14299   0.71870   0.00000  Uiso   1.00
C734   C     0.96342   0.19038   0.78126   0.00000  Uiso   1.00
C735   C     0.80266   0.16712   0.83809   0.00000  Uiso   1.00
C736   C     0.86396   0.16708   0.66190   0.00000  Uiso   1.00
C737   C     0.78296   0.16905   0.88898   0.00000  Uiso   1.00
C738   C     0.83334   0.08663   0.74996   0.00000  Uiso   1.00
C739   C     0.88249   0.17394   0.61163   0.00000  Uiso   1.00
C740   C     0.71942   0.15419   0.96470   0.00000  Uiso   1.00
C741   C     0.93670   0.21031   0.54255   0.00000  Uiso   1.00
C742   C     0.73522   0.15640   0.91585   0.00000  Uiso   1.00
C743   C     0.92606   0.19552   0.58812   0.00000  Uiso   1.00
C744   C     0.81400   0.18218   0.91052   0.00000  Uiso   1.00
C745   C     0.85059   0.16564   0.58948   0.00000  Uiso   1.00
C746   C     0.79950   0.18104   0.95895   0.00000  Uiso   1.00
C747   C     0.85740   0.18341   0.54649   0.00000  Uiso   1.00
C748   C     0.75204   0.16563   0.98617   0.00000  Uiso   1.00
C749   C     0.77243   0.16739   0.55451   0.00000  Uiso   1.00
C750   C     0.90212   0.20431   0.52176   0.00000  Uiso   1.00
C751   C     0.83270   0.19155   0.98040   0.00000  Uiso   1.00
C752   C     0.82083   0.18035   0.52752   0.00000  Uiso   1.00
C753   C     0.87745   0.21251   0.95631   0.00000  Uiso   1.00
C754   C     0.73851   0.16086   0.53425   0.00000  Uiso   1.00
C755   C     0.91111   0.21924   0.97694   0.00000  Uiso   1.00
C756   C     0.87749   0.31198   0.73993   0.00000  Uiso   1.00
C757   C     0.78921   0.02135   0.75995   0.00000  Uiso   1.00
C758   C     0.87751   0.02126   0.73990   0.00000  Uiso   1.00
H759   H     0.70209   0.15054   0.55631   0.00000  Uiso   1.00
H760   H     0.75478   0.29586   0.76813   0.00000  Uiso   1.00
H761   H     0.98868   0.13304   0.97125   0.00000  Uiso   1.00
H762   H     0.99937   0.23309   0.53809   0.00000  Uiso   1.00
H763   H     0.75929   0.16311   0.59185   0.00000  Uiso   1.00
H764   H     0.88676   0.22555   0.92194   0.00000  Uiso   1.00
H765   H     0.67348   0.10413   0.66645   0.00000  Uiso   1.00
H766   H     0.99325   0.22937   0.83340   0.00000  Uiso   1.00
H767   H     0.73181   0.12415   0.69387   0.00000  Uiso   1.00
H768   H     0.93489   0.20927   0.80605   0.00000  Uiso   1.00
H769   H     0.94459   0.23577   0.95724   0.00000  Uiso   1.00
H770   H     0.81947   0.14597   0.60739   0.00000  Uiso   1.00
H771   H     0.85076   0.19090   0.88839   0.00000  Uiso   1.00
H772   H     0.95063   0.20224   0.60573   0.00000  Uiso   1.00
H773   H     0.71114   0.14650   0.89878   0.00000  Uiso   1.00
H774   H     0.91191   0.29570   0.73182   0.00000  Uiso   1.00
H775   H     0.75479   0.03762   0.76806   0.00000  Uiso   1.00
H776   H     0.91192   0.03747   0.73176   0.00000  Uiso   1.00
N777   N     0.71426   0.16668   0.75001   0.00000  Uiso   1.00
N778   N     0.95241   0.16666   0.74999   0.00000  Uiso   1.00
O779   O     0.79512   0.22775   0.75000   0.00000  Uiso   1.00
O780   O     0.97946   0.23181   0.51861   0.00000  Uiso   1.00
O781   O     0.97700   0.11919   0.68692   0.00000  Uiso   1.00
O782   O     0.68971   0.21425   0.81299   0.00000  Uiso   1.00
O783   O     0.87154   0.10558   0.74999   0.00000  Uiso   1.00
O784   O     0.87157   0.22774   0.75000   0.00000  Uiso   1.00
O785   O     0.79510   0.10559   0.75000   0.00000  Uiso   1.00
O786   O     0.77328   0.16667   0.81612   0.00000  Uiso   1.00
O787   O     0.89339   0.16666   0.68387   0.00000  Uiso   1.00
O788   O     0.84972   0.16666   0.81612   0.00000  Uiso   1.00
O789   O     0.81695   0.16667   0.68388   0.00000  Uiso   1.00
O790   O     0.67344   0.13919   0.99168   0.00000  Uiso   1.00
Zn791  Zn    0.78229   0.16667   0.75000   0.00000  Uiso   1.00
Zn792  Zn    0.88438   0.16666   0.75000   0.00000  Uiso   1.00
C793   C     0.16667   0.58003   0.75001   0.00000  Uiso   1.00
C794   C     0.12253   0.64540   0.75998   0.00000  Uiso   1.00
C795   C     0.16669   0.37581   0.74993   0.00000  Uiso   1.00
C796   C     0.16667   0.62418   0.74998   0.00000  Uiso   1.00
C797   C     0.32176   0.47622   0.71847   0.00000  Uiso   1.00
C798   C     0.01159   0.52382   0.78149   0.00000  Uiso   1.00
C799   C     0.03659   0.47633   0.71870   0.00000  Uiso   1.00
C800   C     0.29676   0.52372   0.78126   0.00000  Uiso   1.00
C801   C     0.13600   0.50045   0.83809   0.00000  Uiso   1.00
C802   C     0.19729   0.50042   0.66190   0.00000  Uiso   1.00
C803   C     0.11629   0.50238   0.88898   0.00000  Uiso   1.00
C804   C     0.16668   0.41996   0.74996   0.00000  Uiso   1.00
C805   C     0.21583   0.50728   0.61163   0.00000  Uiso   1.00
C806   C     0.05275   0.48752   0.96470   0.00000  Uiso   1.00
C807   C     0.27004   0.54364   0.54255   0.00000  Uiso   1.00
C808   C     0.06855   0.48973   0.91585   0.00000  Uiso   1.00
C809   C     0.25940   0.52885   0.58812   0.00000  Uiso   1.00
C810   C     0.14734   0.51551   0.91052   0.00000  Uiso   1.00
C811   C     0.18392   0.49897   0.58948   0.00000  Uiso   1.00
C812   C     0.13284   0.51437   0.95895   0.00000  Uiso   1.00
C813   C     0.19073   0.51675   0.54649   0.00000  Uiso   1.00
C814   C     0.08537   0.49896   0.98617   0.00000  Uiso   1.00
C815   C     0.10577   0.50073   0.55451   0.00000  Uiso   1.00
C816   C     0.23545   0.53764   0.52176   0.00000  Uiso   1.00
C817   C     0.16603   0.52488   0.98040   0.00000  Uiso   1.00
C818   C     0.15416   0.51368   0.52752   0.00000  Uiso   1.00
C819   C     0.21079   0.54584   0.95631   0.00000  Uiso   1.00
C820   C     0.07184   0.49419   0.53425   0.00000  Uiso   1.00
C821   C     0.24444   0.55257   0.97694   0.00000  Uiso   1.00
C822   C     0.21083   0.64531   0.73993   0.00000  Uiso   1.00
C823   C     0.12254   0.35468   0.75995   0.00000  Uiso   1.00
C824   C     0.21084   0.35460   0.73990   0.00000  Uiso   1.00
H825   H     0.03542   0.48388   0.55631   0.00000  Uiso   1.00
H826   H     0.08811   0.62919   0.76813   0.00000  Uiso   1.00
H827   H     0.32202   0.46637   0.97125   0.00000  Uiso   1.00
H828   H     0.33270   0.56642   0.53809   0.00000  Uiso   1.00
H829   H     0.09262   0.49645   0.59185   0.00000  Uiso   1.00
H830   H     0.22009   0.55888   0.92194   0.00000  Uiso   1.00
H831   H     0.00681   0.43747   0.66645   0.00000  Uiso   1.00
H832   H     0.32659   0.56271   0.83340   0.00000  Uiso   1.00
H833   H     0.06514   0.45749   0.69387   0.00000  Uiso   1.00
H834   H     0.26822   0.54260   0.80605   0.00000  Uiso   1.00
H835   H     0.27793   0.56910   0.95724   0.00000  Uiso   1.00
H836   H     0.15280   0.47931   0.60739   0.00000  Uiso   1.00
H837   H     0.18409   0.52423   0.88839   0.00000  Uiso   1.00
H838   H     0.28396   0.53558   0.60573   0.00000  Uiso   1.00
H839   H     0.04448   0.47983   0.89878   0.00000  Uiso   1.00
H840   H     0.24524   0.62903   0.73182   0.00000  Uiso   1.00
H841   H     0.08813   0.37096   0.76806   0.00000  Uiso   1.00
H842   H     0.24526   0.37081   0.73176   0.00000  Uiso   1.00
N843   N     0.04759   0.50001   0.75001   0.00000  Uiso   1.00
N844   N     0.28574   0.49999   0.74999   0.00000  Uiso   1.00
O845   O     0.12846   0.56108   0.75000   0.00000  Uiso   1.00
O846   O     0.31279   0.56515   0.51861   0.00000  Uiso   1.00
O847   O     0.31033   0.45252   0.68692   0.00000  Uiso   1.00
O848   O     0.02304   0.54758   0.81299   0.00000  Uiso   1.00
O849   O     0.20488   0.43892   0.74999   0.00000  Uiso   1.00
O850   O     0.20490   0.56107   0.75000   0.00000  Uiso   1.00
O851   O     0.12843   0.43893   0.75000   0.00000  Uiso   1.00
O852   O     0.10661   0.50001   0.81612   0.00000  Uiso   1.00
O853   O     0.22672   0.49999   0.68387   0.00000  Uiso   1.00
O854   O     0.18305   0.50000   0.81612   0.00000  Uiso   1.00
O855   O     0.15028   0.50000   0.68388   0.00000  Uiso   1.00
O856   O     0.00678   0.47252   0.99168   0.00000  Uiso   1.00
Zn857  Zn    0.11562   0.50001   0.75000   0.00000  Uiso   1.00
Zn858  Zn    0.21771   0.49999   0.75000   0.00000  Uiso   1.00
C859   C     0.50000   0.58003   0.75001   0.00000  Uiso   1.00
C860   C     0.45586   0.64540   0.75998   0.00000  Uiso   1.00
C861   C     0.50002   0.37581   0.74993   0.00000  Uiso   1.00
C862   C     0.50001   0.62418   0.74998   0.00000  Uiso   1.00
C863   C     0.65509   0.47622   0.71847   0.00000  Uiso   1.00
C864   C     0.34493   0.52382   0.78149   0.00000  Uiso   1.00
C865   C     0.36993   0.47633   0.71870   0.00000  Uiso   1.00
C866   C     0.63009   0.52372   0.78126   0.00000  Uiso   1.00
C867   C     0.46933   0.50045   0.83809   0.00000  Uiso   1.00
C868   C     0.53063   0.50042   0.66190   0.00000  Uiso   1.00
C869   C     0.44963   0.50238   0.88898   0.00000  Uiso   1.00
C870   C     0.50001   0.41996   0.74996   0.00000  Uiso   1.00
C871   C     0.54916   0.50728   0.61163   0.00000  Uiso   1.00
C872   C     0.38609   0.48752   0.96470   0.00000  Uiso   1.00
C873   C     0.60337   0.54364   0.54255   0.00000  Uiso   1.00
C874   C     0.40189   0.48973   0.91585   0.00000  Uiso   1.00
C875   C     0.59273   0.52885   0.58812   0.00000  Uiso   1.00
C876   C     0.48067   0.51551   0.91052   0.00000  Uiso   1.00
C877   C     0.51725   0.49897   0.58948   0.00000  Uiso   1.00
C878   C     0.46617   0.51437   0.95895   0.00000  Uiso   1.00
C879   C     0.52407   0.51675   0.54649   0.00000  Uiso   1.00
C880   C     0.41871   0.49896   0.98617   0.00000  Uiso   1.00
C881   C     0.43910   0.50073   0.55451   0.00000  Uiso   1.00
C882   C     0.56879   0.53764   0.52176   0.00000  Uiso   1.00
C883   C     0.49936   0.52488   0.98040   0.00000  Uiso   1.00
C884   C     0.48750   0.51368   0.52752   0.00000  Uiso   1.00
C885   C     0.54412   0.54584   0.95631   0.00000  Uiso   1.00
C886   C     0.40518   0.49419   0.53425   0.00000  Uiso   1.00
C887   C     0.57778   0.55257   0.97694   0.00000  Uiso   1.00
C888   C     0.54416   0.64531   0.73993   0.00000  Uiso   1.00
C889   C     0.45587   0.35468   0.75995   0.00000  Uiso   1.00
C890   C     0.54417   0.35460   0.73990   0.00000  Uiso   1.00
H891   H     0.36875   0.48388   0.55631   0.00000  Uiso   1.00
H892   H     0.42144   0.62919   0.76813   0.00000  Uiso   1.00
H893   H     0.65535   0.46637   0.97125   0.00000  Uiso   1.00
H894   H     0.66604   0.56642   0.53809   0.00000  Uiso   1.00
H895   H     0.42596   0.49645   0.59185   0.00000  Uiso   1.00
H896   H     0.55342   0.55888   0.92194   0.00000  Uiso   1.00
H897   H     0.34014   0.43747   0.66645   0.00000  Uiso   1.00
H898   H     0.65992   0.56271   0.83340   0.00000  Uiso   1.00
H899   H     0.39848   0.45749   0.69387   0.00000  Uiso   1.00
H900   H     0.60156   0.54260   0.80605   0.00000  Uiso   1.00
H901   H     0.61126   0.56910   0.95724   0.00000  Uiso   1.00
H902   H     0.48614   0.47931   0.60739   0.00000  Uiso   1.00
H903   H     0.51742   0.52423   0.88839   0.00000  Uiso   1.00
H904   H     0.61729   0.53558   0.60573   0.00000  Uiso   1.00
H905   H     0.37781   0.47983   0.89878   0.00000  Uiso   1.00
H906   H     0.57858   0.62903   0.73182   0.00000  Uiso   1.00
H907   H     0.42146   0.37096   0.76806   0.00000  Uiso   1.00
H908   H     0.57859   0.37081   0.73176   0.00000  Uiso   1.00
N909   N     0.38093   0.50001   0.75001   0.00000  Uiso   1.00
N910   N     0.61907   0.49999   0.74999   0.00000  Uiso   1.00
O911   O     0.46179   0.56108   0.75000   0.00000  Uiso   1.00
O912   O     0.64612   0.56515   0.51861   0.00000  Uiso   1.00
O913   O     0.64366   0.45252   0.68692   0.00000  Uiso   1.00
O914   O     0.35638   0.54758   0.81299   0.00000  Uiso   1.00
O915   O     0.53821   0.43892   0.74999   0.00000  Uiso   1.00
O916   O     0.53823   0.56107   0.75000   0.00000  Uiso   1.00
O917   O     0.46177   0.43893   0.75000   0.00000  Uiso   1.00
O918   O     0.43994   0.50001   0.81612   0.00000  Uiso   1.00
O919   O     0.56006   0.49999   0.68387   0.00000  Uiso   1.00
O920   O     0.51639   0.50000   0.81612   0.00000  Uiso   1.00
O921   O     0.48361   0.50000   0.68388   0.00000  Uiso   1.00
O922   O     0.34011   0.47252   0.99168   0.00000  Uiso   1.00
Zn923  Zn    0.44896   0.50001   0.75000   0.00000  Uiso   1.00
Zn924  Zn    0.55104   0.49999   0.75000   0.00000  Uiso   1.00
C925   C     0.83334   0.58003   0.75001   0.00000  Uiso   1.00
C926   C     0.78920   0.64540   0.75998   0.00000  Uiso   1.00
C927   C     0.83336   0.37581   0.74993   0.00000  Uiso   1.00
C928   C     0.83334   0.62418   0.74998   0.00000  Uiso   1.00
C929   C     0.98842   0.47622   0.71847   0.00000  Uiso   1.00
C930   C     0.67826   0.52382   0.78149   0.00000  Uiso   1.00
C931   C     0.70326   0.47633   0.71870   0.00000  Uiso   1.00
C932   C     0.96342   0.52372   0.78126   0.00000  Uiso   1.00
C933   C     0.80266   0.50045   0.83809   0.00000  Uiso   1.00
C934   C     0.86396   0.50042   0.66190   0.00000  Uiso   1.00
C935   C     0.78296   0.50238   0.88898   0.00000  Uiso   1.00
C936   C     0.83334   0.41996   0.74996   0.00000  Uiso   1.00
C937   C     0.88249   0.50728   0.61163   0.00000  Uiso   1.00
C938   C     0.71942   0.48752   0.96470   0.00000  Uiso   1.00
C939   C     0.93670   0.54364   0.54255   0.00000  Uiso   1.00
C940   C     0.73522   0.48973   0.91585   0.00000  Uiso   1.00
C941   C     0.92606   0.52885   0.58812   0.00000  Uiso   1.00
C942   C     0.81400   0.51551   0.91052   0.00000  Uiso   1.00
C943   C     0.85059   0.49897   0.58948   0.00000  Uiso   1.00
C944   C     0.79950   0.51437   0.95895   0.00000  Uiso   1.00
C945   C     0.85740   0.51675   0.54649   0.00000  Uiso   1.00
C946   C     0.75204   0.49896   0.98617   0.00000  Uiso   1.00
C947   C     0.77243   0.50073   0.55451   0.00000  Uiso   1.00
C948   C     0.90212   0.53764   0.52176   0.00000  Uiso   1.00
C949   C     0.83270   0.52488   0.98040   0.00000  Uiso   1.00
C950   C     0.82083   0.51368   0.52752   0.00000  Uiso   1.00
C951   C     0.87745   0.54584   0.95631   0.00000  Uiso   1.00
C952   C     0.73851   0.49419   0.53425   0.00000  Uiso   1.00
C953   C     0.91111   0.55257   0.97694   0.00000  Uiso   1.00
C954   C     0.87749   0.64531   0.73993   0.00000  Uiso   1.00
C955   C     0.78921   0.35468   0.75995   0.00000  Uiso   1.00
C956   C     0.87751   0.35460   0.73990   0.00000  Uiso   1.00
H957   H     0.70209   0.48388   0.55631   0.00000  Uiso   1.00
H958   H     0.75478   0.62919   0.76813   0.00000  Uiso   1.00
H959   H     0.98868   0.46637   0.97125   0.00000  Uiso   1.00
H960   H     0.99937   0.56642   0.53809   0.00000  Uiso   1.00
H961   H     0.75929   0.49645   0.59185   0.00000  Uiso   1.00
H962   H     0.88676   0.55888   0.92194   0.00000  Uiso   1.00
H963   H     0.67348   0.43747   0.66645   0.00000  Uiso   1.00
H964   H     0.99325   0.56271   0.83340   0.00000  Uiso   1.00
H965   H     0.73181   0.45749   0.69387   0.00000  Uiso   1.00
H966   H     0.93489   0.54260   0.80605   0.00000  Uiso   1.00
H967   H     0.94459   0.56910   0.95724   0.00000  Uiso   1.00
H968   H     0.81947   0.47931   0.60739   0.00000  Uiso   1.00
H969   H     0.85076   0.52423   0.88839   0.00000  Uiso   1.00
H970   H     0.95063   0.53558   0.60573   0.00000  Uiso   1.00
H971   H     0.71114   0.47983   0.89878   0.00000  Uiso   1.00
H972   H     0.91191   0.62903   0.73182   0.00000  Uiso   1.00
H973   H     0.75479   0.37096   0.76806   0.00000  Uiso   1.00
H974   H     0.91192   0.37081   0.73176   0.00000  Uiso   1.00
N975   N     0.71426   0.50001   0.75001   0.00000  Uiso   1.00
N976   N     0.95241   0.49999   0.74999   0.00000  Uiso   1.00
O977   O     0.79512   0.56108   0.75000   0.00000  Uiso   1.00
O978   O     0.97946   0.56515   0.51861   0.00000  Uiso   1.00
O979   O     0.97700   0.45252   0.68692   0.00000  Uiso   1.00
O980   O     0.68971   0.54758   0.81299   0.00000  Uiso   1.00
O981   O     0.87154   0.43892   0.74999   0.00000  Uiso   1.00
O982   O     0.87157   0.56107   0.75000   0.00000  Uiso   1.00
O983   O     0.79510   0.43893   0.75000   0.00000  Uiso   1.00
O984   O     0.77328   0.50001   0.81612   0.00000  Uiso   1.00
O985   O     0.89339   0.49999   0.68387   0.00000  Uiso   1.00
O986   O     0.84972   0.50000   0.81612   0.00000  Uiso   1.00
O987   O     0.81695   0.50000   0.68388   0.00000  Uiso   1.00
O988   O     0.67344   0.47252   0.99168   0.00000  Uiso   1.00
Zn989  Zn    0.78229   0.50001   0.75000   0.00000  Uiso   1.00
Zn990  Zn    0.88438   0.49999   0.75000   0.00000  Uiso   1.00
C991   C     0.16667   0.91337   0.75001   0.00000  Uiso   1.00
C992   C     0.12253   0.97873   0.75998   0.00000  Uiso   1.00
C993   C     0.16669   0.70915   0.74993   0.00000  Uiso   1.00
C994   C     0.16667   0.95751   0.74998   0.00000  Uiso   1.00
C995   C     0.32176   0.80956   0.71847   0.00000  Uiso   1.00
C996   C     0.01159   0.85716   0.78149   0.00000  Uiso   1.00
C997   C     0.03659   0.80966   0.71870   0.00000  Uiso   1.00
C998   C     0.29676   0.85705   0.78126   0.00000  Uiso   1.00
C999   C     0.13600   0.83378   0.83809   0.00000  Uiso   1.00
C1000  C     0.19729   0.83375   0.66190   0.00000  Uiso   1.00
C1001  C     0.11629   0.83571   0.88898   0.00000  Uiso   1.00
C1002  C     0.16668   0.75330   0.74996   0.00000  Uiso   1.00
C1003  C     0.21583   0.84061   0.61163   0.00000  Uiso   1.00
C1004  C     0.05275   0.82085   0.96470   0.00000  Uiso   1.00
C1005  C     0.27004   0.87698   0.54255   0.00000  Uiso   1.00
C1006  C     0.06855   0.82306   0.91585   0.00000  Uiso   1.00
C1007  C     0.25940   0.86218   0.58812   0.00000  Uiso   1.00
C1008  C     0.14734   0.84885   0.91052   0.00000  Uiso   1.00
C1009  C     0.18392   0.83231   0.58948   0.00000  Uiso   1.00
C1010  C     0.13284   0.84770   0.95895   0.00000  Uiso   1.00
C1011  C     0.19073   0.85008   0.54649   0.00000  Uiso   1.00
C1012  C     0.08537   0.83230   0.98617   0.00000  Uiso   1.00
C1013  C     0.10577   0.83406   0.55451   0.00000  Uiso   1.00
C1014  C     0.23545   0.87097   0.52176   0.00000  Uiso   1.00
C1015  C     0.16603   0.85822   0.98040   0.00000  Uiso   1.00
C1016  C     0.15416   0.84701   0.52752   0.00000  Uiso   1.00
C1017  C     0.21079   0.87918   0.95631   0.00000  Uiso   1.00
C1018  C     0.07184   0.82753   0.53425   0.00000  Uiso   1.00
C1019  C     0.24444   0.88590   0.97694   0.00000  Uiso   1.00
C1020  C     0.21083   0.97864   0.73993   0.00000  Uiso   1.00
C1021  C     0.12254   0.68802   0.75995   0.00000  Uiso   1.00
C1022  C     0.21084   0.68793   0.73990   0.00000  Uiso   1.00
H1023  H     0.03542   0.81721   0.55631   0.00000  Uiso   1.00
H1024  H     0.08811   0.96252   0.76813   0.00000  Uiso   1.00
H1025  H     0.32202   0.79971   0.97125   0.00000  Uiso   1.00
H1026  H     0.33270   0.89975   0.53809   0.00000  Uiso   1.00
H1027  H     0.09262   0.82978   0.59185   0.00000  Uiso   1.00
H1028  H     0.22009   0.89221   0.92194   0.00000  Uiso   1.00
H1029  H     0.00681   0.77080   0.66645   0.00000  Uiso   1.00
H1030  H     0.32659   0.89604   0.83340   0.00000  Uiso   1.00
H1031  H     0.06514   0.79082   0.69387   0.00000  Uiso   1.00
H1032  H     0.26822   0.87593   0.80605   0.00000  Uiso   1.00
H1033  H     0.27793   0.90243   0.95724   0.00000  Uiso   1.00
H1034  H     0.15280   0.81264   0.60739   0.00000  Uiso   1.00
H1035  H     0.18409   0.85756   0.88839   0.00000  Uiso   1.00
H1036  H     0.28396   0.86891   0.60573   0.00000  Uiso   1.00
H1037  H     0.04448   0.81317   0.89878   0.00000  Uiso   1.00
H1038  H     0.24524   0.96236   0.73182   0.00000  Uiso   1.00
H1039  H     0.08813   0.70429   0.76806   0.00000  Uiso   1.00
H1040  H     0.24526   0.70414   0.73176   0.00000  Uiso   1.00
N1041  N     0.04759   0.83334   0.75001   0.00000  Uiso   1.00
N1042  N     0.28574   0.83332   0.74999   0.00000  Uiso   1.00
O1043  O     0.12846   0.89442   0.75000   0.00000  Uiso   1.00
O1044  O     0.31279   0.89848   0.51861   0.00000  Uiso   1.00
O1045  O     0.31033   0.78586   0.68692   0.00000  Uiso   1.00
O1046  O     0.02304   0.88091   0.81299   0.00000  Uiso   1.00
O1047  O     0.20488   0.77225   0.74999   0.00000  Uiso   1.00
O1048  O     0.20490   0.89441   0.75000   0.00000  Uiso   1.00
O1049  O     0.12843   0.77226   0.75000   0.00000  Uiso   1.00
O1050  O     0.10661   0.83334   0.81612   0.00000  Uiso   1.00
O1051  O     0.22672   0.83333   0.68387   0.00000  Uiso   1.00
O1052  O     0.18305   0.83333   0.81612   0.00000  Uiso   1.00
O1053  O     0.15028   0.83334   0.68388   0.00000  Uiso   1.00
O1054  O     0.00678   0.80586   0.99168   0.00000  Uiso   1.00
Zn1055 Zn    0.11562   0.83334   0.75000   0.00000  Uiso   1.00
Zn1056 Zn    0.21771   0.83333   0.75000   0.00000  Uiso   1.00
C1057  C     0.50000   0.91337   0.75001   0.00000  Uiso   1.00
C1058  C     0.45586   0.97873   0.75998   0.00000  Uiso   1.00
C1059  C     0.50002   0.70915   0.74993   0.00000  Uiso   1.00
C1060  C     0.50001   0.95751   0.74998   0.00000  Uiso   1.00
C1061  C     0.65509   0.80956   0.71847   0.00000  Uiso   1.00
C1062  C     0.34493   0.85716   0.78149   0.00000  Uiso   1.00
C1063  C     0.36993   0.80966   0.71870   0.00000  Uiso   1.00
C1064  C     0.63009   0.85705   0.78126   0.00000  Uiso   1.00
C1065  C     0.46933   0.83378   0.83809   0.00000  Uiso   1.00
C1066  C     0.53063   0.83375   0.66190   0.00000  Uiso   1.00
C1067  C     0.44963   0.83571   0.88898   0.00000  Uiso   1.00
C1068  C     0.50001   0.75330   0.74996   0.00000  Uiso   1.00
C1069  C     0.54916   0.84061   0.61163   0.00000  Uiso   1.00
C1070  C     0.38609   0.82085   0.96470   0.00000  Uiso   1.00
C1071  C     0.60337   0.87698   0.54255   0.00000  Uiso   1.00
C1072  C     0.40189   0.82306   0.91585   0.00000  Uiso   1.00
C1073  C     0.59273   0.86218   0.58812   0.00000  Uiso   1.00
C1074  C     0.48067   0.84885   0.91052   0.00000  Uiso   1.00
C1075  C     0.51725   0.83231   0.58948   0.00000  Uiso   1.00
C1076  C     0.46617   0.84770   0.95895   0.00000  Uiso   1.00
C1077  C     0.52407   0.85008   0.54649   0.00000  Uiso   1.00
C1078  C     0.41871   0.83230   0.98617   0.00000  Uiso   1.00
C1079  C     0.43910   0.83406   0.55451   0.00000  Uiso   1.00
C1080  C     0.56879   0.87097   0.52176   0.00000  Uiso   1.00
C1081  C     0.49936   0.85822   0.98040   0.00000  Uiso   1.00
C1082  C     0.48750   0.84701   0.52752   0.00000  Uiso   1.00
C1083  C     0.54412   0.87918   0.95631   0.00000  Uiso   1.00
C1084  C     0.40518   0.82753   0.53425   0.00000  Uiso   1.00
C1085  C     0.57778   0.88590   0.97694   0.00000  Uiso   1.00
C1086  C     0.54416   0.97864   0.73993   0.00000  Uiso   1.00
C1087  C     0.45587   0.68802   0.75995   0.00000  Uiso   1.00
C1088  C     0.54417   0.68793   0.73990   0.00000  Uiso   1.00
H1089  H     0.36875   0.81721   0.55631   0.00000  Uiso   1.00
H1090  H     0.42144   0.96252   0.76813   0.00000  Uiso   1.00
H1091  H     0.65535   0.79971   0.97125   0.00000  Uiso   1.00
H1092  H     0.66604   0.89975   0.53809   0.00000  Uiso   1.00
H1093  H     0.42596   0.82978   0.59185   0.00000  Uiso   1.00
H1094  H     0.55342   0.89221   0.92194   0.00000  Uiso   1.00
H1095  H     0.34014   0.77080   0.66645   0.00000  Uiso   1.00
H1096  H     0.65992   0.89604   0.83340   0.00000  Uiso   1.00
H1097  H     0.39848   0.79082   0.69387   0.00000  Uiso   1.00
H1098  H     0.60156   0.87593   0.80605   0.00000  Uiso   1.00
H1099  H     0.61126   0.90243   0.95724   0.00000  Uiso   1.00
H1100  H     0.48614   0.81264   0.60739   0.00000  Uiso   1.00
H1101  H     0.51742   0.85756   0.88839   0.00000  Uiso   1.00
H1102  H     0.61729   0.86891   0.60573   0.00000  Uiso   1.00
H1103  H     0.37781   0.81317   0.89878   0.00000  Uiso   1.00
H1104  H     0.57858   0.96236   0.73182   0.00000  Uiso   1.00
H1105  H     0.42146   0.70429   0.76806   0.00000  Uiso   1.00
H1106  H     0.57859   0.70414   0.73176   0.00000  Uiso   1.00
N1107  N     0.38093   0.83334   0.75001   0.00000  Uiso   1.00
N1108  N     0.61907   0.83332   0.74999   0.00000  Uiso   1.00
O1109  O     0.46179   0.89442   0.75000   0.00000  Uiso   1.00
O1110  O     0.64612   0.89848   0.51861   0.00000  Uiso   1.00
O1111  O     0.64366   0.78586   0.68692   0.00000  Uiso   1.00
O1112  O     0.35638   0.88091   0.81299   0.00000  Uiso   1.00
O1113  O     0.53821   0.77225   0.74999   0.00000  Uiso   1.00
O1114  O     0.53823   0.89441   0.75000   0.00000  Uiso   1.00
O1115  O     0.46177   0.77226   0.75000   0.00000  Uiso   1.00
O1116  O     0.43994   0.83334   0.81612   0.00000  Uiso   1.00
O1117  O     0.56006   0.83333   0.68387   0.00000  Uiso   1.00
O1118  O     0.51639   0.83333   0.81612   0.00000  Uiso   1.00
O1119  O     0.48361   0.83334   0.68388   0.00000  Uiso   1.00
O1120  O     0.34011   0.80586   0.99168   0.00000  Uiso   1.00
Zn1121 Zn    0.44896   0.83334   0.75000   0.00000  Uiso   1.00
Zn1122 Zn    0.55104   0.83333   0.75000   0.00000  Uiso   1.00
C1123  C     0.83334   0.91337   0.75001   0.00000  Uiso   1.00
C1124  C     0.78920   0.97873   0.75998   0.00000  Uiso   1.00
C1125  C     0.83336   0.70915   0.74993   0.00000  Uiso   1.00
C1126  C     0.83334   0.95751   0.74998   0.00000  Uiso   1.00
C1127  C     0.98842   0.80956   0.71847   0.00000  Uiso   1.00
C1128  C     0.67826   0.85716   0.78149   0.00000  Uiso   1.00
C1129  C     0.70326   0.80966   0.71870   0.00000  Uiso   1.00
C1130  C     0.96342   0.85705   0.78126   0.00000  Uiso   1.00
C1131  C     0.80266   0.83378   0.83809   0.00000  Uiso   1.00
C1132  C     0.86396   0.83375   0.66190   0.00000  Uiso   1.00
C1133  C     0.78296   0.83571   0.88898   0.00000  Uiso   1.00
C1134  C     0.83334   0.75330   0.74996   0.00000  Uiso   1.00
C1135  C     0.88249   0.84061   0.61163   0.00000  Uiso   1.00
C1136  C     0.71942   0.82085   0.96470   0.00000  Uiso   1.00
C1137  C     0.93670   0.87698   0.54255   0.00000  Uiso   1.00
C1138  C     0.73522   0.82306   0.91585   0.00000  Uiso   1.00
C1139  C     0.92606   0.86218   0.58812   0.00000  Uiso   1.00
C1140  C     0.81400   0.84885   0.91052   0.00000  Uiso   1.00
C1141  C     0.85059   0.83231   0.58948   0.00000  Uiso   1.00
C1142  C     0.79950   0.84770   0.95895   0.00000  Uiso   1.00
C1143  C     0.85740   0.85008   0.54649   0.00000  Uiso   1.00
C1144  C     0.75204   0.83230   0.98617   0.00000  Uiso   1.00
C1145  C     0.77243   0.83406   0.55451   0.00000  Uiso   1.00
C1146  C     0.90212   0.87097   0.52176   0.00000  Uiso   1.00
C1147  C     0.83270   0.85822   0.98040   0.00000  Uiso   1.00
C1148  C     0.82083   0.84701   0.52752   0.00000  Uiso   1.00
C1149  C     0.87745   0.87918   0.95631   0.00000  Uiso   1.00
C1150  C     0.73851   0.82753   0.53425   0.00000  Uiso   1.00
C1151  C     0.91111   0.88590   0.97694   0.00000  Uiso   1.00
C1152  C     0.87749   0.97864   0.73993   0.00000  Uiso   1.00
C1153  C     0.78921   0.68802   0.75995   0.00000  Uiso   1.00
C1154  C     0.87751   0.68793   0.73990   0.00000  Uiso   1.00
H1155  H     0.70209   0.81721   0.55631   0.00000  Uiso   1.00
H1156  H     0.75478   0.96252   0.76813   0.00000  Uiso   1.00
H1157  H     0.98868   0.79971   0.97125   0.00000  Uiso   1.00
H1158  H     0.99937   0.89975   0.53809   0.00000  Uiso   1.00
H1159  H     0.75929   0.82978   0.59185   0.00000  Uiso   1.00
H1160  H     0.88676   0.89221   0.92194   0.00000  Uiso   1.00
H1161  H     0.67348   0.77080   0.66645   0.00000  Uiso   1.00
H1162  H     0.99325   0.89604   0.83340   0.00000  Uiso   1.00
H1163  H     0.73181   0.79082   0.69387   0.00000  Uiso   1.00
H1164  H     0.93489   0.87593   0.80605   0.00000  Uiso   1.00
H1165  H     0.94459   0.90243   0.95724   0.00000  Uiso   1.00
H1166  H     0.81947   0.81264   0.60739   0.00000  Uiso   1.00
H1167  H     0.85076   0.85756   0.88839   0.00000  Uiso   1.00
H1168  H     0.95063   0.86891   0.60573   0.00000  Uiso   1.00
H1169  H     0.71114   0.81317   0.89878   0.00000  Uiso   1.00
H1170  H     0.91191   0.96236   0.73182   0.00000  Uiso   1.00
H1171  H     0.75479   0.70429   0.76806   0.00000  Uiso   1.00
H1172  H     0.91192   0.70414   0.73176   0.00000  Uiso   1.00
N1173  N     0.71426   0.83334   0.75001   0.00000  Uiso   1.00
N1174  N     0.95241   0.83332   0.74999   0.00000  Uiso   1.00
O1175  O     0.79512   0.89442   0.75000   0.00000  Uiso   1.00
O1176  O     0.97946   0.89848   0.51861   0.00000  Uiso   1.00
O1177  O     0.97700   0.78586   0.68692   0.00000  Uiso   1.00
O1178  O     0.68971   0.88091   0.81299   0.00000  Uiso   1.00
O1179  O     0.87154   0.77225   0.74999   0.00000  Uiso   1.00
O1180  O     0.87157   0.89441   0.75000   0.00000  Uiso   1.00
O1181  O     0.79510   0.77226   0.75000   0.00000  Uiso   1.00
O1182  O     0.77328   0.83334   0.81612   0.00000  Uiso   1.00
O1183  O     0.89339   0.83333   0.68387   0.00000  Uiso   1.00
O1184  O     0.84972   0.83333   0.81612   0.00000  Uiso   1.00
O1185  O     0.81695   0.83334   0.68388   0.00000  Uiso   1.00
O1186  O     0.67344   0.80586   0.99168   0.00000  Uiso   1.00
Zn1187 Zn    0.78229   0.83334   0.75000   0.00000  Uiso   1.00
Zn1188 Zn    0.88438   0.83333   0.75000   0.00000  Uiso   1.00
loop_
_geom_bond_atom_site_label_1
_geom_bond_atom_site_label_2
_geom_bond_distance
_geom_bond_site_symmetry_2
_ccdc_geom_bond_type
C1     O58     1.283   .     A
C1     C4      1.419   .     S
C1     O53     1.283   .     A
C2     C4      1.397   .     A
C2     H34     1.084   .     S
C2     C229    1.370   .     S
C3     C31     1.397   .     A
C3     C32     1.397   .     A
C3     C12     1.419   .     S
C4     C30     1.397   .     A
C5     N52     1.368   .     A
C5     O55     1.378   .     S
C5     C73     1.426   .     S
C6     N51     1.368   .     A
C6     O56     1.378   .     S
C6     C140    1.426   1_455 S
C7     N51     1.365   .     A
C7     H41     1.082   .     S
C7     C137    1.426   1_455 S
C8     N52     1.365   .     A
C8     H42     1.082   .     S
C8     C72     1.426   .     S
C9     O60     1.292   .     A
C9     C11     1.458   .     S
C9     O62     1.293   .     A
C10    O63     1.292   .     A
C10    O61     1.293   .     A
C10    C13     1.457   .     S
C11    C18     1.390   .     A
C11    C16     1.397   .     A
C12    O57     1.283   .     A
C12    O59     1.283   .     A
C13    C17     1.398   .     A
C13    C19     1.388   .     A
C14    O64     1.382   .     S
C14    C22     1.413   .     A
C14    C16     1.405   .     A
C15    C24     1.414   .     A
C15    O54     1.382   .     S
C15    C17     1.408   .     A
C16    H47     1.084   .     S
C17    H46     1.083   .     S
C18    C20     1.394   .     A
C18    H45     1.077   .     S
C19    C21     1.392   .     A
C19    H44     1.079   .     S
C20    C25     1.420   .     A
C20    C22     1.422   .     A
C21    C26     1.417   .     A
C21    C24     1.419   .     A
C22    C622    1.395   .     S
C23    C28     1.387   .     A
C23    C26     1.416   .     A
C23    H37     1.079   .     S
C24    C623    1.396   1_554 S
C25    C27     1.417   .     A
C25    C620    1.412   .     S
C26    C619    1.412   1_554 S
C27    C29     1.389   .     A
C27    H38     1.078   .     S
C28    H33     1.084   .     S
C28    C616    1.395   1_554 S
C29    H43     1.083   .     S
C29    C618    1.396   .     S
C30    H48     1.084   .     S
C30    C230    1.370   .     S
C31    H49     1.084   .     S
C31    C398    1.370   1_545 S
C32    H50     1.084   .     S
C32    C426    1.370   1_545 S
H35    O130    0.992   .     S
H36    O54     0.992   .     S
H39    O187    0.992   1_455 S
H40    O122    0.992   .     S
N51    Zn65    2.010   .     S
N52    Zn66    2.010   .     S
O53    Zn65    2.000   .     S
O55    H105    0.992   .     S
O56    H172    0.992   1_455 S
O57    Zn66    2.000   .     S
O58    Zn66    1.999   .     S
O59    Zn65    1.999   .     S
O60    Zn65    1.962   .     S
O61    Zn66    1.962   .     S
O62    Zn66    1.908   .     S
O63    Zn65    1.908   .     S
O64    H167    0.992   1_455 S
C67    O124    1.283   .     A
C67    C70     1.419   .     S
C67    O119    1.283   .     A
C68    C70     1.397   .     A
C68    H100    1.084   .     S
C68    C295    1.370   .     S
C69    C97     1.397   .     A
C69    C98     1.397   .     A
C69    C78     1.419   .     S
C70    C96     1.397   .     A
C71    N118    1.368   .     A
C71    O121    1.378   .     S
C71    C139    1.426   .     S
C72    N117    1.368   .     A
C72    O122    1.378   .     S
C73    N117    1.365   .     A
C73    H107    1.082   .     S
C74    N118    1.365   .     A
C74    H108    1.082   .     S
C74    C138    1.426   .     S
C75    O126    1.292   .     A
C75    C77     1.458   .     S
C75    O128    1.293   .     A
C76    O129    1.292   .     A
C76    O127    1.293   .     A
C76    C79     1.457   .     S
C77    C84     1.390   .     A
C77    C82     1.397   .     A
C78    O123    1.283   .     A
C78    O125    1.283   .     A
C79    C83     1.398   .     A
C79    C85     1.388   .     A
C80    O130    1.382   .     S
C80    C88     1.413   .     A
C80    C82     1.405   .     A
C81    C90     1.414   .     A
C81    O120    1.382   .     S
C81    C83     1.408   .     A
C82    H113    1.084   .     S
C83    H112    1.083   .     S
C84    C86     1.394   .     A
C84    H111    1.077   .     S
C85    C87     1.392   .     A
C85    H110    1.079   .     S
C86    C91     1.420   .     A
C86    C88     1.422   .     A
C87    C92     1.417   .     A
C87    C90     1.419   .     A
C88    C688    1.395   .     S
C89    C94     1.387   .     A
C89    C92     1.416   .     A
C89    H103    1.079   .     S
C90    C689    1.396   1_554 S
C91    C93     1.417   .     A
C91    C686    1.412   .     S
C92    C685    1.412   1_554 S
C93    C95     1.389   .     A
C93    H104    1.078   .     S
C94    H99     1.084   .     S
C94    C682    1.395   1_554 S
C95    H109    1.083   .     S
C95    C684    1.396   .     S
C96    H114    1.084   .     S
C96    C296    1.370   .     S
C97    H115    1.084   .     S
C97    C464    1.370   1_545 S
C98    H116    1.084   .     S
C98    C492    1.370   1_545 S
H101   O196    0.992   .     S
H102   O120    0.992   .     S
H106   O188    0.992   .     S
N117   Zn131   2.010   .     S
N118   Zn132   2.010   .     S
O119   Zn131   2.000   .     S
O121   H171    0.992   .     S
O123   Zn132   2.000   .     S
O124   Zn132   1.999   .     S
O125   Zn131   1.999   .     S
O126   Zn131   1.962   .     S
O127   Zn132   1.962   .     S
O128   Zn132   1.908   .     S
O129   Zn131   1.908   .     S
C133   O190    1.283   .     A
C133   C136    1.419   .     S
C133   O185    1.283   .     A
C134   C136    1.397   .     A
C134   H166    1.084   .     S
C134   C361    1.370   .     S
C135   C163    1.397   .     A
C135   C164    1.397   .     A
C135   C144    1.419   .     S
C136   C162    1.397   .     A
C137   N184    1.368   .     A
C137   O187    1.378   .     S
C137   C7      1.426   1_655 S
C138   N183    1.368   .     A
C138   O188    1.378   .     S
C139   N183    1.365   .     A
C139   H173    1.082   .     S
C140   N184    1.365   .     A
C140   H174    1.082   .     S
C140   C6      1.426   1_655 S
C141   O192    1.292   .     A
C141   C143    1.458   .     S
C141   O194    1.293   .     A
C142   O195    1.292   .     A
C142   O193    1.293   .     A
C142   C145    1.457   .     S
C143   C150    1.390   .     A
C143   C148    1.397   .     A
C144   O189    1.283   .     A
C144   O191    1.283   .     A
C145   C149    1.398   .     A
C145   C151    1.388   .     A
C146   O196    1.382   .     S
C146   C154    1.413   .     A
C146   C148    1.405   .     A
C147   C156    1.414   .     A
C147   O186    1.382   .     S
C147   C149    1.408   .     A
C148   H179    1.084   .     S
C149   H178    1.083   .     S
C150   C152    1.394   .     A
C150   H177    1.077   .     S
C151   C153    1.392   .     A
C151   H176    1.079   .     S
C152   C157    1.420   .     A
C152   C154    1.422   .     A
C153   C158    1.417   .     A
C153   C156    1.419   .     A
C154   C754    1.395   .     S
C155   C160    1.387   .     A
C155   C158    1.416   .     A
C155   H169    1.079   .     S
C156   C755    1.396   1_554 S
C157   C159    1.417   .     A
C157   C752    1.412   .     S
C158   C751    1.412   1_554 S
C159   C161    1.389   .     A
C159   H170    1.078   .     S
C160   H165    1.084   .     S
C160   C748    1.395   1_554 S
C161   H175    1.083   .     S
C161   C750    1.396   .     S
C162   H180    1.084   .     S
C162   C362    1.370   .     S
C163   H181    1.084   .     S
C163   C530    1.370   1_545 S
C164   H182    1.084   .     S
C164   C558    1.370   1_545 S
H167   O64     0.992   1_655 S
H168   O186    0.992   .     S
H172   O56     0.992   1_655 S
N183   Zn197   2.010   .     S
N184   Zn198   2.010   .     S
O185   Zn197   2.000   .     S
O187   H39     0.992   1_655 S
O189   Zn198   2.000   .     S
O190   Zn198   1.999   .     S
O191   Zn197   1.999   .     S
O192   Zn197   1.962   .     S
O193   Zn198   1.962   .     S
O194   Zn198   1.908   .     S
O195   Zn197   1.908   .     S
C199   O256    1.283   .     A
C199   C202    1.419   .     S
C199   O251    1.283   .     A
C200   C202    1.397   .     A
C200   H232    1.084   .     S
C200   C427    1.370   .     S
C201   C229    1.397   .     A
C201   C230    1.397   .     A
C201   C210    1.419   .     S
C202   C228    1.397   .     A
C203   N250    1.368   .     A
C203   O253    1.378   .     S
C203   C271    1.426   .     S
C204   N249    1.368   .     A
C204   O254    1.378   .     S
C204   C338    1.426   1_455 S
C205   N249    1.365   .     A
C205   H239    1.082   .     S
C205   C335    1.426   1_455 S
C206   N250    1.365   .     A
C206   H240    1.082   .     S
C206   C270    1.426   .     S
C207   O258    1.292   .     A
C207   C209    1.458   .     S
C207   O260    1.293   .     A
C208   O261    1.292   .     A
C208   O259    1.293   .     A
C208   C211    1.457   .     S
C209   C216    1.390   .     A
C209   C214    1.397   .     A
C210   O255    1.283   .     A
C210   O257    1.283   .     A
C211   C215    1.398   .     A
C211   C217    1.388   .     A
C212   O262    1.382   .     S
C212   C220    1.413   .     A
C212   C214    1.405   .     A
C213   C222    1.414   .     A
C213   O252    1.382   .     S
C213   C215    1.408   .     A
C214   H245    1.084   .     S
C215   H244    1.083   .     S
C216   C218    1.394   .     A
C216   H243    1.077   .     S
C217   C219    1.392   .     A
C217   H242    1.079   .     S
C218   C223    1.420   .     A
C218   C220    1.422   .     A
C219   C224    1.417   .     A
C219   C222    1.419   .     A
C220   C820    1.395   .     S
C221   C226    1.387   .     A
C221   C224    1.416   .     A
C221   H235    1.079   .     S
C222   C821    1.396   1_554 S
C223   C225    1.417   .     A
C223   C818    1.412   .     S
C224   C817    1.412   1_554 S
C225   C227    1.389   .     A
C225   H236    1.078   .     S
C226   H231    1.084   .     S
C226   C814    1.395   1_554 S
C227   H241    1.083   .     S
C227   C816    1.396   .     S
C228   H246    1.084   .     S
C228   C428    1.370   .     S
C229   H247    1.084   .     S
C230   H248    1.084   .     S
H233   O328    0.992   .     S
H234   O252    0.992   .     S
H237   O385    0.992   1_455 S
H238   O320    0.992   .     S
N249   Zn263   2.010   .     S
N250   Zn264   2.010   .     S
O251   Zn263   2.000   .     S
O253   H303    0.992   .     S
O254   H370    0.992   1_455 S
O255   Zn264   2.000   .     S
O256   Zn264   1.999   .     S
O257   Zn263   1.999   .     S
O258   Zn263   1.962   .     S
O259   Zn264   1.962   .     S
O260   Zn264   1.908   .     S
O261   Zn263   1.908   .     S
O262   H365    0.992   1_455 S
C265   O322    1.283   .     A
C265   C268    1.419   .     S
C265   O317    1.283   .     A
C266   C268    1.397   .     A
C266   H298    1.084   .     S
C266   C493    1.370   .     S
C267   C295    1.397   .     A
C267   C296    1.397   .     A
C267   C276    1.419   .     S
C268   C294    1.397   .     A
C269   N316    1.368   .     A
C269   O319    1.378   .     S
C269   C337    1.426   .     S
C270   N315    1.368   .     A
C270   O320    1.378   .     S
C271   N315    1.365   .     A
C271   H305    1.082   .     S
C272   N316    1.365   .     A
C272   H306    1.082   .     S
C272   C336    1.426   .     S
C273   O324    1.292   .     A
C273   C275    1.458   .     S
C273   O326    1.293   .     A
C274   O327    1.292   .     A
C274   O325    1.293   .     A
C274   C277    1.457   .     S
C275   C282    1.390   .     A
C275   C280    1.397   .     A
C276   O321    1.283   .     A
C276   O323    1.283   .     A
C277   C281    1.398   .     A
C277   C283    1.388   .     A
C278   O328    1.382   .     S
C278   C286    1.413   .     A
C278   C280    1.405   .     A
C279   C288    1.414   .     A
C279   O318    1.382   .     S
C279   C281    1.408   .     A
C280   H311    1.084   .     S
C281   H310    1.083   .     S
C282   C284    1.394   .     A
C282   H309    1.077   .     S
C283   C285    1.392   .     A
C283   H308    1.079   .     S
C284   C289    1.420   .     A
C284   C286    1.422   .     A
C285   C290    1.417   .     A
C285   C288    1.419   .     A
C286   C886    1.395   .     S
C287   C292    1.387   .     A
C287   C290    1.416   .     A
C287   H301    1.079   .     S
C288   C887    1.396   1_554 S
C289   C291    1.417   .     A
C289   C884    1.412   .     S
C290   C883    1.412   1_554 S
C291   C293    1.389   .     A
C291   H302    1.078   .     S
C292   H297    1.084   .     S
C292   C880    1.395   1_554 S
C293   H307    1.083   .     S
C293   C882    1.396   .     S
C294   H312    1.084   .     S
C294   C494    1.370   .     S
C295   H313    1.084   .     S
C296   H314    1.084   .     S
H299   O394    0.992   .     S
H300   O318    0.992   .     S
H304   O386    0.992   .     S
N315   Zn329   2.010   .     S
N316   Zn330   2.010   .     S
O317   Zn329   2.000   .     S
O319   H369    0.992   .     S
O321   Zn330   2.000   .     S
O322   Zn330   1.999   .     S
O323   Zn329   1.999   .     S
O324   Zn329   1.962   .     S
O325   Zn330   1.962   .     S
O326   Zn330   1.908   .     S
O327   Zn329   1.908   .     S
C331   O388    1.283   .     A
C331   C334    1.419   .     S
C331   O383    1.283   .     A
C332   C334    1.397   .     A
C332   H364    1.084   .     S
C332   C559    1.370   .     S
C333   C361    1.397   .     A
C333   C362    1.397   .     A
C333   C342    1.419   .     S
C334   C360    1.397   .     A
C335   N382    1.368   .     A
C335   O385    1.378   .     S
C335   C205    1.426   1_655 S
C336   N381    1.368   .     A
C336   O386    1.378   .     S
C337   N381    1.365   .     A
C337   H371    1.082   .     S
C338   N382    1.365   .     A
C338   H372    1.082   .     S
C338   C204    1.426   1_655 S
C339   O390    1.292   .     A
C339   C341    1.458   .     S
C339   O392    1.293   .     A
C340   O393    1.292   .     A
C340   O391    1.293   .     A
C340   C343    1.457   .     S
C341   C348    1.390   .     A
C341   C346    1.397   .     A
C342   O387    1.283   .     A
C342   O389    1.283   .     A
C343   C347    1.398   .     A
C343   C349    1.388   .     A
C344   O394    1.382   .     S
C344   C352    1.413   .     A
C344   C346    1.405   .     A
C345   C354    1.414   .     A
C345   O384    1.382   .     S
C345   C347    1.408   .     A
C346   H377    1.084   .     S
C347   H376    1.083   .     S
C348   C350    1.394   .     A
C348   H375    1.077   .     S
C349   C351    1.392   .     A
C349   H374    1.079   .     S
C350   C355    1.420   .     A
C350   C352    1.422   .     A
C351   C356    1.417   .     A
C351   C354    1.419   .     A
C352   C952    1.395   .     S
C353   C358    1.387   .     A
C353   C356    1.416   .     A
C353   H367    1.079   .     S
C354   C953    1.396   1_554 S
C355   C357    1.417   .     A
C355   C950    1.412   .     S
C356   C949    1.412   1_554 S
C357   C359    1.389   .     A
C357   H368    1.078   .     S
C358   H363    1.084   .     S
C358   C946    1.395   1_554 S
C359   H373    1.083   .     S
C359   C948    1.396   .     S
C360   H378    1.084   .     S
C360   C560    1.370   .     S
C361   H379    1.084   .     S
C362   H380    1.084   .     S
H365   O262    0.992   1_655 S
H366   O384    0.992   .     S
H370   O254    0.992   1_655 S
N381   Zn395   2.010   .     S
N382   Zn396   2.010   .     S
O383   Zn395   2.000   .     S
O385   H237    0.992   1_655 S
O387   Zn396   2.000   .     S
O388   Zn396   1.999   .     S
O389   Zn395   1.999   .     S
O390   Zn395   1.962   .     S
O391   Zn396   1.962   .     S
O392   Zn396   1.908   .     S
O393   Zn395   1.908   .     S
C397   O454    1.283   .     A
C397   C400    1.419   .     S
C397   O449    1.283   .     A
C398   C400    1.397   .     A
C398   H430    1.084   .     S
C398   C31     1.370   1_565 S
C399   C427    1.397   .     A
C399   C428    1.397   .     A
C399   C408    1.419   .     S
C400   C426    1.397   .     A
C401   N448    1.368   .     A
C401   O451    1.378   .     S
C401   C469    1.426   .     S
C402   N447    1.368   .     A
C402   O452    1.378   .     S
C402   C536    1.426   1_455 S
C403   N447    1.365   .     A
C403   H437    1.082   .     S
C403   C533    1.426   1_455 S
C404   N448    1.365   .     A
C404   H438    1.082   .     S
C404   C468    1.426   .     S
C405   O456    1.292   .     A
C405   C407    1.458   .     S
C405   O458    1.293   .     A
C406   O459    1.292   .     A
C406   O457    1.293   .     A
C406   C409    1.457   .     S
C407   C414    1.390   .     A
C407   C412    1.397   .     A
C408   O453    1.283   .     A
C408   O455    1.283   .     A
C409   C413    1.398   .     A
C409   C415    1.388   .     A
C410   O460    1.382   .     S
C410   C418    1.413   .     A
C410   C412    1.405   .     A
C411   C420    1.414   .     A
C411   O450    1.382   .     S
C411   C413    1.408   .     A
C412   H443    1.084   .     S
C413   H442    1.083   .     S
C414   C416    1.394   .     A
C414   H441    1.077   .     S
C415   C417    1.392   .     A
C415   H440    1.079   .     S
C416   C421    1.420   .     A
C416   C418    1.422   .     A
C417   C422    1.417   .     A
C417   C420    1.419   .     A
C418   C1018   1.395   .     S
C419   C424    1.387   .     A
C419   C422    1.416   .     A
C419   H433    1.079   .     S
C420   C1019   1.396   1_554 S
C421   C423    1.417   .     A
C421   C1016   1.412   .     S
C422   C1015   1.412   1_554 S
C423   C425    1.389   .     A
C423   H434    1.078   .     S
C424   H429    1.084   .     S
C424   C1012   1.395   1_554 S
C425   H439    1.083   .     S
C425   C1014   1.396   .     S
C426   H444    1.084   .     S
C426   C32     1.370   1_565 S
C427   H445    1.084   .     S
C428   H446    1.084   .     S
H431   O526    0.992   .     S
H432   O450    0.992   .     S
H435   O583    0.992   1_455 S
H436   O518    0.992   .     S
N447   Zn461   2.010   .     S
N448   Zn462   2.010   .     S
O449   Zn461   2.000   .     S
O451   H501    0.992   .     S
O452   H568    0.992   1_455 S
O453   Zn462   2.000   .     S
O454   Zn462   1.999   .     S
O455   Zn461   1.999   .     S
O456   Zn461   1.962   .     S
O457   Zn462   1.962   .     S
O458   Zn462   1.908   .     S
O459   Zn461   1.908   .     S
O460   H563    0.992   1_455 S
C463   O520    1.283   .     A
C463   C466    1.419   .     S
C463   O515    1.283   .     A
C464   C466    1.397   .     A
C464   H496    1.084   .     S
C464   C97     1.370   1_565 S
C465   C493    1.397   .     A
C465   C494    1.397   .     A
C465   C474    1.419   .     S
C466   C492    1.397   .     A
C467   N514    1.368   .     A
C467   O517    1.378   .     S
C467   C535    1.426   .     S
C468   N513    1.368   .     A
C468   O518    1.378   .     S
C469   N513    1.365   .     A
C469   H503    1.082   .     S
C470   N514    1.365   .     A
C470   H504    1.082   .     S
C470   C534    1.426   .     S
C471   O522    1.292   .     A
C471   C473    1.458   .     S
C471   O524    1.293   .     A
C472   O525    1.292   .     A
C472   O523    1.293   .     A
C472   C475    1.457   .     S
C473   C480    1.390   .     A
C473   C478    1.397   .     A
C474   O519    1.283   .     A
C474   O521    1.283   .     A
C475   C479    1.398   .     A
C475   C481    1.388   .     A
C476   O526    1.382   .     S
C476   C484    1.413   .     A
C476   C478    1.405   .     A
C477   C486    1.414   .     A
C477   O516    1.382   .     S
C477   C479    1.408   .     A
C478   H509    1.084   .     S
C479   H508    1.083   .     S
C480   C482    1.394   .     A
C480   H507    1.077   .     S
C481   C483    1.392   .     A
C481   H506    1.079   .     S
C482   C487    1.420   .     A
C482   C484    1.422   .     A
C483   C488    1.417   .     A
C483   C486    1.419   .     A
C484   C1084   1.395   .     S
C485   C490    1.387   .     A
C485   C488    1.416   .     A
C485   H499    1.079   .     S
C486   C1085   1.396   1_554 S
C487   C489    1.417   .     A
C487   C1082   1.412   .     S
C488   C1081   1.412   1_554 S
C489   C491    1.389   .     A
C489   H500    1.078   .     S
C490   H495    1.084   .     S
C490   C1078   1.395   1_554 S
C491   H505    1.083   .     S
C491   C1080   1.396   .     S
C492   H510    1.084   .     S
C492   C98     1.370   1_565 S
C493   H511    1.084   .     S
C494   H512    1.084   .     S
H497   O592    0.992   .     S
H498   O516    0.992   .     S
H502   O584    0.992   .     S
N513   Zn527   2.010   .     S
N514   Zn528   2.010   .     S
O515   Zn527   2.000   .     S
O517   H567    0.992   .     S
O519   Zn528   2.000   .     S
O520   Zn528   1.999   .     S
O521   Zn527   1.999   .     S
O522   Zn527   1.962   .     S
O523   Zn528   1.962   .     S
O524   Zn528   1.908   .     S
O525   Zn527   1.908   .     S
C529   O586    1.283   .     A
C529   C532    1.419   .     S
C529   O581    1.283   .     A
C530   C532    1.397   .     A
C530   H562    1.084   .     S
C530   C163    1.370   1_565 S
C531   C559    1.397   .     A
C531   C560    1.397   .     A
C531   C540    1.419   .     S
C532   C558    1.397   .     A
C533   N580    1.368   .     A
C533   O583    1.378   .     S
C533   C403    1.426   1_655 S
C534   N579    1.368   .     A
C534   O584    1.378   .     S
C535   N579    1.365   .     A
C535   H569    1.082   .     S
C536   N580    1.365   .     A
C536   H570    1.082   .     S
C536   C402    1.426   1_655 S
C537   O588    1.292   .     A
C537   C539    1.458   .     S
C537   O590    1.293   .     A
C538   O591    1.292   .     A
C538   O589    1.293   .     A
C538   C541    1.457   .     S
C539   C546    1.390   .     A
C539   C544    1.397   .     A
C540   O585    1.283   .     A
C540   O587    1.283   .     A
C541   C545    1.398   .     A
C541   C547    1.388   .     A
C542   O592    1.382   .     S
C542   C550    1.413   .     A
C542   C544    1.405   .     A
C543   C552    1.414   .     A
C543   O582    1.382   .     S
C543   C545    1.408   .     A
C544   H575    1.084   .     S
C545   H574    1.083   .     S
C546   C548    1.394   .     A
C546   H573    1.077   .     S
C547   C549    1.392   .     A
C547   H572    1.079   .     S
C548   C553    1.420   .     A
C548   C550    1.422   .     A
C549   C554    1.417   .     A
C549   C552    1.419   .     A
C550   C1150   1.395   .     S
C551   C556    1.387   .     A
C551   C554    1.416   .     A
C551   H565    1.079   .     S
C552   C1151   1.396   1_554 S
C553   C555    1.417   .     A
C553   C1148   1.412   .     S
C554   C1147   1.412   1_554 S
C555   C557    1.389   .     A
C555   H566    1.078   .     S
C556   H561    1.084   .     S
C556   C1144   1.395   1_554 S
C557   H571    1.083   .     S
C557   C1146   1.396   .     S
C558   H576    1.084   .     S
C558   C164    1.370   1_565 S
C559   H577    1.084   .     S
C560   H578    1.084   .     S
H563   O460    0.992   1_655 S
H564   O582    0.992   .     S
H568   O452    0.992   1_655 S
N579   Zn593   2.010   .     S
N580   Zn594   2.010   .     S
O581   Zn593   2.000   .     S
O583   H435    0.992   1_655 S
O585   Zn594   2.000   .     S
O586   Zn594   1.999   .     S
O587   Zn593   1.999   .     S
O588   Zn593   1.962   .     S
O589   Zn594   1.962   .     S
O590   Zn594   1.908   .     S
O591   Zn593   1.908   .     S
C595   O652    1.283   .     A
C595   C598    1.419   .     S
C595   O647    1.283   .     A
C596   C598    1.397   .     A
C596   H628    1.084   .     S
C596   C823    1.370   .     S
C597   C625    1.397   .     A
C597   C626    1.397   .     A
C597   C606    1.419   .     S
C598   C624    1.397   .     A
C599   N646    1.368   .     A
C599   O649    1.378   .     S
C599   C667    1.426   .     S
C600   N645    1.368   .     A
C600   O650    1.378   .     S
C600   C734    1.426   1_455 S
C601   N645    1.365   .     A
C601   H635    1.082   .     S
C601   C731    1.426   1_455 S
C602   N646    1.365   .     A
C602   H636    1.082   .     S
C602   C666    1.426   .     S
C603   O654    1.292   .     A
C603   C605    1.458   .     S
C603   O656    1.293   .     A
C604   O657    1.292   .     A
C604   O655    1.293   .     A
C604   C607    1.457   .     S
C605   C612    1.390   .     A
C605   C610    1.397   .     A
C606   O651    1.283   .     A
C606   O653    1.283   .     A
C607   C611    1.398   .     A
C607   C613    1.388   .     A
C608   O658    1.382   .     S
C608   C616    1.413   .     A
C608   C610    1.405   .     A
C609   C618    1.414   .     A
C609   O648    1.382   .     S
C609   C611    1.408   .     A
C610   H641    1.084   .     S
C611   H640    1.083   .     S
C612   C614    1.394   .     A
C612   H639    1.077   .     S
C613   C615    1.392   .     A
C613   H638    1.079   .     S
C614   C619    1.420   .     A
C614   C616    1.422   .     A
C615   C620    1.417   .     A
C615   C618    1.419   .     A
C616   C28     1.395   1_556 S
C617   C622    1.387   .     A
C617   C620    1.416   .     A
C617   H631    1.079   .     S
C619   C621    1.417   .     A
C619   C26     1.412   1_556 S
C621   C623    1.389   .     A
C621   H632    1.078   .     S
C622   H627    1.084   .     S
C623   H637    1.083   .     S
C623   C24     1.396   1_556 S
C624   H642    1.084   .     S
C624   C824    1.370   .     S
C625   H643    1.084   .     S
C625   C992    1.370   1_545 S
C626   H644    1.084   .     S
C626   C1020   1.370   1_545 S
H629   O724    0.992   .     S
H630   O648    0.992   .     S
H633   O781    0.992   1_455 S
H634   O716    0.992   .     S
N645   Zn659   2.010   .     S
N646   Zn660   2.010   .     S
O647   Zn659   2.000   .     S
O649   H699    0.992   .     S
O650   H766    0.992   1_455 S
O651   Zn660   2.000   .     S
O652   Zn660   1.999   .     S
O653   Zn659   1.999   .     S
O654   Zn659   1.962   .     S
O655   Zn660   1.962   .     S
O656   Zn660   1.908   .     S
O657   Zn659   1.908   .     S
O658   H761    0.992   1_455 S
C661   O718    1.283   .     A
C661   C664    1.419   .     S
C661   O713    1.283   .     A
C662   C664    1.397   .     A
C662   H694    1.084   .     S
C662   C889    1.370   .     S
C663   C691    1.397   .     A
C663   C692    1.397   .     A
C663   C672    1.419   .     S
C664   C690    1.397   .     A
C665   N712    1.368   .     A
C665   O715    1.378   .     S
C665   C733    1.426   .     S
C666   N711    1.368   .     A
C666   O716    1.378   .     S
C667   N711    1.365   .     A
C667   H701    1.082   .     S
C668   N712    1.365   .     A
C668   H702    1.082   .     S
C668   C732    1.426   .     S
C669   O720    1.292   .     A
C669   C671    1.458   .     S
C669   O722    1.293   .     A
C670   O723    1.292   .     A
C670   O721    1.293   .     A
C670   C673    1.457   .     S
C671   C678    1.390   .     A
C671   C676    1.397   .     A
C672   O717    1.283   .     A
C672   O719    1.283   .     A
C673   C677    1.398   .     A
C673   C679    1.388   .     A
C674   O724    1.382   .     S
C674   C682    1.413   .     A
C674   C676    1.405   .     A
C675   C684    1.414   .     A
C675   O714    1.382   .     S
C675   C677    1.408   .     A
C676   H707    1.084   .     S
C677   H706    1.083   .     S
C678   C680    1.394   .     A
C678   H705    1.077   .     S
C679   C681    1.392   .     A
C679   H704    1.079   .     S
C680   C685    1.420   .     A
C680   C682    1.422   .     A
C681   C686    1.417   .     A
C681   C684    1.419   .     A
C682   C94     1.395   1_556 S
C683   C688    1.387   .     A
C683   C686    1.416   .     A
C683   H697    1.079   .     S
C685   C687    1.417   .     A
C685   C92     1.412   1_556 S
C687   C689    1.389   .     A
C687   H698    1.078   .     S
C688   H693    1.084   .     S
C689   H703    1.083   .     S
C689   C90     1.396   1_556 S
C690   H708    1.084   .     S
C690   C890    1.370   .     S
C691   H709    1.084   .     S
C691   C1058   1.370   1_545 S
C692   H710    1.084   .     S
C692   C1086   1.370   1_545 S
H695   O790    0.992   .     S
H696   O714    0.992   .     S
H700   O782    0.992   .     S
N711   Zn725   2.010   .     S
N712   Zn726   2.010   .     S
O713   Zn725   2.000   .     S
O715   H765    0.992   .     S
O717   Zn726   2.000   .     S
O718   Zn726   1.999   .     S
O719   Zn725   1.999   .     S
O720   Zn725   1.962   .     S
O721   Zn726   1.962   .     S
O722   Zn726   1.908   .     S
O723   Zn725   1.908   .     S
C727   O784    1.283   .     A
C727   C730    1.419   .     S
C727   O779    1.283   .     A
C728   C730    1.397   .     A
C728   H760    1.084   .     S
C728   C955    1.370   .     S
C729   C757    1.397   .     A
C729   C758    1.397   .     A
C729   C738    1.419   .     S
C730   C756    1.397   .     A
C731   N778    1.368   .     A
C731   O781    1.378   .     S
C731   C601    1.426   1_655 S
C732   N777    1.368   .     A
C732   O782    1.378   .     S
C733   N777    1.365   .     A
C733   H767    1.082   .     S
C734   N778    1.365   .     A
C734   H768    1.082   .     S
C734   C600    1.426   1_655 S
C735   O786    1.292   .     A
C735   C737    1.458   .     S
C735   O788    1.293   .     A
C736   O789    1.292   .     A
C736   O787    1.293   .     A
C736   C739    1.457   .     S
C737   C744    1.390   .     A
C737   C742    1.397   .     A
C738   O783    1.283   .     A
C738   O785    1.283   .     A
C739   C743    1.398   .     A
C739   C745    1.388   .     A
C740   O790    1.382   .     S
C740   C748    1.413   .     A
C740   C742    1.405   .     A
C741   C750    1.414   .     A
C741   O780    1.382   .     S
C741   C743    1.408   .     A
C742   H773    1.084   .     S
C743   H772    1.083   .     S
C744   C746    1.394   .     A
C744   H771    1.077   .     S
C745   C747    1.392   .     A
C745   H770    1.079   .     S
C746   C751    1.420   .     A
C746   C748    1.422   .     A
C747   C752    1.417   .     A
C747   C750    1.419   .     A
C748   C160    1.395   1_556 S
C749   C754    1.387   .     A
C749   C752    1.416   .     A
C749   H763    1.079   .     S
C751   C753    1.417   .     A
C751   C158    1.412   1_556 S
C753   C755    1.389   .     A
C753   H764    1.078   .     S
C754   H759    1.084   .     S
C755   H769    1.083   .     S
C755   C156    1.396   1_556 S
C756   H774    1.084   .     S
C756   C956    1.370   .     S
C757   H775    1.084   .     S
C757   C1124   1.370   1_545 S
C758   H776    1.084   .     S
C758   C1152   1.370   1_545 S
H761   O658    0.992   1_655 S
H762   O780    0.992   .     S
H766   O650    0.992   1_655 S
N777   Zn791   2.010   .     S
N778   Zn792   2.010   .     S
O779   Zn791   2.000   .     S
O781   H633    0.992   1_655 S
O783   Zn792   2.000   .     S
O784   Zn792   1.999   .     S
O785   Zn791   1.999   .     S
O786   Zn791   1.962   .     S
O787   Zn792   1.962   .     S
O788   Zn792   1.908   .     S
O789   Zn791   1.908   .     S
C793   O850    1.283   .     A
C793   C796    1.419   .     S
C793   O845    1.283   .     A
C794   C796    1.397   .     A
C794   H826    1.084   .     S
C794   C1021   1.370   .     S
C795   C823    1.397   .     A
C795   C824    1.397   .     A
C795   C804    1.419   .     S
C796   C822    1.397   .     A
C797   N844    1.368   .     A
C797   O847    1.378   .     S
C797   C865    1.426   .     S
C798   N843    1.368   .     A
C798   O848    1.378   .     S
C798   C932    1.426   1_455 S
C799   N843    1.365   .     A
C799   H833    1.082   .     S
C799   C929    1.426   1_455 S
C800   N844    1.365   .     A
C800   H834    1.082   .     S
C800   C864    1.426   .     S
C801   O852    1.292   .     A
C801   C803    1.458   .     S
C801   O854    1.293   .     A
C802   O855    1.292   .     A
C802   O853    1.293   .     A
C802   C805    1.457   .     S
C803   C810    1.390   .     A
C803   C808    1.397   .     A
C804   O849    1.283   .     A
C804   O851    1.283   .     A
C805   C809    1.398   .     A
C805   C811    1.388   .     A
C806   O856    1.382   .     S
C806   C814    1.413   .     A
C806   C808    1.405   .     A
C807   C816    1.414   .     A
C807   O846    1.382   .     S
C807   C809    1.408   .     A
C808   H839    1.084   .     S
C809   H838    1.083   .     S
C810   C812    1.394   .     A
C810   H837    1.077   .     S
C811   C813    1.392   .     A
C811   H836    1.079   .     S
C812   C817    1.420   .     A
C812   C814    1.422   .     A
C813   C818    1.417   .     A
C813   C816    1.419   .     A
C814   C226    1.395   1_556 S
C815   C820    1.387   .     A
C815   C818    1.416   .     A
C815   H829    1.079   .     S
C817   C819    1.417   .     A
C817   C224    1.412   1_556 S
C819   C821    1.389   .     A
C819   H830    1.078   .     S
C820   H825    1.084   .     S
C821   H835    1.083   .     S
C821   C222    1.396   1_556 S
C822   H840    1.084   .     S
C822   C1022   1.370   .     S
C823   H841    1.084   .     S
C824   H842    1.084   .     S
H827   O922    0.992   .     S
H828   O846    0.992   .     S
H831   O979    0.992   1_455 S
H832   O914    0.992   .     S
N843   Zn857   2.010   .     S
N844   Zn858   2.010   .     S
O845   Zn857   2.000   .     S
O847   H897    0.992   .     S
O848   H964    0.992   1_455 S
O849   Zn858   2.000   .     S
O850   Zn858   1.999   .     S
O851   Zn857   1.999   .     S
O852   Zn857   1.962   .     S
O853   Zn858   1.962   .     S
O854   Zn858   1.908   .     S
O855   Zn857   1.908   .     S
O856   H959    0.992   1_455 S
C859   O916    1.283   .     A
C859   C862    1.419   .     S
C859   O911    1.283   .     A
C860   C862    1.397   .     A
C860   H892    1.084   .     S
C860   C1087   1.370   .     S
C861   C889    1.397   .     A
C861   C890    1.397   .     A
C861   C870    1.419   .     S
C862   C888    1.397   .     A
C863   N910    1.368   .     A
C863   O913    1.378   .     S
C863   C931    1.426   .     S
C864   N909    1.368   .     A
C864   O914    1.378   .     S
C865   N909    1.365   .     A
C865   H899    1.082   .     S
C866   N910    1.365   .     A
C866   H900    1.082   .     S
C866   C930    1.426   .     S
C867   O918    1.292   .     A
C867   C869    1.458   .     S
C867   O920    1.293   .     A
C868   O921    1.292   .     A
C868   O919    1.293   .     A
C868   C871    1.457   .     S
C869   C876    1.390   .     A
C869   C874    1.397   .     A
C870   O915    1.283   .     A
C870   O917    1.283   .     A
C871   C875    1.398   .     A
C871   C877    1.388   .     A
C872   O922    1.382   .     S
C872   C880    1.413   .     A
C872   C874    1.405   .     A
C873   C882    1.414   .     A
C873   O912    1.382   .     S
C873   C875    1.408   .     A
C874   H905    1.084   .     S
C875   H904    1.083   .     S
C876   C878    1.394   .     A
C876   H903    1.077   .     S
C877   C879    1.392   .     A
C877   H902    1.079   .     S
C878   C883    1.420   .     A
C878   C880    1.422   .     A
C879   C884    1.417   .     A
C879   C882    1.419   .     A
C880   C292    1.395   1_556 S
C881   C886    1.387   .     A
C881   C884    1.416   .     A
C881   H895    1.079   .     S
C883   C885    1.417   .     A
C883   C290    1.412   1_556 S
C885   C887    1.389   .     A
C885   H896    1.078   .     S
C886   H891    1.084   .     S
C887   H901    1.083   .     S
C887   C288    1.396   1_556 S
C888   H906    1.084   .     S
C888   C1088   1.370   .     S
C889   H907    1.084   .     S
C890   H908    1.084   .     S
H893   O988    0.992   .     S
H894   O912    0.992   .     S
H898   O980    0.992   .     S
N909   Zn923   2.010   .     S
N910   Zn924   2.010   .     S
O911   Zn923   2.000   .     S
O913   H963    0.992   .     S
O915   Zn924   2.000   .     S
O916   Zn924   1.999   .     S
O917   Zn923   1.999   .     S
O918   Zn923   1.962   .     S
O919   Zn924   1.962   .     S
O920   Zn924   1.908   .     S
O921   Zn923   1.908   .     S
C925   O982    1.283   .     A
C925   C928    1.419   .     S
C925   O977    1.283   .     A
C926   C928    1.397   .     A
C926   H958    1.084   .     S
C926   C1153   1.370   .     S
C927   C955    1.397   .     A
C927   C956    1.397   .     A
C927   C936    1.419   .     S
C928   C954    1.397   .     A
C929   N976    1.368   .     A
C929   O979    1.378   .     S
C929   C799    1.426   1_655 S
C930   N975    1.368   .     A
C930   O980    1.378   .     S
C931   N975    1.365   .     A
C931   H965    1.082   .     S
C932   N976    1.365   .     A
C932   H966    1.082   .     S
C932   C798    1.426   1_655 S
C933   O984    1.292   .     A
C933   C935    1.458   .     S
C933   O986    1.293   .     A
C934   O987    1.292   .     A
C934   O985    1.293   .     A
C934   C937    1.457   .     S
C935   C942    1.390   .     A
C935   C940    1.397   .     A
C936   O981    1.283   .     A
C936   O983    1.283   .     A
C937   C941    1.398   .     A
C937   C943    1.388   .     A
C938   O988    1.382   .     S
C938   C946    1.413   .     A
C938   C940    1.405   .     A
C939   C948    1.414   .     A
C939   O978    1.382   .     S
C939   C941    1.408   .     A
C940   H971    1.084   .     S
C941   H970    1.083   .     S
C942   C944    1.394   .     A
C942   H969    1.077   .     S
C943   C945    1.392   .     A
C943   H968    1.079   .     S
C944   C949    1.420   .     A
C944   C946    1.422   .     A
C945   C950    1.417   .     A
C945   C948    1.419   .     A
C946   C358    1.395   1_556 S
C947   C952    1.387   .     A
C947   C950    1.416   .     A
C947   H961    1.079   .     S
C949   C951    1.417   .     A
C949   C356    1.412   1_556 S
C951   C953    1.389   .     A
C951   H962    1.078   .     S
C952   H957    1.084   .     S
C953   H967    1.083   .     S
C953   C354    1.396   1_556 S
C954   H972    1.084   .     S
C954   C1154   1.370   .     S
C955   H973    1.084   .     S
C956   H974    1.084   .     S
H959   O856    0.992   1_655 S
H960   O978    0.992   .     S
H964   O848    0.992   1_655 S
N975   Zn989   2.010   .     S
N976   Zn990   2.010   .     S
O977   Zn989   2.000   .     S
O979   H831    0.992   1_655 S
O981   Zn990   2.000   .     S
O982   Zn990   1.999   .     S
O983   Zn989   1.999   .     S
O984   Zn989   1.962   .     S
O985   Zn990   1.962   .     S
O986   Zn990   1.908   .     S
O987   Zn989   1.908   .     S
C991   O1048   1.283   .     A
C991   C994    1.419   .     S
C991   O1043   1.283   .     A
C992   C994    1.397   .     A
C992   H1024   1.084   .     S
C992   C625    1.370   1_565 S
C993   C1021   1.397   .     A
C993   C1022   1.397   .     A
C993   C1002   1.419   .     S
C994   C1020   1.397   .     A
C995   N1042   1.368   .     A
C995   O1045   1.378   .     S
C995   C1063   1.426   .     S
C996   N1041   1.368   .     A
C996   O1046   1.378   .     S
C996   C1130   1.426   1_455 S
C997   N1041   1.365   .     A
C997   H1031   1.082   .     S
C997   C1127   1.426   1_455 S
C998   N1042   1.365   .     A
C998   H1032   1.082   .     S
C998   C1062   1.426   .     S
C999   O1050   1.292   .     A
C999   C1001   1.458   .     S
C999   O1052   1.293   .     A
C1000  O1053   1.292   .     A
C1000  O1051   1.293   .     A
C1000  C1003   1.457   .     S
C1001  C1008   1.390   .     A
C1001  C1006   1.397   .     A
C1002  O1047   1.283   .     A
C1002  O1049   1.283   .     A
C1003  C1007   1.398   .     A
C1003  C1009   1.388   .     A
C1004  O1054   1.382   .     S
C1004  C1012   1.413   .     A
C1004  C1006   1.405   .     A
C1005  C1014   1.414   .     A
C1005  O1044   1.382   .     S
C1005  C1007   1.408   .     A
C1006  H1037   1.084   .     S
C1007  H1036   1.083   .     S
C1008  C1010   1.394   .     A
C1008  H1035   1.077   .     S
C1009  C1011   1.392   .     A
C1009  H1034   1.079   .     S
C1010  C1015   1.420   .     A
C1010  C1012   1.422   .     A
C1011  C1016   1.417   .     A
C1011  C1014   1.419   .     A
C1012  C424    1.395   1_556 S
C1013  C1018   1.387   .     A
C1013  C1016   1.416   .     A
C1013  H1027   1.079   .     S
C1015  C1017   1.417   .     A
C1015  C422    1.412   1_556 S
C1017  C1019   1.389   .     A
C1017  H1028   1.078   .     S
C1018  H1023   1.084   .     S
C1019  H1033   1.083   .     S
C1019  C420    1.396   1_556 S
C1020  H1038   1.084   .     S
C1020  C626    1.370   1_565 S
C1021  H1039   1.084   .     S
C1022  H1040   1.084   .     S
H1025  O1120   0.992   .     S
H1026  O1044   0.992   .     S
H1029  O1177   0.992   1_455 S
H1030  O1112   0.992   .     S
N1041  Zn1055  2.010   .     S
N1042  Zn1056  2.010   .     S
O1043  Zn1055  2.000   .     S
O1045  H1095   0.992   .     S
O1046  H1162   0.992   1_455 S
O1047  Zn1056  2.000   .     S
O1048  Zn1056  1.999   .     S
O1049  Zn1055  1.999   .     S
O1050  Zn1055  1.962   .     S
O1051  Zn1056  1.962   .     S
O1052  Zn1056  1.908   .     S
O1053  Zn1055  1.908   .     S
O1054  H1157   0.992   1_455 S
C1057  O1114   1.283   .     A
C1057  C1060   1.419   .     S
C1057  O1109   1.283   .     A
C1058  C1060   1.397   .     A
C1058  H1090   1.084   .     S
C1058  C691    1.370   1_565 S
C1059  C1087   1.397   .     A
C1059  C1088   1.397   .     A
C1059  C1068   1.419   .     S
C1060  C1086   1.397   .     A
C1061  N1108   1.368   .     A
C1061  O1111   1.378   .     S
C1061  C1129   1.426   .     S
C1062  N1107   1.368   .     A
C1062  O1112   1.378   .     S
C1063  N1107   1.365   .     A
C1063  H1097   1.082   .     S
C1064  N1108   1.365   .     A
C1064  H1098   1.082   .     S
C1064  C1128   1.426   .     S
C1065  O1116   1.292   .     A
C1065  C1067   1.458   .     S
C1065  O1118   1.293   .     A
C1066  O1119   1.292   .     A
C1066  O1117   1.293   .     A
C1066  C1069   1.457   .     S
C1067  C1074   1.390   .     A
C1067  C1072   1.397   .     A
C1068  O1113   1.283   .     A
C1068  O1115   1.283   .     A
C1069  C1073   1.398   .     A
C1069  C1075   1.388   .     A
C1070  O1120   1.382   .     S
C1070  C1078   1.413   .     A
C1070  C1072   1.405   .     A
C1071  C1080   1.414   .     A
C1071  O1110   1.382   .     S
C1071  C1073   1.408   .     A
C1072  H1103   1.084   .     S
C1073  H1102   1.083   .     S
C1074  C1076   1.394   .     A
C1074  H1101   1.077   .     S
C1075  C1077   1.392   .     A
C1075  H1100   1.079   .     S
C1076  C1081   1.420   .     A
C1076  C1078   1.422   .     A
C1077  C1082   1.417   .     A
C1077  C1080   1.419   .     A
C1078  C490    1.395   1_556 S
C1079  C1084   1.387   .     A
C1079  C1082   1.416   .     A
C1079  H1093   1.079   .     S
C1081  C1083   1.417   .     A
C1081  C488    1.412   1_556 S
C1083  C1085   1.389   .     A
C1083  H1094   1.078   .     S
C1084  H1089   1.084   .     S
C1085  H1099   1.083   .     S
C1085  C486    1.396   1_556 S
C1086  H1104   1.084   .     S
C1086  C692    1.370   1_565 S
C1087  H1105   1.084   .     S
C1088  H1106   1.084   .     S
H1091  O1186   0.992   .     S
H1092  O1110   0.992   .     S
H1096  O1178   0.992   .     S
N1107  Zn1121  2.010   .     S
N1108  Zn1122  2.010   .     S
O1109  Zn1121  2.000   .     S
O1111  H1161   0.992   .     S
O1113  Zn1122  2.000   .     S
O1114  Zn1122  1.999   .     S
O1115  Zn1121  1.999   .     S
O1116  Zn1121  1.962   .     S
O1117  Zn1122  1.962   .     S
O1118  Zn1122  1.908   .     S
O1119  Zn1121  1.908   .     S
C1123  O1180   1.283   .     A
C1123  C1126   1.419   .     S
C1123  O1175   1.283   .     A
C1124  C1126   1.397   .     A
C1124  H1156   1.084   .     S
C1124  C757    1.370   1_565 S
C1125  C1153   1.397   .     A
C1125  C1154   1.397   .     A
C1125  C1134   1.419   .     S
C1126  C1152   1.397   .     A
C1127  N1174   1.368   .     A
C1127  O1177   1.378   .     S
C1127  C997    1.426   1_655 S
C1128  N1173   1.368   .     A
C1128  O1178   1.378   .     S
C1129  N1173   1.365   .     A
C1129  H1163   1.082   .     S
C1130  N1174   1.365   .     A
C1130  H1164   1.082   .     S
C1130  C996    1.426   1_655 S
C1131  O1182   1.292   .     A
C1131  C1133   1.458   .     S
C1131  O1184   1.293   .     A
C1132  O1185   1.292   .     A
C1132  O1183   1.293   .     A
C1132  C1135   1.457   .     S
C1133  C1140   1.390   .     A
C1133  C1138   1.397   .     A
C1134  O1179   1.283   .     A
C1134  O1181   1.283   .     A
C1135  C1139   1.398   .     A
C1135  C1141   1.388   .     A
C1136  O1186   1.382   .     S
C1136  C1144   1.413   .     A
C1136  C1138   1.405   .     A
C1137  C1146   1.414   .     A
C1137  O1176   1.382   .     S
C1137  C1139   1.408   .     A
C1138  H1169   1.084   .     S
C1139  H1168   1.083   .     S
C1140  C1142   1.394   .     A
C1140  H1167   1.077   .     S
C1141  C1143   1.392   .     A
C1141  H1166   1.079   .     S
C1142  C1147   1.420   .     A
C1142  C1144   1.422   .     A
C1143  C1148   1.417   .     A
C1143  C1146   1.419   .     A
C1144  C556    1.395   1_556 S
C1145  C1150   1.387   .     A
C1145  C1148   1.416   .     A
C1145  H1159   1.079   .     S
C1147  C1149   1.417   .     A
C1147  C554    1.412   1_556 S
C1149  C1151   1.389   .     A
C1149  H1160   1.078   .     S
C1150  H1155   1.084   .     S
C1151  H1165   1.083   .     S
C1151  C552    1.396   1_556 S
C1152  H1170   1.084   .     S
C1152  C758    1.370   1_565 S
C1153  H1171   1.084   .     S
C1154  H1172   1.084   .     S
H1157  O1054   0.992   1_655 S
H1158  O1176   0.992   .     S
H1162  O1046   0.992   1_655 S
N1173  Zn1187  2.010   .     S
N1174  Zn1188  2.010   .     S
O1175  Zn1187  2.000   .     S
O1177  H1029   0.992   1_655 S
O1179  Zn1188  2.000   .     S
O1180  Zn1188  1.999   .     S
O1181  Zn1187  1.999   .     S
O1182  Zn1187  1.962   .     S
O1183  Zn1188  1.962   .     S
O1184  Zn1188  1.908   .     S
O1185  Zn1187  1.908   .     S
