data_str_m3_o5_o17_pcu_sym.38
_audit_creation_date              2020-01-03
_audit_creation_method            'Materials Studio'
_symmetry_space_group_name_H-M    'P1'
_symmetry_Int_Tables_number       1
_symmetry_cell_setting            triclinic
loop_
_symmetry_equiv_pos_as_xyz
  x,y,z
_cell_length_a                    30.0341
_cell_length_b                    26.7652
_cell_length_c                    24.2726
_cell_angle_alpha                 90.0800
_cell_angle_beta                  89.8793
_cell_angle_gamma                 89.9865
loop_
_atom_site_label
_atom_site_type_symbol
_atom_site_fract_x
_atom_site_fract_y
_atom_site_fract_z
_atom_site_U_iso_or_equiv
_atom_site_adp_type
_atom_site_occupancy
O1     O     0.25000   0.09512   0.21228   0.00000  Uiso   1.00
O2     O     0.25000   0.23822   0.12105   0.00000  Uiso   1.00
O3     O     0.25000   0.23822   0.21228   0.00000  Uiso   1.00
O4     O     0.25000   0.09512   0.12105   0.00000  Uiso   1.00
C5     C     0.24999   0.07265   0.16664   0.00000  Uiso   1.00
C6     C     0.25001   0.26068   0.16669   0.00000  Uiso   1.00
O7     O     0.18392   0.16667   0.21230   0.00000  Uiso   1.00
O8     O     0.31607   0.16667   0.12104   0.00000  Uiso   1.00
O9     O     0.31607   0.16667   0.21230   0.00000  Uiso   1.00
O10    O     0.18392   0.16667   0.12104   0.00000  Uiso   1.00
C11    C     0.16314   0.16670   0.16675   0.00000  Uiso   1.00
C12    C     0.33691   0.16669   0.16664   0.00000  Uiso   1.00
Zn13   Zn    0.25000   0.16667   0.22759   0.00000  Uiso   1.00
Zn14   Zn    0.25000   0.16667   0.10574   0.00000  Uiso   1.00
N15    N     0.25000   0.16667   0.02455   0.00000  Uiso   1.00
N16    N     0.25000   0.16667   0.30879   0.00000  Uiso   1.00
C17    C     0.40727   0.19200   0.12442   0.00000  Uiso   1.00
C18    C     0.09251   0.13546   0.20361   0.00000  Uiso   1.00
C19    C     0.40769   0.13684   0.20480   0.00000  Uiso   1.00
C20    C     0.09293   0.19412   0.12633   0.00000  Uiso   1.00
C21    C     0.38487   0.16574   0.16596   0.00000  Uiso   1.00
C22    C     0.11527   0.16603   0.16633   0.00000  Uiso   1.00
C23    C     0.45367   0.12958   0.19859   0.00000  Uiso   1.00
C24    C     0.04673   0.18901   0.12056   0.00000  Uiso   1.00
C25    C     0.45352   0.18737   0.11944   0.00000  Uiso   1.00
C26    C     0.04656   0.12884   0.19751   0.00000  Uiso   1.00
C27    C     0.47684   0.15788   0.15830   0.00000  Uiso   1.00
C28    C     0.02340   0.15810   0.15829   0.00000  Uiso   1.00
C29    C     0.47681   0.09475   0.23157   0.00000  Uiso   1.00
C30    C     0.02350   0.21429   0.07837   0.00000  Uiso   1.00
C31    C     0.47675   0.21114   0.07623   0.00000  Uiso   1.00
C32    C     0.02357   0.09277   0.22876   0.00000  Uiso   1.00
C33    C     0.24999   0.02173   0.16662   0.00000  Uiso   1.00
C34    C     0.25000   0.31159   0.16668   0.00000  Uiso   1.00
O35    O     0.45337   0.06263   0.26544   0.00000  Uiso   1.00
H36    H     0.47154   0.05546   0.29854   0.00000  Uiso   1.00
O37    O     0.04677   0.24179   0.03970   0.00000  Uiso   1.00
H38    H     0.02823   0.27050   0.02800   0.00000  Uiso   1.00
O39    O     0.45337   0.23039   0.03207   0.00000  Uiso   1.00
H40    H     0.47204   0.22784   0.33180   0.00000  Uiso   1.00
O41    O     0.04729   0.05534   0.25478   0.00000  Uiso   1.00
H42    H     0.02870   0.02481   0.25655   0.00000  Uiso   1.00
O43    O     0.38351   0.22298   0.08938   0.00000  Uiso   1.00
C44    C     0.37970   0.27053   0.11420   0.00000  Uiso   1.00
H45    H     0.36125   0.29547   0.08580   0.00000  Uiso   1.00
H46    H     0.41298   0.28756   0.12154   0.00000  Uiso   1.00
H47    H     0.36052   0.26875   0.15342   0.00000  Uiso   1.00
O48    O     0.11586   0.11118   0.24491   0.00000  Uiso   1.00
C49    C     0.11118   0.13877   0.29433   0.00000  Uiso   1.00
H50    H     0.13230   0.12127   0.32641   0.00000  Uiso   1.00
H51    H     0.07624   0.13824   0.30958   0.00000  Uiso   1.00
H52    H     0.12252   0.17813   0.28940   0.00000  Uiso   1.00
O53    O     0.38426   0.11430   0.24731   0.00000  Uiso   1.00
C54    C     0.38806   0.14446   0.29496   0.00000  Uiso   1.00
H55    H     0.37664   0.18344   0.28744   0.00000  Uiso   1.00
H56    H     0.42277   0.14494   0.31073   0.00000  Uiso   1.00
H57    H     0.36660   0.12851   0.32777   0.00000  Uiso   1.00
O58    O     0.11688   0.22639   0.09286   0.00000  Uiso   1.00
C59    C     0.12153   0.27255   0.12052   0.00000  Uiso   1.00
H60    H     0.13968   0.29877   0.09315   0.00000  Uiso   1.00
H61    H     0.14138   0.26855   0.15891   0.00000  Uiso   1.00
H62    H     0.08854   0.28950   0.13006   0.00000  Uiso   1.00
O63    O     0.75000   0.09512   0.21228   0.00000  Uiso   1.00
O64    O     0.75000   0.23822   0.12105   0.00000  Uiso   1.00
O65    O     0.75000   0.23822   0.21228   0.00000  Uiso   1.00
O66    O     0.75000   0.09512   0.12105   0.00000  Uiso   1.00
C67    C     0.74999   0.07265   0.16664   0.00000  Uiso   1.00
C68    C     0.75001   0.26068   0.16669   0.00000  Uiso   1.00
O69    O     0.68392   0.16667   0.21230   0.00000  Uiso   1.00
O70    O     0.81607   0.16667   0.12104   0.00000  Uiso   1.00
O71    O     0.81607   0.16667   0.21230   0.00000  Uiso   1.00
O72    O     0.68392   0.16667   0.12104   0.00000  Uiso   1.00
C73    C     0.66314   0.16670   0.16675   0.00000  Uiso   1.00
C74    C     0.83691   0.16669   0.16664   0.00000  Uiso   1.00
Zn75   Zn    0.75000   0.16667   0.22759   0.00000  Uiso   1.00
Zn76   Zn    0.75000   0.16667   0.10574   0.00000  Uiso   1.00
N77    N     0.75000   0.16667   0.02455   0.00000  Uiso   1.00
N78    N     0.75000   0.16667   0.30879   0.00000  Uiso   1.00
C79    C     0.90727   0.19200   0.12442   0.00000  Uiso   1.00
C80    C     0.59251   0.13546   0.20361   0.00000  Uiso   1.00
C81    C     0.90769   0.13684   0.20480   0.00000  Uiso   1.00
C82    C     0.59293   0.19412   0.12633   0.00000  Uiso   1.00
C83    C     0.88487   0.16574   0.16596   0.00000  Uiso   1.00
C84    C     0.61527   0.16603   0.16633   0.00000  Uiso   1.00
C85    C     0.95367   0.12958   0.19859   0.00000  Uiso   1.00
C86    C     0.54673   0.18901   0.12056   0.00000  Uiso   1.00
C87    C     0.95352   0.18737   0.11944   0.00000  Uiso   1.00
C88    C     0.54656   0.12884   0.19751   0.00000  Uiso   1.00
C89    C     0.97684   0.15788   0.15830   0.00000  Uiso   1.00
C90    C     0.52340   0.15810   0.15829   0.00000  Uiso   1.00
C91    C     0.97681   0.09475   0.23157   0.00000  Uiso   1.00
C92    C     0.52350   0.21429   0.07837   0.00000  Uiso   1.00
C93    C     0.97675   0.21114   0.07623   0.00000  Uiso   1.00
C94    C     0.52357   0.09277   0.22876   0.00000  Uiso   1.00
C95    C     0.74999   0.02173   0.16662   0.00000  Uiso   1.00
C96    C     0.75000   0.31159   0.16668   0.00000  Uiso   1.00
O97    O     0.95337   0.06263   0.26544   0.00000  Uiso   1.00
H98    H     0.97154   0.05546   0.29854   0.00000  Uiso   1.00
O99    O     0.54677   0.24179   0.03970   0.00000  Uiso   1.00
H100   H     0.52823   0.27050   0.02800   0.00000  Uiso   1.00
O101   O     0.95337   0.23039   0.03207   0.00000  Uiso   1.00
H102   H     0.97204   0.22784   0.33180   0.00000  Uiso   1.00
O103   O     0.54729   0.05534   0.25478   0.00000  Uiso   1.00
H104   H     0.52870   0.02481   0.25655   0.00000  Uiso   1.00
O105   O     0.88351   0.22298   0.08938   0.00000  Uiso   1.00
C106   C     0.87970   0.27053   0.11420   0.00000  Uiso   1.00
H107   H     0.86125   0.29547   0.08580   0.00000  Uiso   1.00
H108   H     0.91298   0.28756   0.12154   0.00000  Uiso   1.00
H109   H     0.86052   0.26875   0.15342   0.00000  Uiso   1.00
O110   O     0.61586   0.11118   0.24491   0.00000  Uiso   1.00
C111   C     0.61118   0.13877   0.29433   0.00000  Uiso   1.00
H112   H     0.63230   0.12127   0.32641   0.00000  Uiso   1.00
H113   H     0.57624   0.13824   0.30958   0.00000  Uiso   1.00
H114   H     0.62252   0.17813   0.28940   0.00000  Uiso   1.00
O115   O     0.88426   0.11430   0.24731   0.00000  Uiso   1.00
C116   C     0.88806   0.14446   0.29496   0.00000  Uiso   1.00
H117   H     0.87664   0.18344   0.28744   0.00000  Uiso   1.00
H118   H     0.92277   0.14494   0.31073   0.00000  Uiso   1.00
H119   H     0.86660   0.12851   0.32777   0.00000  Uiso   1.00
O120   O     0.61688   0.22639   0.09286   0.00000  Uiso   1.00
C121   C     0.62153   0.27255   0.12052   0.00000  Uiso   1.00
H122   H     0.63968   0.29877   0.09315   0.00000  Uiso   1.00
H123   H     0.64138   0.26855   0.15891   0.00000  Uiso   1.00
H124   H     0.58854   0.28950   0.13006   0.00000  Uiso   1.00
O125   O     0.25000   0.42845   0.21228   0.00000  Uiso   1.00
O126   O     0.25000   0.57155   0.12105   0.00000  Uiso   1.00
O127   O     0.25000   0.57155   0.21228   0.00000  Uiso   1.00
O128   O     0.25000   0.42845   0.12105   0.00000  Uiso   1.00
C129   C     0.24999   0.40598   0.16664   0.00000  Uiso   1.00
C130   C     0.25001   0.59401   0.16669   0.00000  Uiso   1.00
O131   O     0.18392   0.50000   0.21230   0.00000  Uiso   1.00
O132   O     0.31607   0.50000   0.12104   0.00000  Uiso   1.00
O133   O     0.31607   0.50000   0.21230   0.00000  Uiso   1.00
O134   O     0.18392   0.50000   0.12104   0.00000  Uiso   1.00
C135   C     0.16314   0.50003   0.16675   0.00000  Uiso   1.00
C136   C     0.33691   0.50002   0.16664   0.00000  Uiso   1.00
Zn137  Zn    0.25000   0.50000   0.22759   0.00000  Uiso   1.00
Zn138  Zn    0.25000   0.50000   0.10574   0.00000  Uiso   1.00
N139   N     0.25000   0.50000   0.02455   0.00000  Uiso   1.00
N140   N     0.25000   0.50000   0.30879   0.00000  Uiso   1.00
C141   C     0.40727   0.52533   0.12442   0.00000  Uiso   1.00
C142   C     0.09251   0.46880   0.20361   0.00000  Uiso   1.00
C143   C     0.40769   0.47017   0.20480   0.00000  Uiso   1.00
C144   C     0.09293   0.52745   0.12633   0.00000  Uiso   1.00
C145   C     0.38487   0.49907   0.16596   0.00000  Uiso   1.00
C146   C     0.11527   0.49936   0.16633   0.00000  Uiso   1.00
C147   C     0.45367   0.46291   0.19859   0.00000  Uiso   1.00
C148   C     0.04673   0.52234   0.12056   0.00000  Uiso   1.00
C149   C     0.45352   0.52070   0.11944   0.00000  Uiso   1.00
C150   C     0.04656   0.46217   0.19751   0.00000  Uiso   1.00
C151   C     0.47684   0.49121   0.15830   0.00000  Uiso   1.00
C152   C     0.02340   0.49144   0.15829   0.00000  Uiso   1.00
C153   C     0.47681   0.42809   0.23157   0.00000  Uiso   1.00
C154   C     0.02350   0.54762   0.07837   0.00000  Uiso   1.00
C155   C     0.47675   0.54447   0.07623   0.00000  Uiso   1.00
C156   C     0.02357   0.42610   0.22876   0.00000  Uiso   1.00
C157   C     0.24999   0.35506   0.16662   0.00000  Uiso   1.00
C158   C     0.25000   0.64493   0.16668   0.00000  Uiso   1.00
O159   O     0.45337   0.39596   0.26544   0.00000  Uiso   1.00
H160   H     0.47154   0.38879   0.29854   0.00000  Uiso   1.00
O161   O     0.04677   0.57512   0.03970   0.00000  Uiso   1.00
H162   H     0.02823   0.60384   0.02800   0.00000  Uiso   1.00
O163   O     0.45337   0.56372   0.03207   0.00000  Uiso   1.00
H164   H     0.47204   0.56118   0.33180   0.00000  Uiso   1.00
O165   O     0.04729   0.38867   0.25478   0.00000  Uiso   1.00
H166   H     0.02870   0.35815   0.25655   0.00000  Uiso   1.00
O167   O     0.38351   0.55631   0.08938   0.00000  Uiso   1.00
C168   C     0.37970   0.60386   0.11420   0.00000  Uiso   1.00
H169   H     0.36125   0.62880   0.08580   0.00000  Uiso   1.00
H170   H     0.41298   0.62089   0.12154   0.00000  Uiso   1.00
H171   H     0.36052   0.60208   0.15342   0.00000  Uiso   1.00
O172   O     0.11586   0.44452   0.24491   0.00000  Uiso   1.00
C173   C     0.11118   0.47211   0.29433   0.00000  Uiso   1.00
H174   H     0.13230   0.45460   0.32641   0.00000  Uiso   1.00
H175   H     0.07624   0.47158   0.30958   0.00000  Uiso   1.00
H176   H     0.12252   0.51146   0.28940   0.00000  Uiso   1.00
O177   O     0.38426   0.44763   0.24731   0.00000  Uiso   1.00
C178   C     0.38806   0.47779   0.29496   0.00000  Uiso   1.00
H179   H     0.37664   0.51677   0.28744   0.00000  Uiso   1.00
H180   H     0.42277   0.47827   0.31073   0.00000  Uiso   1.00
H181   H     0.36660   0.46184   0.32777   0.00000  Uiso   1.00
O182   O     0.11688   0.55973   0.09286   0.00000  Uiso   1.00
C183   C     0.12153   0.60588   0.12052   0.00000  Uiso   1.00
H184   H     0.13968   0.63210   0.09315   0.00000  Uiso   1.00
H185   H     0.14138   0.60189   0.15891   0.00000  Uiso   1.00
H186   H     0.08854   0.62284   0.13006   0.00000  Uiso   1.00
O187   O     0.75000   0.42845   0.21228   0.00000  Uiso   1.00
O188   O     0.75000   0.57155   0.12105   0.00000  Uiso   1.00
O189   O     0.75000   0.57155   0.21228   0.00000  Uiso   1.00
O190   O     0.75000   0.42845   0.12105   0.00000  Uiso   1.00
C191   C     0.74999   0.40598   0.16664   0.00000  Uiso   1.00
C192   C     0.75001   0.59401   0.16669   0.00000  Uiso   1.00
O193   O     0.68392   0.50000   0.21230   0.00000  Uiso   1.00
O194   O     0.81607   0.50000   0.12104   0.00000  Uiso   1.00
O195   O     0.81607   0.50000   0.21230   0.00000  Uiso   1.00
O196   O     0.68392   0.50000   0.12104   0.00000  Uiso   1.00
C197   C     0.66314   0.50003   0.16675   0.00000  Uiso   1.00
C198   C     0.83691   0.50002   0.16664   0.00000  Uiso   1.00
Zn199  Zn    0.75000   0.50000   0.22759   0.00000  Uiso   1.00
Zn200  Zn    0.75000   0.50000   0.10574   0.00000  Uiso   1.00
N201   N     0.75000   0.50000   0.02455   0.00000  Uiso   1.00
N202   N     0.75000   0.50000   0.30879   0.00000  Uiso   1.00
C203   C     0.90727   0.52533   0.12442   0.00000  Uiso   1.00
C204   C     0.59251   0.46880   0.20361   0.00000  Uiso   1.00
C205   C     0.90769   0.47017   0.20480   0.00000  Uiso   1.00
C206   C     0.59293   0.52745   0.12633   0.00000  Uiso   1.00
C207   C     0.88487   0.49907   0.16596   0.00000  Uiso   1.00
C208   C     0.61527   0.49936   0.16633   0.00000  Uiso   1.00
C209   C     0.95367   0.46291   0.19859   0.00000  Uiso   1.00
C210   C     0.54673   0.52234   0.12056   0.00000  Uiso   1.00
C211   C     0.95352   0.52070   0.11944   0.00000  Uiso   1.00
C212   C     0.54656   0.46217   0.19751   0.00000  Uiso   1.00
C213   C     0.97684   0.49121   0.15830   0.00000  Uiso   1.00
C214   C     0.52340   0.49144   0.15829   0.00000  Uiso   1.00
C215   C     0.97681   0.42809   0.23157   0.00000  Uiso   1.00
C216   C     0.52350   0.54762   0.07837   0.00000  Uiso   1.00
C217   C     0.97675   0.54447   0.07623   0.00000  Uiso   1.00
C218   C     0.52357   0.42610   0.22876   0.00000  Uiso   1.00
C219   C     0.74999   0.35506   0.16662   0.00000  Uiso   1.00
C220   C     0.75000   0.64493   0.16668   0.00000  Uiso   1.00
O221   O     0.95337   0.39596   0.26544   0.00000  Uiso   1.00
H222   H     0.97154   0.38879   0.29854   0.00000  Uiso   1.00
O223   O     0.54677   0.57512   0.03970   0.00000  Uiso   1.00
H224   H     0.52823   0.60384   0.02800   0.00000  Uiso   1.00
O225   O     0.95337   0.56372   0.03207   0.00000  Uiso   1.00
H226   H     0.97204   0.56118   0.33180   0.00000  Uiso   1.00
O227   O     0.54729   0.38867   0.25478   0.00000  Uiso   1.00
H228   H     0.52870   0.35815   0.25655   0.00000  Uiso   1.00
O229   O     0.88351   0.55631   0.08938   0.00000  Uiso   1.00
C230   C     0.87970   0.60386   0.11420   0.00000  Uiso   1.00
H231   H     0.86125   0.62880   0.08580   0.00000  Uiso   1.00
H232   H     0.91298   0.62089   0.12154   0.00000  Uiso   1.00
H233   H     0.86052   0.60208   0.15342   0.00000  Uiso   1.00
O234   O     0.61586   0.44452   0.24491   0.00000  Uiso   1.00
C235   C     0.61118   0.47211   0.29433   0.00000  Uiso   1.00
H236   H     0.63230   0.45460   0.32641   0.00000  Uiso   1.00
H237   H     0.57624   0.47158   0.30958   0.00000  Uiso   1.00
H238   H     0.62252   0.51146   0.28940   0.00000  Uiso   1.00
O239   O     0.88426   0.44763   0.24731   0.00000  Uiso   1.00
C240   C     0.88806   0.47779   0.29496   0.00000  Uiso   1.00
H241   H     0.87664   0.51677   0.28744   0.00000  Uiso   1.00
H242   H     0.92277   0.47827   0.31073   0.00000  Uiso   1.00
H243   H     0.86660   0.46184   0.32777   0.00000  Uiso   1.00
O244   O     0.61688   0.55973   0.09286   0.00000  Uiso   1.00
C245   C     0.62153   0.60588   0.12052   0.00000  Uiso   1.00
H246   H     0.63968   0.63210   0.09315   0.00000  Uiso   1.00
H247   H     0.64138   0.60189   0.15891   0.00000  Uiso   1.00
H248   H     0.58854   0.62284   0.13006   0.00000  Uiso   1.00
O249   O     0.25000   0.76178   0.21228   0.00000  Uiso   1.00
O250   O     0.25000   0.90488   0.12105   0.00000  Uiso   1.00
O251   O     0.25000   0.90488   0.21228   0.00000  Uiso   1.00
O252   O     0.25000   0.76178   0.12105   0.00000  Uiso   1.00
C253   C     0.24999   0.73932   0.16664   0.00000  Uiso   1.00
C254   C     0.25001   0.92735   0.16669   0.00000  Uiso   1.00
O255   O     0.18392   0.83333   0.21230   0.00000  Uiso   1.00
O256   O     0.31607   0.83333   0.12104   0.00000  Uiso   1.00
O257   O     0.31607   0.83333   0.21230   0.00000  Uiso   1.00
O258   O     0.18392   0.83333   0.12104   0.00000  Uiso   1.00
C259   C     0.16314   0.83337   0.16675   0.00000  Uiso   1.00
C260   C     0.33691   0.83335   0.16664   0.00000  Uiso   1.00
Zn261  Zn    0.25000   0.83333   0.22759   0.00000  Uiso   1.00
Zn262  Zn    0.25000   0.83333   0.10574   0.00000  Uiso   1.00
N263   N     0.25000   0.83333   0.02455   0.00000  Uiso   1.00
N264   N     0.25000   0.83333   0.30879   0.00000  Uiso   1.00
C265   C     0.40727   0.85867   0.12442   0.00000  Uiso   1.00
C266   C     0.09251   0.80213   0.20361   0.00000  Uiso   1.00
C267   C     0.40769   0.80351   0.20480   0.00000  Uiso   1.00
C268   C     0.09293   0.86079   0.12633   0.00000  Uiso   1.00
C269   C     0.38487   0.83241   0.16596   0.00000  Uiso   1.00
C270   C     0.11527   0.83270   0.16633   0.00000  Uiso   1.00
C271   C     0.45367   0.79625   0.19859   0.00000  Uiso   1.00
C272   C     0.04673   0.85568   0.12056   0.00000  Uiso   1.00
C273   C     0.45352   0.85404   0.11944   0.00000  Uiso   1.00
C274   C     0.04656   0.79550   0.19751   0.00000  Uiso   1.00
C275   C     0.47684   0.82454   0.15830   0.00000  Uiso   1.00
C276   C     0.02340   0.82477   0.15829   0.00000  Uiso   1.00
C277   C     0.47681   0.76142   0.23157   0.00000  Uiso   1.00
C278   C     0.02350   0.88096   0.07837   0.00000  Uiso   1.00
C279   C     0.47675   0.87781   0.07623   0.00000  Uiso   1.00
C280   C     0.02357   0.75943   0.22876   0.00000  Uiso   1.00
C281   C     0.24999   0.68839   0.16662   0.00000  Uiso   1.00
C282   C     0.25000   0.97826   0.16668   0.00000  Uiso   1.00
O283   O     0.45337   0.72930   0.26544   0.00000  Uiso   1.00
H284   H     0.47154   0.72212   0.29854   0.00000  Uiso   1.00
O285   O     0.04677   0.90846   0.03970   0.00000  Uiso   1.00
H286   H     0.02823   0.93717   0.02800   0.00000  Uiso   1.00
O287   O     0.45337   0.89706   0.03207   0.00000  Uiso   1.00
H288   H     0.47204   0.89451   0.33180   0.00000  Uiso   1.00
O289   O     0.04729   0.72201   0.25478   0.00000  Uiso   1.00
H290   H     0.02870   0.69148   0.25655   0.00000  Uiso   1.00
O291   O     0.38351   0.88964   0.08938   0.00000  Uiso   1.00
C292   C     0.37970   0.93719   0.11420   0.00000  Uiso   1.00
H293   H     0.36125   0.96214   0.08580   0.00000  Uiso   1.00
H294   H     0.41298   0.95422   0.12154   0.00000  Uiso   1.00
H295   H     0.36052   0.93541   0.15342   0.00000  Uiso   1.00
O296   O     0.11586   0.77785   0.24491   0.00000  Uiso   1.00
C297   C     0.11118   0.80544   0.29433   0.00000  Uiso   1.00
H298   H     0.13230   0.78794   0.32641   0.00000  Uiso   1.00
H299   H     0.07624   0.80491   0.30958   0.00000  Uiso   1.00
H300   H     0.12252   0.84480   0.28940   0.00000  Uiso   1.00
O301   O     0.38426   0.78097   0.24731   0.00000  Uiso   1.00
C302   C     0.38806   0.81113   0.29496   0.00000  Uiso   1.00
H303   H     0.37664   0.85011   0.28744   0.00000  Uiso   1.00
H304   H     0.42277   0.81160   0.31073   0.00000  Uiso   1.00
H305   H     0.36660   0.79517   0.32777   0.00000  Uiso   1.00
O306   O     0.11688   0.89306   0.09286   0.00000  Uiso   1.00
C307   C     0.12153   0.93921   0.12052   0.00000  Uiso   1.00
H308   H     0.13968   0.96543   0.09315   0.00000  Uiso   1.00
H309   H     0.14138   0.93522   0.15891   0.00000  Uiso   1.00
H310   H     0.08854   0.95617   0.13006   0.00000  Uiso   1.00
O311   O     0.75000   0.76178   0.21228   0.00000  Uiso   1.00
O312   O     0.75000   0.90488   0.12105   0.00000  Uiso   1.00
O313   O     0.75000   0.90488   0.21228   0.00000  Uiso   1.00
O314   O     0.75000   0.76178   0.12105   0.00000  Uiso   1.00
C315   C     0.74999   0.73932   0.16664   0.00000  Uiso   1.00
C316   C     0.75001   0.92735   0.16669   0.00000  Uiso   1.00
O317   O     0.68392   0.83333   0.21230   0.00000  Uiso   1.00
O318   O     0.81607   0.83333   0.12104   0.00000  Uiso   1.00
O319   O     0.81607   0.83333   0.21230   0.00000  Uiso   1.00
O320   O     0.68392   0.83333   0.12104   0.00000  Uiso   1.00
C321   C     0.66314   0.83337   0.16675   0.00000  Uiso   1.00
C322   C     0.83691   0.83335   0.16664   0.00000  Uiso   1.00
Zn323  Zn    0.75000   0.83333   0.22759   0.00000  Uiso   1.00
Zn324  Zn    0.75000   0.83333   0.10574   0.00000  Uiso   1.00
N325   N     0.75000   0.83333   0.02455   0.00000  Uiso   1.00
N326   N     0.75000   0.83333   0.30879   0.00000  Uiso   1.00
C327   C     0.90727   0.85867   0.12442   0.00000  Uiso   1.00
C328   C     0.59251   0.80213   0.20361   0.00000  Uiso   1.00
C329   C     0.90769   0.80351   0.20480   0.00000  Uiso   1.00
C330   C     0.59293   0.86079   0.12633   0.00000  Uiso   1.00
C331   C     0.88487   0.83241   0.16596   0.00000  Uiso   1.00
C332   C     0.61527   0.83270   0.16633   0.00000  Uiso   1.00
C333   C     0.95367   0.79625   0.19859   0.00000  Uiso   1.00
C334   C     0.54673   0.85568   0.12056   0.00000  Uiso   1.00
C335   C     0.95352   0.85404   0.11944   0.00000  Uiso   1.00
C336   C     0.54656   0.79550   0.19751   0.00000  Uiso   1.00
C337   C     0.97684   0.82454   0.15830   0.00000  Uiso   1.00
C338   C     0.52340   0.82477   0.15829   0.00000  Uiso   1.00
C339   C     0.97681   0.76142   0.23157   0.00000  Uiso   1.00
C340   C     0.52350   0.88096   0.07837   0.00000  Uiso   1.00
C341   C     0.97675   0.87781   0.07623   0.00000  Uiso   1.00
C342   C     0.52357   0.75943   0.22876   0.00000  Uiso   1.00
C343   C     0.74999   0.68839   0.16662   0.00000  Uiso   1.00
C344   C     0.75000   0.97826   0.16668   0.00000  Uiso   1.00
O345   O     0.95337   0.72930   0.26544   0.00000  Uiso   1.00
H346   H     0.97154   0.72212   0.29854   0.00000  Uiso   1.00
O347   O     0.54677   0.90846   0.03970   0.00000  Uiso   1.00
H348   H     0.52823   0.93717   0.02800   0.00000  Uiso   1.00
O349   O     0.95337   0.89706   0.03207   0.00000  Uiso   1.00
H350   H     0.97204   0.89451   0.33180   0.00000  Uiso   1.00
O351   O     0.54729   0.72201   0.25478   0.00000  Uiso   1.00
H352   H     0.52870   0.69148   0.25655   0.00000  Uiso   1.00
O353   O     0.88351   0.88964   0.08938   0.00000  Uiso   1.00
C354   C     0.87970   0.93719   0.11420   0.00000  Uiso   1.00
H355   H     0.86125   0.96214   0.08580   0.00000  Uiso   1.00
H356   H     0.91298   0.95422   0.12154   0.00000  Uiso   1.00
H357   H     0.86052   0.93541   0.15342   0.00000  Uiso   1.00
O358   O     0.61586   0.77785   0.24491   0.00000  Uiso   1.00
C359   C     0.61118   0.80544   0.29433   0.00000  Uiso   1.00
H360   H     0.63230   0.78794   0.32641   0.00000  Uiso   1.00
H361   H     0.57624   0.80491   0.30958   0.00000  Uiso   1.00
H362   H     0.62252   0.84480   0.28940   0.00000  Uiso   1.00
O363   O     0.88426   0.78097   0.24731   0.00000  Uiso   1.00
C364   C     0.88806   0.81113   0.29496   0.00000  Uiso   1.00
H365   H     0.87664   0.85011   0.28744   0.00000  Uiso   1.00
H366   H     0.92277   0.81160   0.31073   0.00000  Uiso   1.00
H367   H     0.86660   0.79517   0.32777   0.00000  Uiso   1.00
O368   O     0.61688   0.89306   0.09286   0.00000  Uiso   1.00
C369   C     0.62153   0.93921   0.12052   0.00000  Uiso   1.00
H370   H     0.63968   0.96543   0.09315   0.00000  Uiso   1.00
H371   H     0.64138   0.93522   0.15891   0.00000  Uiso   1.00
H372   H     0.58854   0.95617   0.13006   0.00000  Uiso   1.00
O373   O     0.25000   0.09512   0.54562   0.00000  Uiso   1.00
O374   O     0.25000   0.23822   0.45438   0.00000  Uiso   1.00
O375   O     0.25000   0.23822   0.54562   0.00000  Uiso   1.00
O376   O     0.25000   0.09512   0.45438   0.00000  Uiso   1.00
C377   C     0.24999   0.07265   0.49997   0.00000  Uiso   1.00
C378   C     0.25001   0.26068   0.50002   0.00000  Uiso   1.00
O379   O     0.18392   0.16667   0.54563   0.00000  Uiso   1.00
O380   O     0.31607   0.16667   0.45437   0.00000  Uiso   1.00
O381   O     0.31607   0.16667   0.54563   0.00000  Uiso   1.00
O382   O     0.18392   0.16667   0.45437   0.00000  Uiso   1.00
C383   C     0.16314   0.16670   0.50008   0.00000  Uiso   1.00
C384   C     0.33691   0.16669   0.49997   0.00000  Uiso   1.00
Zn385  Zn    0.25000   0.16667   0.56093   0.00000  Uiso   1.00
Zn386  Zn    0.25000   0.16667   0.43907   0.00000  Uiso   1.00
N387   N     0.25000   0.16667   0.35788   0.00000  Uiso   1.00
N388   N     0.25000   0.16667   0.64212   0.00000  Uiso   1.00
C389   C     0.40727   0.19200   0.45775   0.00000  Uiso   1.00
C390   C     0.09251   0.13546   0.53695   0.00000  Uiso   1.00
C391   C     0.40769   0.13684   0.53814   0.00000  Uiso   1.00
C392   C     0.09293   0.19412   0.45967   0.00000  Uiso   1.00
C393   C     0.38487   0.16574   0.49929   0.00000  Uiso   1.00
C394   C     0.11527   0.16603   0.49966   0.00000  Uiso   1.00
C395   C     0.45367   0.12958   0.53193   0.00000  Uiso   1.00
C396   C     0.04673   0.18901   0.45389   0.00000  Uiso   1.00
C397   C     0.45352   0.18737   0.45277   0.00000  Uiso   1.00
C398   C     0.04656   0.12884   0.53084   0.00000  Uiso   1.00
C399   C     0.47684   0.15788   0.49163   0.00000  Uiso   1.00
C400   C     0.02340   0.15810   0.49162   0.00000  Uiso   1.00
C401   C     0.47681   0.09475   0.56490   0.00000  Uiso   1.00
C402   C     0.02350   0.21429   0.41171   0.00000  Uiso   1.00
C403   C     0.47675   0.21114   0.40956   0.00000  Uiso   1.00
C404   C     0.02357   0.09277   0.56210   0.00000  Uiso   1.00
C405   C     0.24999   0.02173   0.49995   0.00000  Uiso   1.00
C406   C     0.25000   0.31159   0.50002   0.00000  Uiso   1.00
O407   O     0.45337   0.06263   0.59877   0.00000  Uiso   1.00
H408   H     0.47154   0.05546   0.63188   0.00000  Uiso   1.00
O409   O     0.04677   0.24179   0.37303   0.00000  Uiso   1.00
H410   H     0.02823   0.27050   0.36134   0.00000  Uiso   1.00
O411   O     0.45337   0.23039   0.36540   0.00000  Uiso   1.00
H412   H     0.47204   0.22784   0.66513   0.00000  Uiso   1.00
O413   O     0.04729   0.05534   0.58812   0.00000  Uiso   1.00
H414   H     0.02870   0.02481   0.58988   0.00000  Uiso   1.00
O415   O     0.38351   0.22298   0.42272   0.00000  Uiso   1.00
C416   C     0.37970   0.27053   0.44753   0.00000  Uiso   1.00
H417   H     0.36125   0.29547   0.41913   0.00000  Uiso   1.00
H418   H     0.41298   0.28756   0.45487   0.00000  Uiso   1.00
H419   H     0.36052   0.26875   0.48675   0.00000  Uiso   1.00
O420   O     0.11586   0.11118   0.57825   0.00000  Uiso   1.00
C421   C     0.11118   0.13877   0.62766   0.00000  Uiso   1.00
H422   H     0.13230   0.12127   0.65974   0.00000  Uiso   1.00
H423   H     0.07624   0.13824   0.64292   0.00000  Uiso   1.00
H424   H     0.12252   0.17813   0.62273   0.00000  Uiso   1.00
O425   O     0.38426   0.11430   0.58064   0.00000  Uiso   1.00
C426   C     0.38806   0.14446   0.62830   0.00000  Uiso   1.00
H427   H     0.37664   0.18344   0.62077   0.00000  Uiso   1.00
H428   H     0.42277   0.14494   0.64406   0.00000  Uiso   1.00
H429   H     0.36660   0.12851   0.66110   0.00000  Uiso   1.00
O430   O     0.11688   0.22639   0.42619   0.00000  Uiso   1.00
C431   C     0.12153   0.27255   0.45385   0.00000  Uiso   1.00
H432   H     0.13968   0.29877   0.42648   0.00000  Uiso   1.00
H433   H     0.14138   0.26855   0.49225   0.00000  Uiso   1.00
H434   H     0.08854   0.28950   0.46339   0.00000  Uiso   1.00
O435   O     0.75000   0.09512   0.54562   0.00000  Uiso   1.00
O436   O     0.75000   0.23822   0.45438   0.00000  Uiso   1.00
O437   O     0.75000   0.23822   0.54562   0.00000  Uiso   1.00
O438   O     0.75000   0.09512   0.45438   0.00000  Uiso   1.00
C439   C     0.74999   0.07265   0.49997   0.00000  Uiso   1.00
C440   C     0.75001   0.26068   0.50002   0.00000  Uiso   1.00
O441   O     0.68392   0.16667   0.54563   0.00000  Uiso   1.00
O442   O     0.81607   0.16667   0.45437   0.00000  Uiso   1.00
O443   O     0.81607   0.16667   0.54563   0.00000  Uiso   1.00
O444   O     0.68392   0.16667   0.45437   0.00000  Uiso   1.00
C445   C     0.66314   0.16670   0.50008   0.00000  Uiso   1.00
C446   C     0.83691   0.16669   0.49997   0.00000  Uiso   1.00
Zn447  Zn    0.75000   0.16667   0.56093   0.00000  Uiso   1.00
Zn448  Zn    0.75000   0.16667   0.43907   0.00000  Uiso   1.00
N449   N     0.75000   0.16667   0.35788   0.00000  Uiso   1.00
N450   N     0.75000   0.16667   0.64212   0.00000  Uiso   1.00
C451   C     0.90727   0.19200   0.45775   0.00000  Uiso   1.00
C452   C     0.59251   0.13546   0.53695   0.00000  Uiso   1.00
C453   C     0.90769   0.13684   0.53814   0.00000  Uiso   1.00
C454   C     0.59293   0.19412   0.45967   0.00000  Uiso   1.00
C455   C     0.88487   0.16574   0.49929   0.00000  Uiso   1.00
C456   C     0.61527   0.16603   0.49966   0.00000  Uiso   1.00
C457   C     0.95367   0.12958   0.53193   0.00000  Uiso   1.00
C458   C     0.54673   0.18901   0.45389   0.00000  Uiso   1.00
C459   C     0.95352   0.18737   0.45277   0.00000  Uiso   1.00
C460   C     0.54656   0.12884   0.53084   0.00000  Uiso   1.00
C461   C     0.97684   0.15788   0.49163   0.00000  Uiso   1.00
C462   C     0.52340   0.15810   0.49162   0.00000  Uiso   1.00
C463   C     0.97681   0.09475   0.56490   0.00000  Uiso   1.00
C464   C     0.52350   0.21429   0.41171   0.00000  Uiso   1.00
C465   C     0.97675   0.21114   0.40956   0.00000  Uiso   1.00
C466   C     0.52357   0.09277   0.56210   0.00000  Uiso   1.00
C467   C     0.74999   0.02173   0.49995   0.00000  Uiso   1.00
C468   C     0.75000   0.31159   0.50002   0.00000  Uiso   1.00
O469   O     0.95337   0.06263   0.59877   0.00000  Uiso   1.00
H470   H     0.97154   0.05546   0.63188   0.00000  Uiso   1.00
O471   O     0.54677   0.24179   0.37303   0.00000  Uiso   1.00
H472   H     0.52823   0.27050   0.36134   0.00000  Uiso   1.00
O473   O     0.95337   0.23039   0.36540   0.00000  Uiso   1.00
H474   H     0.97204   0.22784   0.66513   0.00000  Uiso   1.00
O475   O     0.54729   0.05534   0.58812   0.00000  Uiso   1.00
H476   H     0.52870   0.02481   0.58988   0.00000  Uiso   1.00
O477   O     0.88351   0.22298   0.42272   0.00000  Uiso   1.00
C478   C     0.87970   0.27053   0.44753   0.00000  Uiso   1.00
H479   H     0.86125   0.29547   0.41913   0.00000  Uiso   1.00
H480   H     0.91298   0.28756   0.45487   0.00000  Uiso   1.00
H481   H     0.86052   0.26875   0.48675   0.00000  Uiso   1.00
O482   O     0.61586   0.11118   0.57825   0.00000  Uiso   1.00
C483   C     0.61118   0.13877   0.62766   0.00000  Uiso   1.00
H484   H     0.63230   0.12127   0.65974   0.00000  Uiso   1.00
H485   H     0.57624   0.13824   0.64292   0.00000  Uiso   1.00
H486   H     0.62252   0.17813   0.62273   0.00000  Uiso   1.00
O487   O     0.88426   0.11430   0.58064   0.00000  Uiso   1.00
C488   C     0.88806   0.14446   0.62830   0.00000  Uiso   1.00
H489   H     0.87664   0.18344   0.62077   0.00000  Uiso   1.00
H490   H     0.92277   0.14494   0.64406   0.00000  Uiso   1.00
H491   H     0.86660   0.12851   0.66110   0.00000  Uiso   1.00
O492   O     0.61688   0.22639   0.42619   0.00000  Uiso   1.00
C493   C     0.62153   0.27255   0.45385   0.00000  Uiso   1.00
H494   H     0.63968   0.29877   0.42648   0.00000  Uiso   1.00
H495   H     0.64138   0.26855   0.49225   0.00000  Uiso   1.00
H496   H     0.58854   0.28950   0.46339   0.00000  Uiso   1.00
O497   O     0.25000   0.42845   0.54562   0.00000  Uiso   1.00
O498   O     0.25000   0.57155   0.45438   0.00000  Uiso   1.00
O499   O     0.25000   0.57155   0.54562   0.00000  Uiso   1.00
O500   O     0.25000   0.42845   0.45438   0.00000  Uiso   1.00
C501   C     0.24999   0.40598   0.49997   0.00000  Uiso   1.00
C502   C     0.25001   0.59401   0.50002   0.00000  Uiso   1.00
O503   O     0.18392   0.50000   0.54563   0.00000  Uiso   1.00
O504   O     0.31607   0.50000   0.45437   0.00000  Uiso   1.00
O505   O     0.31607   0.50000   0.54563   0.00000  Uiso   1.00
O506   O     0.18392   0.50000   0.45437   0.00000  Uiso   1.00
C507   C     0.16314   0.50003   0.50008   0.00000  Uiso   1.00
C508   C     0.33691   0.50002   0.49997   0.00000  Uiso   1.00
Zn509  Zn    0.25000   0.50000   0.56093   0.00000  Uiso   1.00
Zn510  Zn    0.25000   0.50000   0.43907   0.00000  Uiso   1.00
N511   N     0.25000   0.50000   0.35788   0.00000  Uiso   1.00
N512   N     0.25000   0.50000   0.64212   0.00000  Uiso   1.00
C513   C     0.40727   0.52533   0.45775   0.00000  Uiso   1.00
C514   C     0.09251   0.46880   0.53695   0.00000  Uiso   1.00
C515   C     0.40769   0.47017   0.53814   0.00000  Uiso   1.00
C516   C     0.09293   0.52745   0.45967   0.00000  Uiso   1.00
C517   C     0.38487   0.49907   0.49929   0.00000  Uiso   1.00
C518   C     0.11527   0.49936   0.49966   0.00000  Uiso   1.00
C519   C     0.45367   0.46291   0.53193   0.00000  Uiso   1.00
C520   C     0.04673   0.52234   0.45389   0.00000  Uiso   1.00
C521   C     0.45352   0.52070   0.45277   0.00000  Uiso   1.00
C522   C     0.04656   0.46217   0.53084   0.00000  Uiso   1.00
C523   C     0.47684   0.49121   0.49163   0.00000  Uiso   1.00
C524   C     0.02340   0.49144   0.49162   0.00000  Uiso   1.00
C525   C     0.47681   0.42809   0.56490   0.00000  Uiso   1.00
C526   C     0.02350   0.54762   0.41171   0.00000  Uiso   1.00
C527   C     0.47675   0.54447   0.40956   0.00000  Uiso   1.00
C528   C     0.02357   0.42610   0.56210   0.00000  Uiso   1.00
C529   C     0.24999   0.35506   0.49995   0.00000  Uiso   1.00
C530   C     0.25000   0.64493   0.50002   0.00000  Uiso   1.00
O531   O     0.45337   0.39596   0.59877   0.00000  Uiso   1.00
H532   H     0.47154   0.38879   0.63188   0.00000  Uiso   1.00
O533   O     0.04677   0.57512   0.37303   0.00000  Uiso   1.00
H534   H     0.02823   0.60384   0.36134   0.00000  Uiso   1.00
O535   O     0.45337   0.56372   0.36540   0.00000  Uiso   1.00
H536   H     0.47204   0.56118   0.66513   0.00000  Uiso   1.00
O537   O     0.04729   0.38867   0.58812   0.00000  Uiso   1.00
H538   H     0.02870   0.35815   0.58988   0.00000  Uiso   1.00
O539   O     0.38351   0.55631   0.42272   0.00000  Uiso   1.00
C540   C     0.37970   0.60386   0.44753   0.00000  Uiso   1.00
H541   H     0.36125   0.62880   0.41913   0.00000  Uiso   1.00
H542   H     0.41298   0.62089   0.45487   0.00000  Uiso   1.00
H543   H     0.36052   0.60208   0.48675   0.00000  Uiso   1.00
O544   O     0.11586   0.44452   0.57825   0.00000  Uiso   1.00
C545   C     0.11118   0.47211   0.62766   0.00000  Uiso   1.00
H546   H     0.13230   0.45460   0.65974   0.00000  Uiso   1.00
H547   H     0.07624   0.47158   0.64292   0.00000  Uiso   1.00
H548   H     0.12252   0.51146   0.62273   0.00000  Uiso   1.00
O549   O     0.38426   0.44763   0.58064   0.00000  Uiso   1.00
C550   C     0.38806   0.47779   0.62830   0.00000  Uiso   1.00
H551   H     0.37664   0.51677   0.62077   0.00000  Uiso   1.00
H552   H     0.42277   0.47827   0.64406   0.00000  Uiso   1.00
H553   H     0.36660   0.46184   0.66110   0.00000  Uiso   1.00
O554   O     0.11688   0.55973   0.42619   0.00000  Uiso   1.00
C555   C     0.12153   0.60588   0.45385   0.00000  Uiso   1.00
H556   H     0.13968   0.63210   0.42648   0.00000  Uiso   1.00
H557   H     0.14138   0.60189   0.49225   0.00000  Uiso   1.00
H558   H     0.08854   0.62284   0.46339   0.00000  Uiso   1.00
O559   O     0.75000   0.42845   0.54562   0.00000  Uiso   1.00
O560   O     0.75000   0.57155   0.45438   0.00000  Uiso   1.00
O561   O     0.75000   0.57155   0.54562   0.00000  Uiso   1.00
O562   O     0.75000   0.42845   0.45438   0.00000  Uiso   1.00
C563   C     0.74999   0.40598   0.49997   0.00000  Uiso   1.00
C564   C     0.75001   0.59401   0.50002   0.00000  Uiso   1.00
O565   O     0.68392   0.50000   0.54563   0.00000  Uiso   1.00
O566   O     0.81607   0.50000   0.45437   0.00000  Uiso   1.00
O567   O     0.81607   0.50000   0.54563   0.00000  Uiso   1.00
O568   O     0.68392   0.50000   0.45437   0.00000  Uiso   1.00
C569   C     0.66314   0.50003   0.50008   0.00000  Uiso   1.00
C570   C     0.83691   0.50002   0.49997   0.00000  Uiso   1.00
Zn571  Zn    0.75000   0.50000   0.56093   0.00000  Uiso   1.00
Zn572  Zn    0.75000   0.50000   0.43907   0.00000  Uiso   1.00
N573   N     0.75000   0.50000   0.35788   0.00000  Uiso   1.00
N574   N     0.75000   0.50000   0.64212   0.00000  Uiso   1.00
C575   C     0.90727   0.52533   0.45775   0.00000  Uiso   1.00
C576   C     0.59251   0.46880   0.53695   0.00000  Uiso   1.00
C577   C     0.90769   0.47017   0.53814   0.00000  Uiso   1.00
C578   C     0.59293   0.52745   0.45967   0.00000  Uiso   1.00
C579   C     0.88487   0.49907   0.49929   0.00000  Uiso   1.00
C580   C     0.61527   0.49936   0.49966   0.00000  Uiso   1.00
C581   C     0.95367   0.46291   0.53193   0.00000  Uiso   1.00
C582   C     0.54673   0.52234   0.45389   0.00000  Uiso   1.00
C583   C     0.95352   0.52070   0.45277   0.00000  Uiso   1.00
C584   C     0.54656   0.46217   0.53084   0.00000  Uiso   1.00
C585   C     0.97684   0.49121   0.49163   0.00000  Uiso   1.00
C586   C     0.52340   0.49144   0.49162   0.00000  Uiso   1.00
C587   C     0.97681   0.42809   0.56490   0.00000  Uiso   1.00
C588   C     0.52350   0.54762   0.41171   0.00000  Uiso   1.00
C589   C     0.97675   0.54447   0.40956   0.00000  Uiso   1.00
C590   C     0.52357   0.42610   0.56210   0.00000  Uiso   1.00
C591   C     0.74999   0.35506   0.49995   0.00000  Uiso   1.00
C592   C     0.75000   0.64493   0.50002   0.00000  Uiso   1.00
O593   O     0.95337   0.39596   0.59877   0.00000  Uiso   1.00
H594   H     0.97154   0.38879   0.63188   0.00000  Uiso   1.00
O595   O     0.54677   0.57512   0.37303   0.00000  Uiso   1.00
H596   H     0.52823   0.60384   0.36134   0.00000  Uiso   1.00
O597   O     0.95337   0.56372   0.36540   0.00000  Uiso   1.00
H598   H     0.97204   0.56118   0.66513   0.00000  Uiso   1.00
O599   O     0.54729   0.38867   0.58812   0.00000  Uiso   1.00
H600   H     0.52870   0.35815   0.58988   0.00000  Uiso   1.00
O601   O     0.88351   0.55631   0.42272   0.00000  Uiso   1.00
C602   C     0.87970   0.60386   0.44753   0.00000  Uiso   1.00
H603   H     0.86125   0.62880   0.41913   0.00000  Uiso   1.00
H604   H     0.91298   0.62089   0.45487   0.00000  Uiso   1.00
H605   H     0.86052   0.60208   0.48675   0.00000  Uiso   1.00
O606   O     0.61586   0.44452   0.57825   0.00000  Uiso   1.00
C607   C     0.61118   0.47211   0.62766   0.00000  Uiso   1.00
H608   H     0.63230   0.45460   0.65974   0.00000  Uiso   1.00
H609   H     0.57624   0.47158   0.64292   0.00000  Uiso   1.00
H610   H     0.62252   0.51146   0.62273   0.00000  Uiso   1.00
O611   O     0.88426   0.44763   0.58064   0.00000  Uiso   1.00
C612   C     0.88806   0.47779   0.62830   0.00000  Uiso   1.00
H613   H     0.87664   0.51677   0.62077   0.00000  Uiso   1.00
H614   H     0.92277   0.47827   0.64406   0.00000  Uiso   1.00
H615   H     0.86660   0.46184   0.66110   0.00000  Uiso   1.00
O616   O     0.61688   0.55973   0.42619   0.00000  Uiso   1.00
C617   C     0.62153   0.60588   0.45385   0.00000  Uiso   1.00
H618   H     0.63968   0.63210   0.42648   0.00000  Uiso   1.00
H619   H     0.64138   0.60189   0.49225   0.00000  Uiso   1.00
H620   H     0.58854   0.62284   0.46339   0.00000  Uiso   1.00
O621   O     0.25000   0.76178   0.54562   0.00000  Uiso   1.00
O622   O     0.25000   0.90488   0.45438   0.00000  Uiso   1.00
O623   O     0.25000   0.90488   0.54562   0.00000  Uiso   1.00
O624   O     0.25000   0.76178   0.45438   0.00000  Uiso   1.00
C625   C     0.24999   0.73932   0.49997   0.00000  Uiso   1.00
C626   C     0.25001   0.92735   0.50002   0.00000  Uiso   1.00
O627   O     0.18392   0.83333   0.54563   0.00000  Uiso   1.00
O628   O     0.31607   0.83333   0.45437   0.00000  Uiso   1.00
O629   O     0.31607   0.83333   0.54563   0.00000  Uiso   1.00
O630   O     0.18392   0.83333   0.45437   0.00000  Uiso   1.00
C631   C     0.16314   0.83337   0.50008   0.00000  Uiso   1.00
C632   C     0.33691   0.83335   0.49997   0.00000  Uiso   1.00
Zn633  Zn    0.25000   0.83333   0.56093   0.00000  Uiso   1.00
Zn634  Zn    0.25000   0.83333   0.43907   0.00000  Uiso   1.00
N635   N     0.25000   0.83333   0.35788   0.00000  Uiso   1.00
N636   N     0.25000   0.83333   0.64212   0.00000  Uiso   1.00
C637   C     0.40727   0.85867   0.45775   0.00000  Uiso   1.00
C638   C     0.09251   0.80213   0.53695   0.00000  Uiso   1.00
C639   C     0.40769   0.80351   0.53814   0.00000  Uiso   1.00
C640   C     0.09293   0.86079   0.45967   0.00000  Uiso   1.00
C641   C     0.38487   0.83241   0.49929   0.00000  Uiso   1.00
C642   C     0.11527   0.83270   0.49966   0.00000  Uiso   1.00
C643   C     0.45367   0.79625   0.53193   0.00000  Uiso   1.00
C644   C     0.04673   0.85568   0.45389   0.00000  Uiso   1.00
C645   C     0.45352   0.85404   0.45277   0.00000  Uiso   1.00
C646   C     0.04656   0.79550   0.53084   0.00000  Uiso   1.00
C647   C     0.47684   0.82454   0.49163   0.00000  Uiso   1.00
C648   C     0.02340   0.82477   0.49162   0.00000  Uiso   1.00
C649   C     0.47681   0.76142   0.56490   0.00000  Uiso   1.00
C650   C     0.02350   0.88096   0.41171   0.00000  Uiso   1.00
C651   C     0.47675   0.87781   0.40956   0.00000  Uiso   1.00
C652   C     0.02357   0.75943   0.56210   0.00000  Uiso   1.00
C653   C     0.24999   0.68839   0.49995   0.00000  Uiso   1.00
C654   C     0.25000   0.97826   0.50002   0.00000  Uiso   1.00
O655   O     0.45337   0.72930   0.59877   0.00000  Uiso   1.00
H656   H     0.47154   0.72212   0.63188   0.00000  Uiso   1.00
O657   O     0.04677   0.90846   0.37303   0.00000  Uiso   1.00
H658   H     0.02823   0.93717   0.36134   0.00000  Uiso   1.00
O659   O     0.45337   0.89706   0.36540   0.00000  Uiso   1.00
H660   H     0.47204   0.89451   0.66513   0.00000  Uiso   1.00
O661   O     0.04729   0.72201   0.58812   0.00000  Uiso   1.00
H662   H     0.02870   0.69148   0.58988   0.00000  Uiso   1.00
O663   O     0.38351   0.88964   0.42272   0.00000  Uiso   1.00
C664   C     0.37970   0.93719   0.44753   0.00000  Uiso   1.00
H665   H     0.36125   0.96214   0.41913   0.00000  Uiso   1.00
H666   H     0.41298   0.95422   0.45487   0.00000  Uiso   1.00
H667   H     0.36052   0.93541   0.48675   0.00000  Uiso   1.00
O668   O     0.11586   0.77785   0.57825   0.00000  Uiso   1.00
C669   C     0.11118   0.80544   0.62766   0.00000  Uiso   1.00
H670   H     0.13230   0.78794   0.65974   0.00000  Uiso   1.00
H671   H     0.07624   0.80491   0.64292   0.00000  Uiso   1.00
H672   H     0.12252   0.84480   0.62273   0.00000  Uiso   1.00
O673   O     0.38426   0.78097   0.58064   0.00000  Uiso   1.00
C674   C     0.38806   0.81113   0.62830   0.00000  Uiso   1.00
H675   H     0.37664   0.85011   0.62077   0.00000  Uiso   1.00
H676   H     0.42277   0.81160   0.64406   0.00000  Uiso   1.00
H677   H     0.36660   0.79517   0.66110   0.00000  Uiso   1.00
O678   O     0.11688   0.89306   0.42619   0.00000  Uiso   1.00
C679   C     0.12153   0.93921   0.45385   0.00000  Uiso   1.00
H680   H     0.13968   0.96543   0.42648   0.00000  Uiso   1.00
H681   H     0.14138   0.93522   0.49225   0.00000  Uiso   1.00
H682   H     0.08854   0.95617   0.46339   0.00000  Uiso   1.00
O683   O     0.75000   0.76178   0.54562   0.00000  Uiso   1.00
O684   O     0.75000   0.90488   0.45438   0.00000  Uiso   1.00
O685   O     0.75000   0.90488   0.54562   0.00000  Uiso   1.00
O686   O     0.75000   0.76178   0.45438   0.00000  Uiso   1.00
C687   C     0.74999   0.73932   0.49997   0.00000  Uiso   1.00
C688   C     0.75001   0.92735   0.50002   0.00000  Uiso   1.00
O689   O     0.68392   0.83333   0.54563   0.00000  Uiso   1.00
O690   O     0.81607   0.83333   0.45437   0.00000  Uiso   1.00
O691   O     0.81607   0.83333   0.54563   0.00000  Uiso   1.00
O692   O     0.68392   0.83333   0.45437   0.00000  Uiso   1.00
C693   C     0.66314   0.83337   0.50008   0.00000  Uiso   1.00
C694   C     0.83691   0.83335   0.49997   0.00000  Uiso   1.00
Zn695  Zn    0.75000   0.83333   0.56093   0.00000  Uiso   1.00
Zn696  Zn    0.75000   0.83333   0.43907   0.00000  Uiso   1.00
N697   N     0.75000   0.83333   0.35788   0.00000  Uiso   1.00
N698   N     0.75000   0.83333   0.64212   0.00000  Uiso   1.00
C699   C     0.90727   0.85867   0.45775   0.00000  Uiso   1.00
C700   C     0.59251   0.80213   0.53695   0.00000  Uiso   1.00
C701   C     0.90769   0.80351   0.53814   0.00000  Uiso   1.00
C702   C     0.59293   0.86079   0.45967   0.00000  Uiso   1.00
C703   C     0.88487   0.83241   0.49929   0.00000  Uiso   1.00
C704   C     0.61527   0.83270   0.49966   0.00000  Uiso   1.00
C705   C     0.95367   0.79625   0.53193   0.00000  Uiso   1.00
C706   C     0.54673   0.85568   0.45389   0.00000  Uiso   1.00
C707   C     0.95352   0.85404   0.45277   0.00000  Uiso   1.00
C708   C     0.54656   0.79550   0.53084   0.00000  Uiso   1.00
C709   C     0.97684   0.82454   0.49163   0.00000  Uiso   1.00
C710   C     0.52340   0.82477   0.49162   0.00000  Uiso   1.00
C711   C     0.97681   0.76142   0.56490   0.00000  Uiso   1.00
C712   C     0.52350   0.88096   0.41171   0.00000  Uiso   1.00
C713   C     0.97675   0.87781   0.40956   0.00000  Uiso   1.00
C714   C     0.52357   0.75943   0.56210   0.00000  Uiso   1.00
C715   C     0.74999   0.68839   0.49995   0.00000  Uiso   1.00
C716   C     0.75000   0.97826   0.50002   0.00000  Uiso   1.00
O717   O     0.95337   0.72930   0.59877   0.00000  Uiso   1.00
H718   H     0.97154   0.72212   0.63188   0.00000  Uiso   1.00
O719   O     0.54677   0.90846   0.37303   0.00000  Uiso   1.00
H720   H     0.52823   0.93717   0.36134   0.00000  Uiso   1.00
O721   O     0.95337   0.89706   0.36540   0.00000  Uiso   1.00
H722   H     0.97204   0.89451   0.66513   0.00000  Uiso   1.00
O723   O     0.54729   0.72201   0.58812   0.00000  Uiso   1.00
H724   H     0.52870   0.69148   0.58988   0.00000  Uiso   1.00
O725   O     0.88351   0.88964   0.42272   0.00000  Uiso   1.00
C726   C     0.87970   0.93719   0.44753   0.00000  Uiso   1.00
H727   H     0.86125   0.96214   0.41913   0.00000  Uiso   1.00
H728   H     0.91298   0.95422   0.45487   0.00000  Uiso   1.00
H729   H     0.86052   0.93541   0.48675   0.00000  Uiso   1.00
O730   O     0.61586   0.77785   0.57825   0.00000  Uiso   1.00
C731   C     0.61118   0.80544   0.62766   0.00000  Uiso   1.00
H732   H     0.63230   0.78794   0.65974   0.00000  Uiso   1.00
H733   H     0.57624   0.80491   0.64292   0.00000  Uiso   1.00
H734   H     0.62252   0.84480   0.62273   0.00000  Uiso   1.00
O735   O     0.88426   0.78097   0.58064   0.00000  Uiso   1.00
C736   C     0.88806   0.81113   0.62830   0.00000  Uiso   1.00
H737   H     0.87664   0.85011   0.62077   0.00000  Uiso   1.00
H738   H     0.92277   0.81160   0.64406   0.00000  Uiso   1.00
H739   H     0.86660   0.79517   0.66110   0.00000  Uiso   1.00
O740   O     0.61688   0.89306   0.42619   0.00000  Uiso   1.00
C741   C     0.62153   0.93921   0.45385   0.00000  Uiso   1.00
H742   H     0.63968   0.96543   0.42648   0.00000  Uiso   1.00
H743   H     0.64138   0.93522   0.49225   0.00000  Uiso   1.00
H744   H     0.58854   0.95617   0.46339   0.00000  Uiso   1.00
O745   O     0.25000   0.09512   0.87895   0.00000  Uiso   1.00
O746   O     0.25000   0.23822   0.78772   0.00000  Uiso   1.00
O747   O     0.25000   0.23822   0.87895   0.00000  Uiso   1.00
O748   O     0.25000   0.09512   0.78772   0.00000  Uiso   1.00
C749   C     0.24999   0.07265   0.83331   0.00000  Uiso   1.00
C750   C     0.25001   0.26068   0.83335   0.00000  Uiso   1.00
O751   O     0.18392   0.16667   0.87896   0.00000  Uiso   1.00
O752   O     0.31607   0.16667   0.78770   0.00000  Uiso   1.00
O753   O     0.31607   0.16667   0.87896   0.00000  Uiso   1.00
O754   O     0.18392   0.16667   0.78770   0.00000  Uiso   1.00
C755   C     0.16314   0.16670   0.83341   0.00000  Uiso   1.00
C756   C     0.33691   0.16669   0.83330   0.00000  Uiso   1.00
Zn757  Zn    0.25000   0.16667   0.89426   0.00000  Uiso   1.00
Zn758  Zn    0.25000   0.16667   0.77241   0.00000  Uiso   1.00
N759   N     0.25000   0.16667   0.69121   0.00000  Uiso   1.00
N760   N     0.25000   0.16667   0.97545   0.00000  Uiso   1.00
C761   C     0.40727   0.19200   0.79108   0.00000  Uiso   1.00
C762   C     0.09251   0.13546   0.87028   0.00000  Uiso   1.00
C763   C     0.40769   0.13684   0.87147   0.00000  Uiso   1.00
C764   C     0.09293   0.19412   0.79300   0.00000  Uiso   1.00
C765   C     0.38487   0.16574   0.83263   0.00000  Uiso   1.00
C766   C     0.11527   0.16603   0.83300   0.00000  Uiso   1.00
C767   C     0.45367   0.12958   0.86526   0.00000  Uiso   1.00
C768   C     0.04673   0.18901   0.78722   0.00000  Uiso   1.00
C769   C     0.45352   0.18737   0.78611   0.00000  Uiso   1.00
C770   C     0.04656   0.12884   0.86417   0.00000  Uiso   1.00
C771   C     0.47684   0.15788   0.82497   0.00000  Uiso   1.00
C772   C     0.02340   0.15810   0.82495   0.00000  Uiso   1.00
C773   C     0.47681   0.09475   0.89823   0.00000  Uiso   1.00
C774   C     0.02350   0.21429   0.74504   0.00000  Uiso   1.00
C775   C     0.47675   0.21114   0.74289   0.00000  Uiso   1.00
C776   C     0.02357   0.09277   0.89543   0.00000  Uiso   1.00
C777   C     0.24999   0.02173   0.83329   0.00000  Uiso   1.00
C778   C     0.25000   0.31159   0.83335   0.00000  Uiso   1.00
O779   O     0.45337   0.06263   0.93210   0.00000  Uiso   1.00
H780   H     0.47154   0.05546   0.96521   0.00000  Uiso   1.00
O781   O     0.04677   0.24179   0.70636   0.00000  Uiso   1.00
H782   H     0.02823   0.27050   0.69467   0.00000  Uiso   1.00
O783   O     0.45337   0.23039   0.69873   0.00000  Uiso   1.00
H784   H     0.47204   0.22784   0.99846   0.00000  Uiso   1.00
O785   O     0.04729   0.05534   0.92145   0.00000  Uiso   1.00
H786   H     0.02870   0.02481   0.92322   0.00000  Uiso   1.00
O787   O     0.38351   0.22298   0.75605   0.00000  Uiso   1.00
C788   C     0.37970   0.27053   0.78086   0.00000  Uiso   1.00
H789   H     0.36125   0.29547   0.75247   0.00000  Uiso   1.00
H790   H     0.41298   0.28756   0.78820   0.00000  Uiso   1.00
H791   H     0.36052   0.26875   0.82009   0.00000  Uiso   1.00
O792   O     0.11586   0.11118   0.91158   0.00000  Uiso   1.00
C793   C     0.11118   0.13877   0.96100   0.00000  Uiso   1.00
H794   H     0.13230   0.12127   0.99307   0.00000  Uiso   1.00
H795   H     0.07624   0.13824   0.97625   0.00000  Uiso   1.00
H796   H     0.12252   0.17813   0.95607   0.00000  Uiso   1.00
O797   O     0.38426   0.11430   0.91397   0.00000  Uiso   1.00
C798   C     0.38806   0.14446   0.96163   0.00000  Uiso   1.00
H799   H     0.37664   0.18344   0.95410   0.00000  Uiso   1.00
H800   H     0.42277   0.14494   0.97739   0.00000  Uiso   1.00
H801   H     0.36660   0.12851   0.99444   0.00000  Uiso   1.00
O802   O     0.11688   0.22639   0.75953   0.00000  Uiso   1.00
C803   C     0.12153   0.27255   0.78718   0.00000  Uiso   1.00
H804   H     0.13968   0.29877   0.75981   0.00000  Uiso   1.00
H805   H     0.14138   0.26855   0.82558   0.00000  Uiso   1.00
H806   H     0.08854   0.28950   0.79673   0.00000  Uiso   1.00
O807   O     0.75000   0.09512   0.87895   0.00000  Uiso   1.00
O808   O     0.75000   0.23822   0.78772   0.00000  Uiso   1.00
O809   O     0.75000   0.23822   0.87895   0.00000  Uiso   1.00
O810   O     0.75000   0.09512   0.78772   0.00000  Uiso   1.00
C811   C     0.74999   0.07265   0.83331   0.00000  Uiso   1.00
C812   C     0.75001   0.26068   0.83335   0.00000  Uiso   1.00
O813   O     0.68392   0.16667   0.87896   0.00000  Uiso   1.00
O814   O     0.81607   0.16667   0.78770   0.00000  Uiso   1.00
O815   O     0.81607   0.16667   0.87896   0.00000  Uiso   1.00
O816   O     0.68392   0.16667   0.78770   0.00000  Uiso   1.00
C817   C     0.66314   0.16670   0.83341   0.00000  Uiso   1.00
C818   C     0.83691   0.16669   0.83330   0.00000  Uiso   1.00
Zn819  Zn    0.75000   0.16667   0.89426   0.00000  Uiso   1.00
Zn820  Zn    0.75000   0.16667   0.77241   0.00000  Uiso   1.00
N821   N     0.75000   0.16667   0.69121   0.00000  Uiso   1.00
N822   N     0.75000   0.16667   0.97545   0.00000  Uiso   1.00
C823   C     0.90727   0.19200   0.79108   0.00000  Uiso   1.00
C824   C     0.59251   0.13546   0.87028   0.00000  Uiso   1.00
C825   C     0.90769   0.13684   0.87147   0.00000  Uiso   1.00
C826   C     0.59293   0.19412   0.79300   0.00000  Uiso   1.00
C827   C     0.88487   0.16574   0.83263   0.00000  Uiso   1.00
C828   C     0.61527   0.16603   0.83300   0.00000  Uiso   1.00
C829   C     0.95367   0.12958   0.86526   0.00000  Uiso   1.00
C830   C     0.54673   0.18901   0.78722   0.00000  Uiso   1.00
C831   C     0.95352   0.18737   0.78611   0.00000  Uiso   1.00
C832   C     0.54656   0.12884   0.86417   0.00000  Uiso   1.00
C833   C     0.97684   0.15788   0.82497   0.00000  Uiso   1.00
C834   C     0.52340   0.15810   0.82495   0.00000  Uiso   1.00
C835   C     0.97681   0.09475   0.89823   0.00000  Uiso   1.00
C836   C     0.52350   0.21429   0.74504   0.00000  Uiso   1.00
C837   C     0.97675   0.21114   0.74289   0.00000  Uiso   1.00
C838   C     0.52357   0.09277   0.89543   0.00000  Uiso   1.00
C839   C     0.74999   0.02173   0.83329   0.00000  Uiso   1.00
C840   C     0.75000   0.31159   0.83335   0.00000  Uiso   1.00
O841   O     0.95337   0.06263   0.93210   0.00000  Uiso   1.00
H842   H     0.97154   0.05546   0.96521   0.00000  Uiso   1.00
O843   O     0.54677   0.24179   0.70636   0.00000  Uiso   1.00
H844   H     0.52823   0.27050   0.69467   0.00000  Uiso   1.00
O845   O     0.95337   0.23039   0.69873   0.00000  Uiso   1.00
H846   H     0.97204   0.22784   0.99846   0.00000  Uiso   1.00
O847   O     0.54729   0.05534   0.92145   0.00000  Uiso   1.00
H848   H     0.52870   0.02481   0.92322   0.00000  Uiso   1.00
O849   O     0.88351   0.22298   0.75605   0.00000  Uiso   1.00
C850   C     0.87970   0.27053   0.78086   0.00000  Uiso   1.00
H851   H     0.86125   0.29547   0.75247   0.00000  Uiso   1.00
H852   H     0.91298   0.28756   0.78820   0.00000  Uiso   1.00
H853   H     0.86052   0.26875   0.82009   0.00000  Uiso   1.00
O854   O     0.61586   0.11118   0.91158   0.00000  Uiso   1.00
C855   C     0.61118   0.13877   0.96100   0.00000  Uiso   1.00
H856   H     0.63230   0.12127   0.99307   0.00000  Uiso   1.00
H857   H     0.57624   0.13824   0.97625   0.00000  Uiso   1.00
H858   H     0.62252   0.17813   0.95607   0.00000  Uiso   1.00
O859   O     0.88426   0.11430   0.91397   0.00000  Uiso   1.00
C860   C     0.88806   0.14446   0.96163   0.00000  Uiso   1.00
H861   H     0.87664   0.18344   0.95410   0.00000  Uiso   1.00
H862   H     0.92277   0.14494   0.97739   0.00000  Uiso   1.00
H863   H     0.86660   0.12851   0.99444   0.00000  Uiso   1.00
O864   O     0.61688   0.22639   0.75953   0.00000  Uiso   1.00
C865   C     0.62153   0.27255   0.78718   0.00000  Uiso   1.00
H866   H     0.63968   0.29877   0.75981   0.00000  Uiso   1.00
H867   H     0.64138   0.26855   0.82558   0.00000  Uiso   1.00
H868   H     0.58854   0.28950   0.79673   0.00000  Uiso   1.00
O869   O     0.25000   0.42845   0.87895   0.00000  Uiso   1.00
O870   O     0.25000   0.57155   0.78772   0.00000  Uiso   1.00
O871   O     0.25000   0.57155   0.87895   0.00000  Uiso   1.00
O872   O     0.25000   0.42845   0.78772   0.00000  Uiso   1.00
C873   C     0.24999   0.40598   0.83331   0.00000  Uiso   1.00
C874   C     0.25001   0.59401   0.83335   0.00000  Uiso   1.00
O875   O     0.18392   0.50000   0.87896   0.00000  Uiso   1.00
O876   O     0.31607   0.50000   0.78770   0.00000  Uiso   1.00
O877   O     0.31607   0.50000   0.87896   0.00000  Uiso   1.00
O878   O     0.18392   0.50000   0.78770   0.00000  Uiso   1.00
C879   C     0.16314   0.50003   0.83341   0.00000  Uiso   1.00
C880   C     0.33691   0.50002   0.83330   0.00000  Uiso   1.00
Zn881  Zn    0.25000   0.50000   0.89426   0.00000  Uiso   1.00
Zn882  Zn    0.25000   0.50000   0.77241   0.00000  Uiso   1.00
N883   N     0.25000   0.50000   0.69121   0.00000  Uiso   1.00
N884   N     0.25000   0.50000   0.97545   0.00000  Uiso   1.00
C885   C     0.40727   0.52533   0.79108   0.00000  Uiso   1.00
C886   C     0.09251   0.46880   0.87028   0.00000  Uiso   1.00
C887   C     0.40769   0.47017   0.87147   0.00000  Uiso   1.00
C888   C     0.09293   0.52745   0.79300   0.00000  Uiso   1.00
C889   C     0.38487   0.49907   0.83263   0.00000  Uiso   1.00
C890   C     0.11527   0.49936   0.83300   0.00000  Uiso   1.00
C891   C     0.45367   0.46291   0.86526   0.00000  Uiso   1.00
C892   C     0.04673   0.52234   0.78722   0.00000  Uiso   1.00
C893   C     0.45352   0.52070   0.78611   0.00000  Uiso   1.00
C894   C     0.04656   0.46217   0.86417   0.00000  Uiso   1.00
C895   C     0.47684   0.49121   0.82497   0.00000  Uiso   1.00
C896   C     0.02340   0.49144   0.82495   0.00000  Uiso   1.00
C897   C     0.47681   0.42809   0.89823   0.00000  Uiso   1.00
C898   C     0.02350   0.54762   0.74504   0.00000  Uiso   1.00
C899   C     0.47675   0.54447   0.74289   0.00000  Uiso   1.00
C900   C     0.02357   0.42610   0.89543   0.00000  Uiso   1.00
C901   C     0.24999   0.35506   0.83329   0.00000  Uiso   1.00
C902   C     0.25000   0.64493   0.83335   0.00000  Uiso   1.00
O903   O     0.45337   0.39596   0.93210   0.00000  Uiso   1.00
H904   H     0.47154   0.38879   0.96521   0.00000  Uiso   1.00
O905   O     0.04677   0.57512   0.70636   0.00000  Uiso   1.00
H906   H     0.02823   0.60384   0.69467   0.00000  Uiso   1.00
O907   O     0.45337   0.56372   0.69873   0.00000  Uiso   1.00
H908   H     0.47204   0.56118   0.99846   0.00000  Uiso   1.00
O909   O     0.04729   0.38867   0.92145   0.00000  Uiso   1.00
H910   H     0.02870   0.35815   0.92322   0.00000  Uiso   1.00
O911   O     0.38351   0.55631   0.75605   0.00000  Uiso   1.00
C912   C     0.37970   0.60386   0.78086   0.00000  Uiso   1.00
H913   H     0.36125   0.62880   0.75247   0.00000  Uiso   1.00
H914   H     0.41298   0.62089   0.78820   0.00000  Uiso   1.00
H915   H     0.36052   0.60208   0.82009   0.00000  Uiso   1.00
O916   O     0.11586   0.44452   0.91158   0.00000  Uiso   1.00
C917   C     0.11118   0.47211   0.96100   0.00000  Uiso   1.00
H918   H     0.13230   0.45460   0.99307   0.00000  Uiso   1.00
H919   H     0.07624   0.47158   0.97625   0.00000  Uiso   1.00
H920   H     0.12252   0.51146   0.95607   0.00000  Uiso   1.00
O921   O     0.38426   0.44763   0.91397   0.00000  Uiso   1.00
C922   C     0.38806   0.47779   0.96163   0.00000  Uiso   1.00
H923   H     0.37664   0.51677   0.95410   0.00000  Uiso   1.00
H924   H     0.42277   0.47827   0.97739   0.00000  Uiso   1.00
H925   H     0.36660   0.46184   0.99444   0.00000  Uiso   1.00
O926   O     0.11688   0.55973   0.75953   0.00000  Uiso   1.00
C927   C     0.12153   0.60588   0.78718   0.00000  Uiso   1.00
H928   H     0.13968   0.63210   0.75981   0.00000  Uiso   1.00
H929   H     0.14138   0.60189   0.82558   0.00000  Uiso   1.00
H930   H     0.08854   0.62284   0.79673   0.00000  Uiso   1.00
O931   O     0.75000   0.42845   0.87895   0.00000  Uiso   1.00
O932   O     0.75000   0.57155   0.78772   0.00000  Uiso   1.00
O933   O     0.75000   0.57155   0.87895   0.00000  Uiso   1.00
O934   O     0.75000   0.42845   0.78772   0.00000  Uiso   1.00
C935   C     0.74999   0.40598   0.83331   0.00000  Uiso   1.00
C936   C     0.75001   0.59401   0.83335   0.00000  Uiso   1.00
O937   O     0.68392   0.50000   0.87896   0.00000  Uiso   1.00
O938   O     0.81607   0.50000   0.78770   0.00000  Uiso   1.00
O939   O     0.81607   0.50000   0.87896   0.00000  Uiso   1.00
O940   O     0.68392   0.50000   0.78770   0.00000  Uiso   1.00
C941   C     0.66314   0.50003   0.83341   0.00000  Uiso   1.00
C942   C     0.83691   0.50002   0.83330   0.00000  Uiso   1.00
Zn943  Zn    0.75000   0.50000   0.89426   0.00000  Uiso   1.00
Zn944  Zn    0.75000   0.50000   0.77241   0.00000  Uiso   1.00
N945   N     0.75000   0.50000   0.69121   0.00000  Uiso   1.00
N946   N     0.75000   0.50000   0.97545   0.00000  Uiso   1.00
C947   C     0.90727   0.52533   0.79108   0.00000  Uiso   1.00
C948   C     0.59251   0.46880   0.87028   0.00000  Uiso   1.00
C949   C     0.90769   0.47017   0.87147   0.00000  Uiso   1.00
C950   C     0.59293   0.52745   0.79300   0.00000  Uiso   1.00
C951   C     0.88487   0.49907   0.83263   0.00000  Uiso   1.00
C952   C     0.61527   0.49936   0.83300   0.00000  Uiso   1.00
C953   C     0.95367   0.46291   0.86526   0.00000  Uiso   1.00
C954   C     0.54673   0.52234   0.78722   0.00000  Uiso   1.00
C955   C     0.95352   0.52070   0.78611   0.00000  Uiso   1.00
C956   C     0.54656   0.46217   0.86417   0.00000  Uiso   1.00
C957   C     0.97684   0.49121   0.82497   0.00000  Uiso   1.00
C958   C     0.52340   0.49144   0.82495   0.00000  Uiso   1.00
C959   C     0.97681   0.42809   0.89823   0.00000  Uiso   1.00
C960   C     0.52350   0.54762   0.74504   0.00000  Uiso   1.00
C961   C     0.97675   0.54447   0.74289   0.00000  Uiso   1.00
C962   C     0.52357   0.42610   0.89543   0.00000  Uiso   1.00
C963   C     0.74999   0.35506   0.83329   0.00000  Uiso   1.00
C964   C     0.75000   0.64493   0.83335   0.00000  Uiso   1.00
O965   O     0.95337   0.39596   0.93210   0.00000  Uiso   1.00
H966   H     0.97154   0.38879   0.96521   0.00000  Uiso   1.00
O967   O     0.54677   0.57512   0.70636   0.00000  Uiso   1.00
H968   H     0.52823   0.60384   0.69467   0.00000  Uiso   1.00
O969   O     0.95337   0.56372   0.69873   0.00000  Uiso   1.00
H970   H     0.97204   0.56118   0.99846   0.00000  Uiso   1.00
O971   O     0.54729   0.38867   0.92145   0.00000  Uiso   1.00
H972   H     0.52870   0.35815   0.92322   0.00000  Uiso   1.00
O973   O     0.88351   0.55631   0.75605   0.00000  Uiso   1.00
C974   C     0.87970   0.60386   0.78086   0.00000  Uiso   1.00
H975   H     0.86125   0.62880   0.75247   0.00000  Uiso   1.00
H976   H     0.91298   0.62089   0.78820   0.00000  Uiso   1.00
H977   H     0.86052   0.60208   0.82009   0.00000  Uiso   1.00
O978   O     0.61586   0.44452   0.91158   0.00000  Uiso   1.00
C979   C     0.61118   0.47211   0.96100   0.00000  Uiso   1.00
H980   H     0.63230   0.45460   0.99307   0.00000  Uiso   1.00
H981   H     0.57624   0.47158   0.97625   0.00000  Uiso   1.00
H982   H     0.62252   0.51146   0.95607   0.00000  Uiso   1.00
O983   O     0.88426   0.44763   0.91397   0.00000  Uiso   1.00
C984   C     0.88806   0.47779   0.96163   0.00000  Uiso   1.00
H985   H     0.87664   0.51677   0.95410   0.00000  Uiso   1.00
H986   H     0.92277   0.47827   0.97739   0.00000  Uiso   1.00
H987   H     0.86660   0.46184   0.99444   0.00000  Uiso   1.00
O988   O     0.61688   0.55973   0.75953   0.00000  Uiso   1.00
C989   C     0.62153   0.60588   0.78718   0.00000  Uiso   1.00
H990   H     0.63968   0.63210   0.75981   0.00000  Uiso   1.00
H991   H     0.64138   0.60189   0.82558   0.00000  Uiso   1.00
H992   H     0.58854   0.62284   0.79673   0.00000  Uiso   1.00
O993   O     0.25000   0.76178   0.87895   0.00000  Uiso   1.00
O994   O     0.25000   0.90488   0.78772   0.00000  Uiso   1.00
O995   O     0.25000   0.90488   0.87895   0.00000  Uiso   1.00
O996   O     0.25000   0.76178   0.78772   0.00000  Uiso   1.00
C997   C     0.24999   0.73932   0.83331   0.00000  Uiso   1.00
C998   C     0.25001   0.92735   0.83335   0.00000  Uiso   1.00
O999   O     0.18392   0.83333   0.87896   0.00000  Uiso   1.00
O1000  O     0.31607   0.83333   0.78770   0.00000  Uiso   1.00
O1001  O     0.31607   0.83333   0.87896   0.00000  Uiso   1.00
O1002  O     0.18392   0.83333   0.78770   0.00000  Uiso   1.00
C1003  C     0.16314   0.83337   0.83341   0.00000  Uiso   1.00
C1004  C     0.33691   0.83335   0.83330   0.00000  Uiso   1.00
Zn1005 Zn    0.25000   0.83333   0.89426   0.00000  Uiso   1.00
Zn1006 Zn    0.25000   0.83333   0.77241   0.00000  Uiso   1.00
N1007  N     0.25000   0.83333   0.69121   0.00000  Uiso   1.00
N1008  N     0.25000   0.83333   0.97545   0.00000  Uiso   1.00
C1009  C     0.40727   0.85867   0.79108   0.00000  Uiso   1.00
C1010  C     0.09251   0.80213   0.87028   0.00000  Uiso   1.00
C1011  C     0.40769   0.80351   0.87147   0.00000  Uiso   1.00
C1012  C     0.09293   0.86079   0.79300   0.00000  Uiso   1.00
C1013  C     0.38487   0.83241   0.83263   0.00000  Uiso   1.00
C1014  C     0.11527   0.83270   0.83300   0.00000  Uiso   1.00
C1015  C     0.45367   0.79625   0.86526   0.00000  Uiso   1.00
C1016  C     0.04673   0.85568   0.78722   0.00000  Uiso   1.00
C1017  C     0.45352   0.85404   0.78611   0.00000  Uiso   1.00
C1018  C     0.04656   0.79550   0.86417   0.00000  Uiso   1.00
C1019  C     0.47684   0.82454   0.82497   0.00000  Uiso   1.00
C1020  C     0.02340   0.82477   0.82495   0.00000  Uiso   1.00
C1021  C     0.47681   0.76142   0.89823   0.00000  Uiso   1.00
C1022  C     0.02350   0.88096   0.74504   0.00000  Uiso   1.00
C1023  C     0.47675   0.87781   0.74289   0.00000  Uiso   1.00
C1024  C     0.02357   0.75943   0.89543   0.00000  Uiso   1.00
C1025  C     0.24999   0.68839   0.83329   0.00000  Uiso   1.00
C1026  C     0.25000   0.97826   0.83335   0.00000  Uiso   1.00
O1027  O     0.45337   0.72930   0.93210   0.00000  Uiso   1.00
H1028  H     0.47154   0.72212   0.96521   0.00000  Uiso   1.00
O1029  O     0.04677   0.90846   0.70636   0.00000  Uiso   1.00
H1030  H     0.02823   0.93717   0.69467   0.00000  Uiso   1.00
O1031  O     0.45337   0.89706   0.69873   0.00000  Uiso   1.00
H1032  H     0.47204   0.89451   0.99846   0.00000  Uiso   1.00
O1033  O     0.04729   0.72201   0.92145   0.00000  Uiso   1.00
H1034  H     0.02870   0.69148   0.92322   0.00000  Uiso   1.00
O1035  O     0.38351   0.88964   0.75605   0.00000  Uiso   1.00
C1036  C     0.37970   0.93719   0.78086   0.00000  Uiso   1.00
H1037  H     0.36125   0.96214   0.75247   0.00000  Uiso   1.00
H1038  H     0.41298   0.95422   0.78820   0.00000  Uiso   1.00
H1039  H     0.36052   0.93541   0.82009   0.00000  Uiso   1.00
O1040  O     0.11586   0.77785   0.91158   0.00000  Uiso   1.00
C1041  C     0.11118   0.80544   0.96100   0.00000  Uiso   1.00
H1042  H     0.13230   0.78794   0.99307   0.00000  Uiso   1.00
H1043  H     0.07624   0.80491   0.97625   0.00000  Uiso   1.00
H1044  H     0.12252   0.84480   0.95607   0.00000  Uiso   1.00
O1045  O     0.38426   0.78097   0.91397   0.00000  Uiso   1.00
C1046  C     0.38806   0.81113   0.96163   0.00000  Uiso   1.00
H1047  H     0.37664   0.85011   0.95410   0.00000  Uiso   1.00
H1048  H     0.42277   0.81160   0.97739   0.00000  Uiso   1.00
H1049  H     0.36660   0.79517   0.99444   0.00000  Uiso   1.00
O1050  O     0.11688   0.89306   0.75953   0.00000  Uiso   1.00
C1051  C     0.12153   0.93921   0.78718   0.00000  Uiso   1.00
H1052  H     0.13968   0.96543   0.75981   0.00000  Uiso   1.00
H1053  H     0.14138   0.93522   0.82558   0.00000  Uiso   1.00
H1054  H     0.08854   0.95617   0.79673   0.00000  Uiso   1.00
O1055  O     0.75000   0.76178   0.87895   0.00000  Uiso   1.00
O1056  O     0.75000   0.90488   0.78772   0.00000  Uiso   1.00
O1057  O     0.75000   0.90488   0.87895   0.00000  Uiso   1.00
O1058  O     0.75000   0.76178   0.78772   0.00000  Uiso   1.00
C1059  C     0.74999   0.73932   0.83331   0.00000  Uiso   1.00
C1060  C     0.75001   0.92735   0.83335   0.00000  Uiso   1.00
O1061  O     0.68392   0.83333   0.87896   0.00000  Uiso   1.00
O1062  O     0.81607   0.83333   0.78770   0.00000  Uiso   1.00
O1063  O     0.81607   0.83333   0.87896   0.00000  Uiso   1.00
O1064  O     0.68392   0.83333   0.78770   0.00000  Uiso   1.00
C1065  C     0.66314   0.83337   0.83341   0.00000  Uiso   1.00
C1066  C     0.83691   0.83335   0.83330   0.00000  Uiso   1.00
Zn1067 Zn    0.75000   0.83333   0.89426   0.00000  Uiso   1.00
Zn1068 Zn    0.75000   0.83333   0.77241   0.00000  Uiso   1.00
N1069  N     0.75000   0.83333   0.69121   0.00000  Uiso   1.00
N1070  N     0.75000   0.83333   0.97545   0.00000  Uiso   1.00
C1071  C     0.90727   0.85867   0.79108   0.00000  Uiso   1.00
C1072  C     0.59251   0.80213   0.87028   0.00000  Uiso   1.00
C1073  C     0.90769   0.80351   0.87147   0.00000  Uiso   1.00
C1074  C     0.59293   0.86079   0.79300   0.00000  Uiso   1.00
C1075  C     0.88487   0.83241   0.83263   0.00000  Uiso   1.00
C1076  C     0.61527   0.83270   0.83300   0.00000  Uiso   1.00
C1077  C     0.95367   0.79625   0.86526   0.00000  Uiso   1.00
C1078  C     0.54673   0.85568   0.78722   0.00000  Uiso   1.00
C1079  C     0.95352   0.85404   0.78611   0.00000  Uiso   1.00
C1080  C     0.54656   0.79550   0.86417   0.00000  Uiso   1.00
C1081  C     0.97684   0.82454   0.82497   0.00000  Uiso   1.00
C1082  C     0.52340   0.82477   0.82495   0.00000  Uiso   1.00
C1083  C     0.97681   0.76142   0.89823   0.00000  Uiso   1.00
C1084  C     0.52350   0.88096   0.74504   0.00000  Uiso   1.00
C1085  C     0.97675   0.87781   0.74289   0.00000  Uiso   1.00
C1086  C     0.52357   0.75943   0.89543   0.00000  Uiso   1.00
C1087  C     0.74999   0.68839   0.83329   0.00000  Uiso   1.00
C1088  C     0.75000   0.97826   0.83335   0.00000  Uiso   1.00
O1089  O     0.95337   0.72930   0.93210   0.00000  Uiso   1.00
H1090  H     0.97154   0.72212   0.96521   0.00000  Uiso   1.00
O1091  O     0.54677   0.90846   0.70636   0.00000  Uiso   1.00
H1092  H     0.52823   0.93717   0.69467   0.00000  Uiso   1.00
O1093  O     0.95337   0.89706   0.69873   0.00000  Uiso   1.00
H1094  H     0.97204   0.89451   0.99846   0.00000  Uiso   1.00
O1095  O     0.54729   0.72201   0.92145   0.00000  Uiso   1.00
H1096  H     0.52870   0.69148   0.92322   0.00000  Uiso   1.00
O1097  O     0.88351   0.88964   0.75605   0.00000  Uiso   1.00
C1098  C     0.87970   0.93719   0.78086   0.00000  Uiso   1.00
H1099  H     0.86125   0.96214   0.75247   0.00000  Uiso   1.00
H1100  H     0.91298   0.95422   0.78820   0.00000  Uiso   1.00
H1101  H     0.86052   0.93541   0.82009   0.00000  Uiso   1.00
O1102  O     0.61586   0.77785   0.91158   0.00000  Uiso   1.00
C1103  C     0.61118   0.80544   0.96100   0.00000  Uiso   1.00
H1104  H     0.63230   0.78794   0.99307   0.00000  Uiso   1.00
H1105  H     0.57624   0.80491   0.97625   0.00000  Uiso   1.00
H1106  H     0.62252   0.84480   0.95607   0.00000  Uiso   1.00
O1107  O     0.88426   0.78097   0.91397   0.00000  Uiso   1.00
C1108  C     0.88806   0.81113   0.96163   0.00000  Uiso   1.00
H1109  H     0.87664   0.85011   0.95410   0.00000  Uiso   1.00
H1110  H     0.92277   0.81160   0.97739   0.00000  Uiso   1.00
H1111  H     0.86660   0.79517   0.99444   0.00000  Uiso   1.00
O1112  O     0.61688   0.89306   0.75953   0.00000  Uiso   1.00
C1113  C     0.62153   0.93921   0.78718   0.00000  Uiso   1.00
H1114  H     0.63968   0.96543   0.75981   0.00000  Uiso   1.00
H1115  H     0.64138   0.93522   0.82558   0.00000  Uiso   1.00
H1116  H     0.58854   0.95617   0.79673   0.00000  Uiso   1.00
loop_
_geom_bond_atom_site_label_1
_geom_bond_atom_site_label_2
_geom_bond_distance
_geom_bond_site_symmetry_2
_ccdc_geom_bond_type
O1     C5      1.260   .     A
O1     Zn13    1.950   .     S
O2     C6      1.260   .     A
O2     Zn14    1.950   .     S
O3     Zn13    1.951   .     S
O3     C6      1.260   .     A
O4     Zn14    1.951   .     S
O4     C5      1.260   .     A
C5     C33     1.363   .     S
C6     C34     1.363   .     S
O7     C11     1.271   .     A
O7     Zn13    2.020   .     S
O8     C12     1.273   .     A
O8     Zn14    2.020   .     S
O9     C12     1.272   .     A
O9     Zn13    2.018   .     S
O10    C11     1.272   .     A
O10    Zn14    2.018   .     S
C11    C22     1.438   .     S
C12    C21     1.441   .     S
Zn13   N16     1.971   .     S
Zn14   N15     1.971   .     S
N15    N760    1.192   1_554 S
N16    N387    1.192   .     S
C17    O43     1.387   .     S
C17    C25     1.400   .     A
C17    C21     1.401   .     A
C18    C22     1.398   .     A
C18    O48     1.387   .     S
C18    C26     1.400   .     A
C19    C23     1.402   .     A
C19    O53     1.387   .     S
C19    C21     1.401   .     A
C20    C22     1.401   .     A
C20    O58     1.387   .     S
C20    C24     1.402   .     A
C23    C27     1.419   .     A
C23    C29     1.413   .     A
C24    C30     1.413   .     A
C24    C28     1.419   .     A
C25    C31     1.411   .     A
C25    C27     1.417   .     A
C26    C32     1.409   .     A
C26    C28     1.417   .     A
C27    C90     1.398   .     S
C28    C89     1.398   1_455 S
C29    O35     1.382   .     S
C29    C94     1.407   .     S
C30    O37     1.382   .     S
C30    C93     1.408   1_455 S
C31    O39     1.383   .     S
C31    C92     1.408   .     S
C32    O41     1.383   .     S
C32    C91     1.407   1_455 S
C33    C282    1.163   1_545 S
C34    C157    1.163   .     S
O35    H36     0.991   .     S
O37    H38     0.991   .     S
O39    H784    0.991   1_554 S
H40    O411    0.991   .     S
O41    H42     0.991   .     S
O43    C44     1.412   .     S
C44    H47     1.113   .     S
C44    H45     1.109   .     S
C44    H46     1.113   .     S
O48    C49     1.414   .     S
C49    H52     1.114   .     S
C49    H50     1.110   .     S
C49    H51     1.112   .     S
O53    C54     1.414   .     S
C54    H55     1.114   .     S
C54    H56     1.111   .     S
C54    H57     1.109   .     S
O58    C59     1.412   .     S
C59    H60     1.109   .     S
C59    H61     1.113   .     S
C59    H62     1.114   .     S
O63    C67     1.260   .     A
O63    Zn75    1.950   .     S
O64    C68     1.260   .     A
O64    Zn76    1.950   .     S
O65    Zn75    1.951   .     S
O65    C68     1.260   .     A
O66    Zn76    1.951   .     S
O66    C67     1.260   .     A
C67    C95     1.363   .     S
C68    C96     1.363   .     S
O69    C73     1.271   .     A
O69    Zn75    2.020   .     S
O70    C74     1.273   .     A
O70    Zn76    2.020   .     S
O71    C74     1.272   .     A
O71    Zn75    2.018   .     S
O72    C73     1.272   .     A
O72    Zn76    2.018   .     S
C73    C84     1.438   .     S
C74    C83     1.441   .     S
Zn75   N78     1.971   .     S
Zn76   N77     1.971   .     S
N77    N822    1.192   1_554 S
N78    N449    1.192   .     S
C79    O105    1.387   .     S
C79    C87     1.400   .     A
C79    C83     1.401   .     A
C80    C84     1.398   .     A
C80    O110    1.387   .     S
C80    C88     1.400   .     A
C81    C85     1.402   .     A
C81    O115    1.387   .     S
C81    C83     1.401   .     A
C82    C84     1.401   .     A
C82    O120    1.387   .     S
C82    C86     1.402   .     A
C85    C89     1.419   .     A
C85    C91     1.413   .     A
C86    C92     1.413   .     A
C86    C90     1.419   .     A
C87    C93     1.411   .     A
C87    C89     1.417   .     A
C88    C94     1.409   .     A
C88    C90     1.417   .     A
C89    C28     1.398   1_655 S
C91    O97     1.382   .     S
C91    C32     1.407   1_655 S
C92    O99     1.382   .     S
C93    O101    1.383   .     S
C93    C30     1.408   1_655 S
C94    O103    1.383   .     S
C95    C344    1.163   1_545 S
C96    C219    1.163   .     S
O97    H98     0.991   .     S
O99    H100    0.991   .     S
O101   H846    0.991   1_554 S
H102   O473    0.991   .     S
O103   H104    0.991   .     S
O105   C106    1.412   .     S
C106   H109    1.113   .     S
C106   H107    1.109   .     S
C106   H108    1.113   .     S
O110   C111    1.414   .     S
C111   H114    1.114   .     S
C111   H112    1.110   .     S
C111   H113    1.112   .     S
O115   C116    1.414   .     S
C116   H117    1.114   .     S
C116   H118    1.111   .     S
C116   H119    1.109   .     S
O120   C121    1.412   .     S
C121   H122    1.109   .     S
C121   H123    1.113   .     S
C121   H124    1.114   .     S
O125   C129    1.260   .     A
O125   Zn137   1.950   .     S
O126   C130    1.260   .     A
O126   Zn138   1.950   .     S
O127   Zn137   1.951   .     S
O127   C130    1.260   .     A
O128   Zn138   1.951   .     S
O128   C129    1.260   .     A
C129   C157    1.363   .     S
C130   C158    1.363   .     S
O131   C135    1.271   .     A
O131   Zn137   2.020   .     S
O132   C136    1.273   .     A
O132   Zn138   2.020   .     S
O133   C136    1.272   .     A
O133   Zn137   2.018   .     S
O134   C135    1.272   .     A
O134   Zn138   2.018   .     S
C135   C146    1.438   .     S
C136   C145    1.441   .     S
Zn137  N140    1.971   .     S
Zn138  N139    1.971   .     S
N139   N884    1.192   1_554 S
N140   N511    1.192   .     S
C141   O167    1.387   .     S
C141   C149    1.400   .     A
C141   C145    1.401   .     A
C142   C146    1.398   .     A
C142   O172    1.387   .     S
C142   C150    1.400   .     A
C143   C147    1.402   .     A
C143   O177    1.387   .     S
C143   C145    1.401   .     A
C144   C146    1.401   .     A
C144   O182    1.387   .     S
C144   C148    1.402   .     A
C147   C151    1.419   .     A
C147   C153    1.413   .     A
C148   C154    1.413   .     A
C148   C152    1.419   .     A
C149   C155    1.411   .     A
C149   C151    1.417   .     A
C150   C156    1.409   .     A
C150   C152    1.417   .     A
C151   C214    1.398   .     S
C152   C213    1.398   1_455 S
C153   O159    1.382   .     S
C153   C218    1.407   .     S
C154   O161    1.382   .     S
C154   C217    1.408   1_455 S
C155   O163    1.383   .     S
C155   C216    1.408   .     S
C156   O165    1.383   .     S
C156   C215    1.407   1_455 S
C158   C281    1.163   .     S
O159   H160    0.991   .     S
O161   H162    0.991   .     S
O163   H908    0.991   1_554 S
H164   O535    0.991   .     S
O165   H166    0.991   .     S
O167   C168    1.412   .     S
C168   H171    1.113   .     S
C168   H169    1.109   .     S
C168   H170    1.113   .     S
O172   C173    1.414   .     S
C173   H176    1.114   .     S
C173   H174    1.110   .     S
C173   H175    1.112   .     S
O177   C178    1.414   .     S
C178   H179    1.114   .     S
C178   H180    1.111   .     S
C178   H181    1.109   .     S
O182   C183    1.412   .     S
C183   H184    1.109   .     S
C183   H185    1.113   .     S
C183   H186    1.114   .     S
O187   C191    1.260   .     A
O187   Zn199   1.950   .     S
O188   C192    1.260   .     A
O188   Zn200   1.950   .     S
O189   Zn199   1.951   .     S
O189   C192    1.260   .     A
O190   Zn200   1.951   .     S
O190   C191    1.260   .     A
C191   C219    1.363   .     S
C192   C220    1.363   .     S
O193   C197    1.271   .     A
O193   Zn199   2.020   .     S
O194   C198    1.273   .     A
O194   Zn200   2.020   .     S
O195   C198    1.272   .     A
O195   Zn199   2.018   .     S
O196   C197    1.272   .     A
O196   Zn200   2.018   .     S
C197   C208    1.438   .     S
C198   C207    1.441   .     S
Zn199  N202    1.971   .     S
Zn200  N201    1.971   .     S
N201   N946    1.192   1_554 S
N202   N573    1.192   .     S
C203   O229    1.387   .     S
C203   C211    1.400   .     A
C203   C207    1.401   .     A
C204   C208    1.398   .     A
C204   O234    1.387   .     S
C204   C212    1.400   .     A
C205   C209    1.402   .     A
C205   O239    1.387   .     S
C205   C207    1.401   .     A
C206   C208    1.401   .     A
C206   O244    1.387   .     S
C206   C210    1.402   .     A
C209   C213    1.419   .     A
C209   C215    1.413   .     A
C210   C216    1.413   .     A
C210   C214    1.419   .     A
C211   C217    1.411   .     A
C211   C213    1.417   .     A
C212   C218    1.409   .     A
C212   C214    1.417   .     A
C213   C152    1.398   1_655 S
C215   O221    1.382   .     S
C215   C156    1.407   1_655 S
C216   O223    1.382   .     S
C217   O225    1.383   .     S
C217   C154    1.408   1_655 S
C218   O227    1.383   .     S
C220   C343    1.163   .     S
O221   H222    0.991   .     S
O223   H224    0.991   .     S
O225   H970    0.991   1_554 S
H226   O597    0.991   .     S
O227   H228    0.991   .     S
O229   C230    1.412   .     S
C230   H233    1.113   .     S
C230   H231    1.109   .     S
C230   H232    1.113   .     S
O234   C235    1.414   .     S
C235   H238    1.114   .     S
C235   H236    1.110   .     S
C235   H237    1.112   .     S
O239   C240    1.414   .     S
C240   H241    1.114   .     S
C240   H242    1.111   .     S
C240   H243    1.109   .     S
O244   C245    1.412   .     S
C245   H246    1.109   .     S
C245   H247    1.113   .     S
C245   H248    1.114   .     S
O249   C253    1.260   .     A
O249   Zn261   1.950   .     S
O250   C254    1.260   .     A
O250   Zn262   1.950   .     S
O251   Zn261   1.951   .     S
O251   C254    1.260   .     A
O252   Zn262   1.951   .     S
O252   C253    1.260   .     A
C253   C281    1.363   .     S
C254   C282    1.363   .     S
O255   C259    1.271   .     A
O255   Zn261   2.020   .     S
O256   C260    1.273   .     A
O256   Zn262   2.020   .     S
O257   C260    1.272   .     A
O257   Zn261   2.018   .     S
O258   C259    1.272   .     A
O258   Zn262   2.018   .     S
C259   C270    1.438   .     S
C260   C269    1.441   .     S
Zn261  N264    1.971   .     S
Zn262  N263    1.971   .     S
N263   N1008   1.192   1_554 S
N264   N635    1.192   .     S
C265   O291    1.387   .     S
C265   C273    1.400   .     A
C265   C269    1.401   .     A
C266   C270    1.398   .     A
C266   O296    1.387   .     S
C266   C274    1.400   .     A
C267   C271    1.402   .     A
C267   O301    1.387   .     S
C267   C269    1.401   .     A
C268   C270    1.401   .     A
C268   O306    1.387   .     S
C268   C272    1.402   .     A
C271   C275    1.419   .     A
C271   C277    1.413   .     A
C272   C278    1.413   .     A
C272   C276    1.419   .     A
C273   C279    1.411   .     A
C273   C275    1.417   .     A
C274   C280    1.409   .     A
C274   C276    1.417   .     A
C275   C338    1.398   .     S
C276   C337    1.398   1_455 S
C277   O283    1.382   .     S
C277   C342    1.407   .     S
C278   O285    1.382   .     S
C278   C341    1.408   1_455 S
C279   O287    1.383   .     S
C279   C340    1.408   .     S
C280   O289    1.383   .     S
C280   C339    1.407   1_455 S
C282   C33     1.163   1_565 S
O283   H284    0.991   .     S
O285   H286    0.991   .     S
O287   H1032   0.991   1_554 S
H288   O659    0.991   .     S
O289   H290    0.991   .     S
O291   C292    1.412   .     S
C292   H295    1.113   .     S
C292   H293    1.109   .     S
C292   H294    1.113   .     S
O296   C297    1.414   .     S
C297   H300    1.114   .     S
C297   H298    1.110   .     S
C297   H299    1.112   .     S
O301   C302    1.414   .     S
C302   H303    1.114   .     S
C302   H304    1.111   .     S
C302   H305    1.109   .     S
O306   C307    1.412   .     S
C307   H308    1.109   .     S
C307   H309    1.113   .     S
C307   H310    1.114   .     S
O311   C315    1.260   .     A
O311   Zn323   1.950   .     S
O312   C316    1.260   .     A
O312   Zn324   1.950   .     S
O313   Zn323   1.951   .     S
O313   C316    1.260   .     A
O314   Zn324   1.951   .     S
O314   C315    1.260   .     A
C315   C343    1.363   .     S
C316   C344    1.363   .     S
O317   C321    1.271   .     A
O317   Zn323   2.020   .     S
O318   C322    1.273   .     A
O318   Zn324   2.020   .     S
O319   C322    1.272   .     A
O319   Zn323   2.018   .     S
O320   C321    1.272   .     A
O320   Zn324   2.018   .     S
C321   C332    1.438   .     S
C322   C331    1.441   .     S
Zn323  N326    1.971   .     S
Zn324  N325    1.971   .     S
N325   N1070   1.192   1_554 S
N326   N697    1.192   .     S
C327   O353    1.387   .     S
C327   C335    1.400   .     A
C327   C331    1.401   .     A
C328   C332    1.398   .     A
C328   O358    1.387   .     S
C328   C336    1.400   .     A
C329   C333    1.402   .     A
C329   O363    1.387   .     S
C329   C331    1.401   .     A
C330   C332    1.401   .     A
C330   O368    1.387   .     S
C330   C334    1.402   .     A
C333   C337    1.419   .     A
C333   C339    1.413   .     A
C334   C340    1.413   .     A
C334   C338    1.419   .     A
C335   C341    1.411   .     A
C335   C337    1.417   .     A
C336   C342    1.409   .     A
C336   C338    1.417   .     A
C337   C276    1.398   1_655 S
C339   O345    1.382   .     S
C339   C280    1.407   1_655 S
C340   O347    1.382   .     S
C341   O349    1.383   .     S
C341   C278    1.408   1_655 S
C342   O351    1.383   .     S
C344   C95     1.163   1_565 S
O345   H346    0.991   .     S
O347   H348    0.991   .     S
O349   H1094   0.991   1_554 S
H350   O721    0.991   .     S
O351   H352    0.991   .     S
O353   C354    1.412   .     S
C354   H357    1.113   .     S
C354   H355    1.109   .     S
C354   H356    1.113   .     S
O358   C359    1.414   .     S
C359   H362    1.114   .     S
C359   H360    1.110   .     S
C359   H361    1.112   .     S
O363   C364    1.414   .     S
C364   H365    1.114   .     S
C364   H366    1.111   .     S
C364   H367    1.109   .     S
O368   C369    1.412   .     S
C369   H370    1.109   .     S
C369   H371    1.113   .     S
C369   H372    1.114   .     S
O373   C377    1.260   .     A
O373   Zn385   1.950   .     S
O374   C378    1.260   .     A
O374   Zn386   1.950   .     S
O375   Zn385   1.951   .     S
O375   C378    1.260   .     A
O376   Zn386   1.951   .     S
O376   C377    1.260   .     A
C377   C405    1.363   .     S
C378   C406    1.363   .     S
O379   C383    1.271   .     A
O379   Zn385   2.020   .     S
O380   C384    1.273   .     A
O380   Zn386   2.020   .     S
O381   C384    1.272   .     A
O381   Zn385   2.018   .     S
O382   C383    1.272   .     A
O382   Zn386   2.018   .     S
C383   C394    1.438   .     S
C384   C393    1.441   .     S
Zn385  N388    1.971   .     S
Zn386  N387    1.971   .     S
N388   N759    1.192   .     S
C389   O415    1.387   .     S
C389   C397    1.400   .     A
C389   C393    1.401   .     A
C390   C394    1.398   .     A
C390   O420    1.387   .     S
C390   C398    1.400   .     A
C391   C395    1.402   .     A
C391   O425    1.387   .     S
C391   C393    1.401   .     A
C392   C394    1.401   .     A
C392   O430    1.387   .     S
C392   C396    1.402   .     A
C395   C399    1.419   .     A
C395   C401    1.413   .     A
C396   C402    1.413   .     A
C396   C400    1.419   .     A
C397   C403    1.411   .     A
C397   C399    1.417   .     A
C398   C404    1.409   .     A
C398   C400    1.417   .     A
C399   C462    1.398   .     S
C400   C461    1.398   1_455 S
C401   O407    1.382   .     S
C401   C466    1.407   .     S
C402   O409    1.382   .     S
C402   C465    1.408   1_455 S
C403   O411    1.383   .     S
C403   C464    1.408   .     S
C404   O413    1.383   .     S
C404   C463    1.407   1_455 S
C405   C654    1.163   1_545 S
C406   C529    1.163   .     S
O407   H408    0.991   .     S
O409   H410    0.991   .     S
H412   O783    0.991   .     S
O413   H414    0.991   .     S
O415   C416    1.412   .     S
C416   H419    1.113   .     S
C416   H417    1.109   .     S
C416   H418    1.113   .     S
O420   C421    1.414   .     S
C421   H424    1.114   .     S
C421   H422    1.110   .     S
C421   H423    1.112   .     S
O425   C426    1.414   .     S
C426   H427    1.114   .     S
C426   H428    1.111   .     S
C426   H429    1.109   .     S
O430   C431    1.412   .     S
C431   H432    1.109   .     S
C431   H433    1.113   .     S
C431   H434    1.114   .     S
O435   C439    1.260   .     A
O435   Zn447   1.950   .     S
O436   C440    1.260   .     A
O436   Zn448   1.950   .     S
O437   Zn447   1.951   .     S
O437   C440    1.260   .     A
O438   Zn448   1.951   .     S
O438   C439    1.260   .     A
C439   C467    1.363   .     S
C440   C468    1.363   .     S
O441   C445    1.271   .     A
O441   Zn447   2.020   .     S
O442   C446    1.273   .     A
O442   Zn448   2.020   .     S
O443   C446    1.272   .     A
O443   Zn447   2.018   .     S
O444   C445    1.272   .     A
O444   Zn448   2.018   .     S
C445   C456    1.438   .     S
C446   C455    1.441   .     S
Zn447  N450    1.971   .     S
Zn448  N449    1.971   .     S
N450   N821    1.192   .     S
C451   O477    1.387   .     S
C451   C459    1.400   .     A
C451   C455    1.401   .     A
C452   C456    1.398   .     A
C452   O482    1.387   .     S
C452   C460    1.400   .     A
C453   C457    1.402   .     A
C453   O487    1.387   .     S
C453   C455    1.401   .     A
C454   C456    1.401   .     A
C454   O492    1.387   .     S
C454   C458    1.402   .     A
C457   C461    1.419   .     A
C457   C463    1.413   .     A
C458   C464    1.413   .     A
C458   C462    1.419   .     A
C459   C465    1.411   .     A
C459   C461    1.417   .     A
C460   C466    1.409   .     A
C460   C462    1.417   .     A
C461   C400    1.398   1_655 S
C463   O469    1.382   .     S
C463   C404    1.407   1_655 S
C464   O471    1.382   .     S
C465   O473    1.383   .     S
C465   C402    1.408   1_655 S
C466   O475    1.383   .     S
C467   C716    1.163   1_545 S
C468   C591    1.163   .     S
O469   H470    0.991   .     S
O471   H472    0.991   .     S
H474   O845    0.991   .     S
O475   H476    0.991   .     S
O477   C478    1.412   .     S
C478   H481    1.113   .     S
C478   H479    1.109   .     S
C478   H480    1.113   .     S
O482   C483    1.414   .     S
C483   H486    1.114   .     S
C483   H484    1.110   .     S
C483   H485    1.112   .     S
O487   C488    1.414   .     S
C488   H489    1.114   .     S
C488   H490    1.111   .     S
C488   H491    1.109   .     S
O492   C493    1.412   .     S
C493   H494    1.109   .     S
C493   H495    1.113   .     S
C493   H496    1.114   .     S
O497   C501    1.260   .     A
O497   Zn509   1.950   .     S
O498   C502    1.260   .     A
O498   Zn510   1.950   .     S
O499   Zn509   1.951   .     S
O499   C502    1.260   .     A
O500   Zn510   1.951   .     S
O500   C501    1.260   .     A
C501   C529    1.363   .     S
C502   C530    1.363   .     S
O503   C507    1.271   .     A
O503   Zn509   2.020   .     S
O504   C508    1.273   .     A
O504   Zn510   2.020   .     S
O505   C508    1.272   .     A
O505   Zn509   2.018   .     S
O506   C507    1.272   .     A
O506   Zn510   2.018   .     S
C507   C518    1.438   .     S
C508   C517    1.441   .     S
Zn509  N512    1.971   .     S
Zn510  N511    1.971   .     S
N512   N883    1.192   .     S
C513   O539    1.387   .     S
C513   C521    1.400   .     A
C513   C517    1.401   .     A
C514   C518    1.398   .     A
C514   O544    1.387   .     S
C514   C522    1.400   .     A
C515   C519    1.402   .     A
C515   O549    1.387   .     S
C515   C517    1.401   .     A
C516   C518    1.401   .     A
C516   O554    1.387   .     S
C516   C520    1.402   .     A
C519   C523    1.419   .     A
C519   C525    1.413   .     A
C520   C526    1.413   .     A
C520   C524    1.419   .     A
C521   C527    1.411   .     A
C521   C523    1.417   .     A
C522   C528    1.409   .     A
C522   C524    1.417   .     A
C523   C586    1.398   .     S
C524   C585    1.398   1_455 S
C525   O531    1.382   .     S
C525   C590    1.407   .     S
C526   O533    1.382   .     S
C526   C589    1.408   1_455 S
C527   O535    1.383   .     S
C527   C588    1.408   .     S
C528   O537    1.383   .     S
C528   C587    1.407   1_455 S
C530   C653    1.163   .     S
O531   H532    0.991   .     S
O533   H534    0.991   .     S
H536   O907    0.991   .     S
O537   H538    0.991   .     S
O539   C540    1.412   .     S
C540   H543    1.113   .     S
C540   H541    1.109   .     S
C540   H542    1.113   .     S
O544   C545    1.414   .     S
C545   H548    1.114   .     S
C545   H546    1.110   .     S
C545   H547    1.112   .     S
O549   C550    1.414   .     S
C550   H551    1.114   .     S
C550   H552    1.111   .     S
C550   H553    1.109   .     S
O554   C555    1.412   .     S
C555   H556    1.109   .     S
C555   H557    1.113   .     S
C555   H558    1.114   .     S
O559   C563    1.260   .     A
O559   Zn571   1.950   .     S
O560   C564    1.260   .     A
O560   Zn572   1.950   .     S
O561   Zn571   1.951   .     S
O561   C564    1.260   .     A
O562   Zn572   1.951   .     S
O562   C563    1.260   .     A
C563   C591    1.363   .     S
C564   C592    1.363   .     S
O565   C569    1.271   .     A
O565   Zn571   2.020   .     S
O566   C570    1.273   .     A
O566   Zn572   2.020   .     S
O567   C570    1.272   .     A
O567   Zn571   2.018   .     S
O568   C569    1.272   .     A
O568   Zn572   2.018   .     S
C569   C580    1.438   .     S
C570   C579    1.441   .     S
Zn571  N574    1.971   .     S
Zn572  N573    1.971   .     S
N574   N945    1.192   .     S
C575   O601    1.387   .     S
C575   C583    1.400   .     A
C575   C579    1.401   .     A
C576   C580    1.398   .     A
C576   O606    1.387   .     S
C576   C584    1.400   .     A
C577   C581    1.402   .     A
C577   O611    1.387   .     S
C577   C579    1.401   .     A
C578   C580    1.401   .     A
C578   O616    1.387   .     S
C578   C582    1.402   .     A
C581   C585    1.419   .     A
C581   C587    1.413   .     A
C582   C588    1.413   .     A
C582   C586    1.419   .     A
C583   C589    1.411   .     A
C583   C585    1.417   .     A
C584   C590    1.409   .     A
C584   C586    1.417   .     A
C585   C524    1.398   1_655 S
C587   O593    1.382   .     S
C587   C528    1.407   1_655 S
C588   O595    1.382   .     S
C589   O597    1.383   .     S
C589   C526    1.408   1_655 S
C590   O599    1.383   .     S
C592   C715    1.163   .     S
O593   H594    0.991   .     S
O595   H596    0.991   .     S
H598   O969    0.991   .     S
O599   H600    0.991   .     S
O601   C602    1.412   .     S
C602   H605    1.113   .     S
C602   H603    1.109   .     S
C602   H604    1.113   .     S
O606   C607    1.414   .     S
C607   H610    1.114   .     S
C607   H608    1.110   .     S
C607   H609    1.112   .     S
O611   C612    1.414   .     S
C612   H613    1.114   .     S
C612   H614    1.111   .     S
C612   H615    1.109   .     S
O616   C617    1.412   .     S
C617   H618    1.109   .     S
C617   H619    1.113   .     S
C617   H620    1.114   .     S
O621   C625    1.260   .     A
O621   Zn633   1.950   .     S
O622   C626    1.260   .     A
O622   Zn634   1.950   .     S
O623   Zn633   1.951   .     S
O623   C626    1.260   .     A
O624   Zn634   1.951   .     S
O624   C625    1.260   .     A
C625   C653    1.363   .     S
C626   C654    1.363   .     S
O627   C631    1.271   .     A
O627   Zn633   2.020   .     S
O628   C632    1.273   .     A
O628   Zn634   2.020   .     S
O629   C632    1.272   .     A
O629   Zn633   2.018   .     S
O630   C631    1.272   .     A
O630   Zn634   2.018   .     S
C631   C642    1.438   .     S
C632   C641    1.441   .     S
Zn633  N636    1.971   .     S
Zn634  N635    1.971   .     S
N636   N1007   1.192   .     S
C637   O663    1.387   .     S
C637   C645    1.400   .     A
C637   C641    1.401   .     A
C638   C642    1.398   .     A
C638   O668    1.387   .     S
C638   C646    1.400   .     A
C639   C643    1.402   .     A
C639   O673    1.387   .     S
C639   C641    1.401   .     A
C640   C642    1.401   .     A
C640   O678    1.387   .     S
C640   C644    1.402   .     A
C643   C647    1.419   .     A
C643   C649    1.413   .     A
C644   C650    1.413   .     A
C644   C648    1.419   .     A
C645   C651    1.411   .     A
C645   C647    1.417   .     A
C646   C652    1.409   .     A
C646   C648    1.417   .     A
C647   C710    1.398   .     S
C648   C709    1.398   1_455 S
C649   O655    1.382   .     S
C649   C714    1.407   .     S
C650   O657    1.382   .     S
C650   C713    1.408   1_455 S
C651   O659    1.383   .     S
C651   C712    1.408   .     S
C652   O661    1.383   .     S
C652   C711    1.407   1_455 S
C654   C405    1.163   1_565 S
O655   H656    0.991   .     S
O657   H658    0.991   .     S
H660   O1031   0.991   .     S
O661   H662    0.991   .     S
O663   C664    1.412   .     S
C664   H667    1.113   .     S
C664   H665    1.109   .     S
C664   H666    1.113   .     S
O668   C669    1.414   .     S
C669   H672    1.114   .     S
C669   H670    1.110   .     S
C669   H671    1.112   .     S
O673   C674    1.414   .     S
C674   H675    1.114   .     S
C674   H676    1.111   .     S
C674   H677    1.109   .     S
O678   C679    1.412   .     S
C679   H680    1.109   .     S
C679   H681    1.113   .     S
C679   H682    1.114   .     S
O683   C687    1.260   .     A
O683   Zn695   1.950   .     S
O684   C688    1.260   .     A
O684   Zn696   1.950   .     S
O685   Zn695   1.951   .     S
O685   C688    1.260   .     A
O686   Zn696   1.951   .     S
O686   C687    1.260   .     A
C687   C715    1.363   .     S
C688   C716    1.363   .     S
O689   C693    1.271   .     A
O689   Zn695   2.020   .     S
O690   C694    1.273   .     A
O690   Zn696   2.020   .     S
O691   C694    1.272   .     A
O691   Zn695   2.018   .     S
O692   C693    1.272   .     A
O692   Zn696   2.018   .     S
C693   C704    1.438   .     S
C694   C703    1.441   .     S
Zn695  N698    1.971   .     S
Zn696  N697    1.971   .     S
N698   N1069   1.192   .     S
C699   O725    1.387   .     S
C699   C707    1.400   .     A
C699   C703    1.401   .     A
C700   C704    1.398   .     A
C700   O730    1.387   .     S
C700   C708    1.400   .     A
C701   C705    1.402   .     A
C701   O735    1.387   .     S
C701   C703    1.401   .     A
C702   C704    1.401   .     A
C702   O740    1.387   .     S
C702   C706    1.402   .     A
C705   C709    1.419   .     A
C705   C711    1.413   .     A
C706   C712    1.413   .     A
C706   C710    1.419   .     A
C707   C713    1.411   .     A
C707   C709    1.417   .     A
C708   C714    1.409   .     A
C708   C710    1.417   .     A
C709   C648    1.398   1_655 S
C711   O717    1.382   .     S
C711   C652    1.407   1_655 S
C712   O719    1.382   .     S
C713   O721    1.383   .     S
C713   C650    1.408   1_655 S
C714   O723    1.383   .     S
C716   C467    1.163   1_565 S
O717   H718    0.991   .     S
O719   H720    0.991   .     S
H722   O1093   0.991   .     S
O723   H724    0.991   .     S
O725   C726    1.412   .     S
C726   H729    1.113   .     S
C726   H727    1.109   .     S
C726   H728    1.113   .     S
O730   C731    1.414   .     S
C731   H734    1.114   .     S
C731   H732    1.110   .     S
C731   H733    1.112   .     S
O735   C736    1.414   .     S
C736   H737    1.114   .     S
C736   H738    1.111   .     S
C736   H739    1.109   .     S
O740   C741    1.412   .     S
C741   H742    1.109   .     S
C741   H743    1.113   .     S
C741   H744    1.114   .     S
O745   C749    1.260   .     A
O745   Zn757   1.950   .     S
O746   C750    1.260   .     A
O746   Zn758   1.950   .     S
O747   Zn757   1.951   .     S
O747   C750    1.260   .     A
O748   Zn758   1.951   .     S
O748   C749    1.260   .     A
C749   C777    1.363   .     S
C750   C778    1.363   .     S
O751   C755    1.271   .     A
O751   Zn757   2.020   .     S
O752   C756    1.273   .     A
O752   Zn758   2.020   .     S
O753   C756    1.272   .     A
O753   Zn757   2.018   .     S
O754   C755    1.272   .     A
O754   Zn758   2.018   .     S
C755   C766    1.438   .     S
C756   C765    1.441   .     S
Zn757  N760    1.971   .     S
Zn758  N759    1.971   .     S
N760   N15     1.192   1_556 S
C761   O787    1.387   .     S
C761   C769    1.400   .     A
C761   C765    1.401   .     A
C762   C766    1.398   .     A
C762   O792    1.387   .     S
C762   C770    1.400   .     A
C763   C767    1.402   .     A
C763   O797    1.387   .     S
C763   C765    1.401   .     A
C764   C766    1.401   .     A
C764   O802    1.387   .     S
C764   C768    1.402   .     A
C767   C771    1.419   .     A
C767   C773    1.413   .     A
C768   C774    1.413   .     A
C768   C772    1.419   .     A
C769   C775    1.411   .     A
C769   C771    1.417   .     A
C770   C776    1.409   .     A
C770   C772    1.417   .     A
C771   C834    1.398   .     S
C772   C833    1.398   1_455 S
C773   O779    1.382   .     S
C773   C838    1.407   .     S
C774   O781    1.382   .     S
C774   C837    1.408   1_455 S
C775   O783    1.383   .     S
C775   C836    1.408   .     S
C776   O785    1.383   .     S
C776   C835    1.407   1_455 S
C777   C1026   1.163   1_545 S
C778   C901    1.163   .     S
O779   H780    0.991   .     S
O781   H782    0.991   .     S
H784   O39     0.991   1_556 S
O785   H786    0.991   .     S
O787   C788    1.412   .     S
C788   H791    1.113   .     S
C788   H789    1.109   .     S
C788   H790    1.113   .     S
O792   C793    1.414   .     S
C793   H796    1.114   .     S
C793   H794    1.110   .     S
C793   H795    1.112   .     S
O797   C798    1.414   .     S
C798   H799    1.114   .     S
C798   H800    1.111   .     S
C798   H801    1.109   .     S
O802   C803    1.412   .     S
C803   H804    1.109   .     S
C803   H805    1.113   .     S
C803   H806    1.114   .     S
O807   C811    1.260   .     A
O807   Zn819   1.950   .     S
O808   C812    1.260   .     A
O808   Zn820   1.950   .     S
O809   Zn819   1.951   .     S
O809   C812    1.260   .     A
O810   Zn820   1.951   .     S
O810   C811    1.260   .     A
C811   C839    1.363   .     S
C812   C840    1.363   .     S
O813   C817    1.271   .     A
O813   Zn819   2.020   .     S
O814   C818    1.273   .     A
O814   Zn820   2.020   .     S
O815   C818    1.272   .     A
O815   Zn819   2.018   .     S
O816   C817    1.272   .     A
O816   Zn820   2.018   .     S
C817   C828    1.438   .     S
C818   C827    1.441   .     S
Zn819  N822    1.971   .     S
Zn820  N821    1.971   .     S
N822   N77     1.192   1_556 S
C823   O849    1.387   .     S
C823   C831    1.400   .     A
C823   C827    1.401   .     A
C824   C828    1.398   .     A
C824   O854    1.387   .     S
C824   C832    1.400   .     A
C825   C829    1.402   .     A
C825   O859    1.387   .     S
C825   C827    1.401   .     A
C826   C828    1.401   .     A
C826   O864    1.387   .     S
C826   C830    1.402   .     A
C829   C833    1.419   .     A
C829   C835    1.413   .     A
C830   C836    1.413   .     A
C830   C834    1.419   .     A
C831   C837    1.411   .     A
C831   C833    1.417   .     A
C832   C838    1.409   .     A
C832   C834    1.417   .     A
C833   C772    1.398   1_655 S
C835   O841    1.382   .     S
C835   C776    1.407   1_655 S
C836   O843    1.382   .     S
C837   O845    1.383   .     S
C837   C774    1.408   1_655 S
C838   O847    1.383   .     S
C839   C1088   1.163   1_545 S
C840   C963    1.163   .     S
O841   H842    0.991   .     S
O843   H844    0.991   .     S
H846   O101    0.991   1_556 S
O847   H848    0.991   .     S
O849   C850    1.412   .     S
C850   H853    1.113   .     S
C850   H851    1.109   .     S
C850   H852    1.113   .     S
O854   C855    1.414   .     S
C855   H858    1.114   .     S
C855   H856    1.110   .     S
C855   H857    1.112   .     S
O859   C860    1.414   .     S
C860   H861    1.114   .     S
C860   H862    1.111   .     S
C860   H863    1.109   .     S
O864   C865    1.412   .     S
C865   H866    1.109   .     S
C865   H867    1.113   .     S
C865   H868    1.114   .     S
O869   C873    1.260   .     A
O869   Zn881   1.950   .     S
O870   C874    1.260   .     A
O870   Zn882   1.950   .     S
O871   Zn881   1.951   .     S
O871   C874    1.260   .     A
O872   Zn882   1.951   .     S
O872   C873    1.260   .     A
C873   C901    1.363   .     S
C874   C902    1.363   .     S
O875   C879    1.271   .     A
O875   Zn881   2.020   .     S
O876   C880    1.273   .     A
O876   Zn882   2.020   .     S
O877   C880    1.272   .     A
O877   Zn881   2.018   .     S
O878   C879    1.272   .     A
O878   Zn882   2.018   .     S
C879   C890    1.438   .     S
C880   C889    1.441   .     S
Zn881  N884    1.971   .     S
Zn882  N883    1.971   .     S
N884   N139    1.192   1_556 S
C885   O911    1.387   .     S
C885   C893    1.400   .     A
C885   C889    1.401   .     A
C886   C890    1.398   .     A
C886   O916    1.387   .     S
C886   C894    1.400   .     A
C887   C891    1.402   .     A
C887   O921    1.387   .     S
C887   C889    1.401   .     A
C888   C890    1.401   .     A
C888   O926    1.387   .     S
C888   C892    1.402   .     A
C891   C895    1.419   .     A
C891   C897    1.413   .     A
C892   C898    1.413   .     A
C892   C896    1.419   .     A
C893   C899    1.411   .     A
C893   C895    1.417   .     A
C894   C900    1.409   .     A
C894   C896    1.417   .     A
C895   C958    1.398   .     S
C896   C957    1.398   1_455 S
C897   O903    1.382   .     S
C897   C962    1.407   .     S
C898   O905    1.382   .     S
C898   C961    1.408   1_455 S
C899   O907    1.383   .     S
C899   C960    1.408   .     S
C900   O909    1.383   .     S
C900   C959    1.407   1_455 S
C902   C1025   1.163   .     S
O903   H904    0.991   .     S
O905   H906    0.991   .     S
H908   O163    0.991   1_556 S
O909   H910    0.991   .     S
O911   C912    1.412   .     S
C912   H915    1.113   .     S
C912   H913    1.109   .     S
C912   H914    1.113   .     S
O916   C917    1.414   .     S
C917   H920    1.114   .     S
C917   H918    1.110   .     S
C917   H919    1.112   .     S
O921   C922    1.414   .     S
C922   H923    1.114   .     S
C922   H924    1.111   .     S
C922   H925    1.109   .     S
O926   C927    1.412   .     S
C927   H928    1.109   .     S
C927   H929    1.113   .     S
C927   H930    1.114   .     S
O931   C935    1.260   .     A
O931   Zn943   1.950   .     S
O932   C936    1.260   .     A
O932   Zn944   1.950   .     S
O933   Zn943   1.951   .     S
O933   C936    1.260   .     A
O934   Zn944   1.951   .     S
O934   C935    1.260   .     A
C935   C963    1.363   .     S
C936   C964    1.363   .     S
O937   C941    1.271   .     A
O937   Zn943   2.020   .     S
O938   C942    1.273   .     A
O938   Zn944   2.020   .     S
O939   C942    1.272   .     A
O939   Zn943   2.018   .     S
O940   C941    1.272   .     A
O940   Zn944   2.018   .     S
C941   C952    1.438   .     S
C942   C951    1.441   .     S
Zn943  N946    1.971   .     S
Zn944  N945    1.971   .     S
N946   N201    1.192   1_556 S
C947   O973    1.387   .     S
C947   C955    1.400   .     A
C947   C951    1.401   .     A
C948   C952    1.398   .     A
C948   O978    1.387   .     S
C948   C956    1.400   .     A
C949   C953    1.402   .     A
C949   O983    1.387   .     S
C949   C951    1.401   .     A
C950   C952    1.401   .     A
C950   O988    1.387   .     S
C950   C954    1.402   .     A
C953   C957    1.419   .     A
C953   C959    1.413   .     A
C954   C960    1.413   .     A
C954   C958    1.419   .     A
C955   C961    1.411   .     A
C955   C957    1.417   .     A
C956   C962    1.409   .     A
C956   C958    1.417   .     A
C957   C896    1.398   1_655 S
C959   O965    1.382   .     S
C959   C900    1.407   1_655 S
C960   O967    1.382   .     S
C961   O969    1.383   .     S
C961   C898    1.408   1_655 S
C962   O971    1.383   .     S
C964   C1087   1.163   .     S
O965   H966    0.991   .     S
O967   H968    0.991   .     S
H970   O225    0.991   1_556 S
O971   H972    0.991   .     S
O973   C974    1.412   .     S
C974   H977    1.113   .     S
C974   H975    1.109   .     S
C974   H976    1.113   .     S
O978   C979    1.414   .     S
C979   H982    1.114   .     S
C979   H980    1.110   .     S
C979   H981    1.112   .     S
O983   C984    1.414   .     S
C984   H985    1.114   .     S
C984   H986    1.111   .     S
C984   H987    1.109   .     S
O988   C989    1.412   .     S
C989   H990    1.109   .     S
C989   H991    1.113   .     S
C989   H992    1.114   .     S
O993   C997    1.260   .     A
O993   Zn1005  1.950   .     S
O994   C998    1.260   .     A
O994   Zn1006  1.950   .     S
O995   Zn1005  1.951   .     S
O995   C998    1.260   .     A
O996   Zn1006  1.951   .     S
O996   C997    1.260   .     A
C997   C1025   1.363   .     S
C998   C1026   1.363   .     S
O999   C1003   1.271   .     A
O999   Zn1005  2.020   .     S
O1000  C1004   1.273   .     A
O1000  Zn1006  2.020   .     S
O1001  C1004   1.272   .     A
O1001  Zn1005  2.018   .     S
O1002  C1003   1.272   .     A
O1002  Zn1006  2.018   .     S
C1003  C1014   1.438   .     S
C1004  C1013   1.441   .     S
Zn1005 N1008   1.971   .     S
Zn1006 N1007   1.971   .     S
N1008  N263    1.192   1_556 S
C1009  O1035   1.387   .     S
C1009  C1017   1.400   .     A
C1009  C1013   1.401   .     A
C1010  C1014   1.398   .     A
C1010  O1040   1.387   .     S
C1010  C1018   1.400   .     A
C1011  C1015   1.402   .     A
C1011  O1045   1.387   .     S
C1011  C1013   1.401   .     A
C1012  C1014   1.401   .     A
C1012  O1050   1.387   .     S
C1012  C1016   1.402   .     A
C1015  C1019   1.419   .     A
C1015  C1021   1.413   .     A
C1016  C1022   1.413   .     A
C1016  C1020   1.419   .     A
C1017  C1023   1.411   .     A
C1017  C1019   1.417   .     A
C1018  C1024   1.409   .     A
C1018  C1020   1.417   .     A
C1019  C1082   1.398   .     S
C1020  C1081   1.398   1_455 S
C1021  O1027   1.382   .     S
C1021  C1086   1.407   .     S
C1022  O1029   1.382   .     S
C1022  C1085   1.408   1_455 S
C1023  O1031   1.383   .     S
C1023  C1084   1.408   .     S
C1024  O1033   1.383   .     S
C1024  C1083   1.407   1_455 S
C1026  C777    1.163   1_565 S
O1027  H1028   0.991   .     S
O1029  H1030   0.991   .     S
H1032  O287    0.991   1_556 S
O1033  H1034   0.991   .     S
O1035  C1036   1.412   .     S
C1036  H1039   1.113   .     S
C1036  H1037   1.109   .     S
C1036  H1038   1.113   .     S
O1040  C1041   1.414   .     S
C1041  H1044   1.114   .     S
C1041  H1042   1.110   .     S
C1041  H1043   1.112   .     S
O1045  C1046   1.414   .     S
C1046  H1047   1.114   .     S
C1046  H1048   1.111   .     S
C1046  H1049   1.109   .     S
O1050  C1051   1.412   .     S
C1051  H1052   1.109   .     S
C1051  H1053   1.113   .     S
C1051  H1054   1.114   .     S
O1055  C1059   1.260   .     A
O1055  Zn1067  1.950   .     S
O1056  C1060   1.260   .     A
O1056  Zn1068  1.950   .     S
O1057  Zn1067  1.951   .     S
O1057  C1060   1.260   .     A
O1058  Zn1068  1.951   .     S
O1058  C1059   1.260   .     A
C1059  C1087   1.363   .     S
C1060  C1088   1.363   .     S
O1061  C1065   1.271   .     A
O1061  Zn1067  2.020   .     S
O1062  C1066   1.273   .     A
O1062  Zn1068  2.020   .     S
O1063  C1066   1.272   .     A
O1063  Zn1067  2.018   .     S
O1064  C1065   1.272   .     A
O1064  Zn1068  2.018   .     S
C1065  C1076   1.438   .     S
C1066  C1075   1.441   .     S
Zn1067 N1070   1.971   .     S
Zn1068 N1069   1.971   .     S
N1070  N325    1.192   1_556 S
C1071  O1097   1.387   .     S
C1071  C1079   1.400   .     A
C1071  C1075   1.401   .     A
C1072  C1076   1.398   .     A
C1072  O1102   1.387   .     S
C1072  C1080   1.400   .     A
C1073  C1077   1.402   .     A
C1073  O1107   1.387   .     S
C1073  C1075   1.401   .     A
C1074  C1076   1.401   .     A
C1074  O1112   1.387   .     S
C1074  C1078   1.402   .     A
C1077  C1081   1.419   .     A
C1077  C1083   1.413   .     A
C1078  C1084   1.413   .     A
C1078  C1082   1.419   .     A
C1079  C1085   1.411   .     A
C1079  C1081   1.417   .     A
C1080  C1086   1.409   .     A
C1080  C1082   1.417   .     A
C1081  C1020   1.398   1_655 S
C1083  O1089   1.382   .     S
C1083  C1024   1.407   1_655 S
C1084  O1091   1.382   .     S
C1085  O1093   1.383   .     S
C1085  C1022   1.408   1_655 S
C1086  O1095   1.383   .     S
C1088  C839    1.163   1_565 S
O1089  H1090   0.991   .     S
O1091  H1092   0.991   .     S
H1094  O349    0.991   1_556 S
O1095  H1096   0.991   .     S
O1097  C1098   1.412   .     S
C1098  H1101   1.113   .     S
C1098  H1099   1.109   .     S
C1098  H1100   1.113   .     S
O1102  C1103   1.414   .     S
C1103  H1106   1.114   .     S
C1103  H1104   1.110   .     S
C1103  H1105   1.112   .     S
O1107  C1108   1.414   .     S
C1108  H1109   1.114   .     S
C1108  H1110   1.111   .     S
C1108  H1111   1.109   .     S
O1112  C1113   1.412   .     S
C1113  H1114   1.109   .     S
C1113  H1115   1.113   .     S
C1113  H1116   1.114   .     S
