data_str_m3_o1_o16_pcu_sym.122
_audit_creation_date              2020-01-03
_audit_creation_method            'Materials Studio'
_symmetry_space_group_name_H-M    'P1'
_symmetry_Int_Tables_number       1
_symmetry_cell_setting            triclinic
loop_
_symmetry_equiv_pos_as_xyz
  x,y,z
_cell_length_a                    29.5384
_cell_length_b                    32.1345
_cell_length_c                    26.2067
_cell_angle_alpha                 90.5536
_cell_angle_beta                  69.3381
_cell_angle_gamma                 89.9807
loop_
_atom_site_label
_atom_site_type_symbol
_atom_site_fract_x
_atom_site_fract_y
_atom_site_fract_z
_atom_site_U_iso_or_equiv
_atom_site_adp_type
_atom_site_occupancy
C1     C     0.16707   0.24667   0.24860   0.00000  Uiso   1.00
C2     C     0.14411   0.16855   0.49206   0.00000  Uiso   1.00
C3     C     0.14951   0.18472   0.44060   0.00000  Uiso   1.00
C4     C     0.18116   0.17641   0.01358   0.00000  Uiso   1.00
C5     C     0.22119   0.20232   0.48528   0.00000  Uiso   1.00
C6     C     0.21906   0.22575   0.44075   0.00000  Uiso   1.00
C7     C     0.18227   0.21764   0.41976   0.00000  Uiso   1.00
C8     C     0.17918   0.15922   0.06288   0.00000  Uiso   1.00
C9     C     0.25319   0.19355   0.05876   0.00000  Uiso   1.00
C10    C     0.12108   0.16810   0.41200   0.00000  Uiso   1.00
C11    C     0.21095   0.31191   0.23663   0.00000  Uiso   1.00
C12    C     0.13956   0.16768   0.35243   0.00000  Uiso   1.00
C13    C     0.21081   0.02122   0.23735   0.00000  Uiso   1.00
C14    C     0.16699   0.04246   0.24882   0.00000  Uiso   1.00
C15    C     0.12339   0.02134   0.25909   0.00000  Uiso   1.00
C16    C     0.12353   0.31207   0.25837   0.00000  Uiso   1.00
C17    C     0.16726   0.29082   0.24749   0.00000  Uiso   1.00
C18    C     0.30179   0.13532   0.27427   0.00000  Uiso   1.00
C19    C     0.01637   0.13537   0.27435   0.00000  Uiso   1.00
C20    C     0.03147   0.19808   0.22596   0.00000  Uiso   1.00
C21    C     0.31681   0.19813   0.22615   0.00000  Uiso   1.00
C22    C     0.16673   0.08662   0.24977   0.00000  Uiso   1.00
C23    C     0.19376   0.16699   0.14749   0.00000  Uiso   1.00
C24    C     0.26010   0.20611   0.00516   0.00000  Uiso   1.00
C25    C     0.21088   0.17183   0.08831   0.00000  Uiso   1.00
C26    C     0.07995   0.14456   0.43944   0.00000  Uiso   1.00
C27    C     0.06928   0.13480   0.49386   0.00000  Uiso   1.00
C28    C     0.10163   0.14538   0.01969   0.00000  Uiso   1.00
H29    H     0.24481   0.03742   0.22884   0.00000  Uiso   1.00
H30    H     0.08925   0.03761   0.26820   0.00000  Uiso   1.00
H31    H     0.08946   0.29592   0.26710   0.00000  Uiso   1.00
H32    H     0.27759   0.11028   0.29376   0.00000  Uiso   1.00
H33    H     0.02839   0.11038   0.29391   0.00000  Uiso   1.00
H34    H     0.05559   0.22321   0.20664   0.00000  Uiso   1.00
H35    H     0.30455   0.22342   0.20743   0.00000  Uiso   1.00
H36    H     0.15091   0.13811   0.08491   0.00000  Uiso   1.00
H37    H     0.05722   0.13230   0.41824   0.00000  Uiso   1.00
H38    H     0.09175   0.13548   0.06132   0.00000  Uiso   1.00
H39    H     0.03721   0.11696   0.01527   0.00000  Uiso   1.00
H40    H     0.24502   0.29558   0.22776   0.00000  Uiso   1.00
N41    N     0.04760   0.16668   0.25002   0.00000  Uiso   1.00
N42    N     0.28573   0.16665   0.25001   0.00000  Uiso   1.00
O43    O     0.12846   0.22775   0.25001   0.00000  Uiso   1.00
O44    O     0.20490   0.22774   0.25001   0.00000  Uiso   1.00
O45    O     0.10947   0.16666   0.32681   0.00000  Uiso   1.00
O46    O     0.18591   0.16665   0.32681   0.00000  Uiso   1.00
O47    O     0.12843   0.10559   0.25000   0.00000  Uiso   1.00
O48    O     0.20488   0.10558   0.25000   0.00000  Uiso   1.00
O49    O     0.14742   0.16668   0.17319   0.00000  Uiso   1.00
O50    O     0.22387   0.16667   0.17319   0.00000  Uiso   1.00
Zn51   Zn    0.11562   0.16667   0.25000   0.00000  Uiso   1.00
Zn52   Zn    0.21771   0.16666   0.25000   0.00000  Uiso   1.00
N53    N     0.28705   0.20479   0.08390   0.00000  Uiso   1.00
H54    H     0.32241   0.19728   0.06114   0.00000  Uiso   1.00
C55    C     0.28159   0.24709   0.10476   0.00000  Uiso   1.00
H56    H     0.24487   0.25180   0.13566   0.00000  Uiso   1.00
H57    H     0.28733   0.26962   0.07119   0.00000  Uiso   1.00
H58    H     0.30875   0.25336   0.12418   0.00000  Uiso   1.00
N59    N     0.25056   0.26015   0.42062   0.00000  Uiso   1.00
H60    H     0.26022   0.26532   0.37938   0.00000  Uiso   1.00
C61    C     0.23698   0.29776   0.45341   0.00000  Uiso   1.00
H62    H     0.26508   0.32187   0.43648   0.00000  Uiso   1.00
H63    H     0.23407   0.29174   0.49613   0.00000  Uiso   1.00
H64    H     0.20182   0.30982   0.45315   0.00000  Uiso   1.00
Br65   Br    0.32343   0.22607   0.46042   0.00000  Uiso   1.00
Br66   Br    0.16798   0.25910   0.37484   0.00000  Uiso   1.00
C67    C     0.50040   0.24667   0.24860   0.00000  Uiso   1.00
C68    C     0.47745   0.16855   0.49206   0.00000  Uiso   1.00
C69    C     0.48285   0.18472   0.44060   0.00000  Uiso   1.00
C70    C     0.51449   0.17641   0.01358   0.00000  Uiso   1.00
C71    C     0.55452   0.20232   0.48528   0.00000  Uiso   1.00
C72    C     0.55240   0.22575   0.44075   0.00000  Uiso   1.00
C73    C     0.51561   0.21764   0.41976   0.00000  Uiso   1.00
C74    C     0.51252   0.15922   0.06288   0.00000  Uiso   1.00
C75    C     0.58653   0.19355   0.05876   0.00000  Uiso   1.00
C76    C     0.45441   0.16810   0.41200   0.00000  Uiso   1.00
C77    C     0.54428   0.31191   0.23663   0.00000  Uiso   1.00
C78    C     0.47289   0.16768   0.35243   0.00000  Uiso   1.00
C79    C     0.54414   0.02122   0.23735   0.00000  Uiso   1.00
C80    C     0.50032   0.04246   0.24882   0.00000  Uiso   1.00
C81    C     0.45672   0.02134   0.25909   0.00000  Uiso   1.00
C82    C     0.45686   0.31207   0.25837   0.00000  Uiso   1.00
C83    C     0.50059   0.29082   0.24749   0.00000  Uiso   1.00
C84    C     0.63512   0.13532   0.27427   0.00000  Uiso   1.00
C85    C     0.34971   0.13537   0.27435   0.00000  Uiso   1.00
C86    C     0.36480   0.19808   0.22596   0.00000  Uiso   1.00
C87    C     0.65015   0.19813   0.22615   0.00000  Uiso   1.00
C88    C     0.50006   0.08662   0.24977   0.00000  Uiso   1.00
C89    C     0.52709   0.16699   0.14749   0.00000  Uiso   1.00
C90    C     0.59343   0.20611   0.00516   0.00000  Uiso   1.00
C91    C     0.54421   0.17183   0.08831   0.00000  Uiso   1.00
C92    C     0.41328   0.14456   0.43944   0.00000  Uiso   1.00
C93    C     0.40261   0.13480   0.49386   0.00000  Uiso   1.00
C94    C     0.43496   0.14538   0.01969   0.00000  Uiso   1.00
H95    H     0.57815   0.03742   0.22884   0.00000  Uiso   1.00
H96    H     0.42258   0.03761   0.26820   0.00000  Uiso   1.00
H97    H     0.42280   0.29592   0.26710   0.00000  Uiso   1.00
H98    H     0.61093   0.11028   0.29376   0.00000  Uiso   1.00
H99    H     0.36172   0.11038   0.29391   0.00000  Uiso   1.00
H100   H     0.38892   0.22321   0.20664   0.00000  Uiso   1.00
H101   H     0.63788   0.22342   0.20743   0.00000  Uiso   1.00
H102   H     0.48424   0.13811   0.08491   0.00000  Uiso   1.00
H103   H     0.39055   0.13230   0.41824   0.00000  Uiso   1.00
H104   H     0.42508   0.13548   0.06132   0.00000  Uiso   1.00
H105   H     0.37054   0.11696   0.01527   0.00000  Uiso   1.00
H106   H     0.57835   0.29558   0.22776   0.00000  Uiso   1.00
N107   N     0.38093   0.16668   0.25002   0.00000  Uiso   1.00
N108   N     0.61906   0.16665   0.25001   0.00000  Uiso   1.00
O109   O     0.46179   0.22775   0.25001   0.00000  Uiso   1.00
O110   O     0.53823   0.22774   0.25001   0.00000  Uiso   1.00
O111   O     0.44280   0.16666   0.32681   0.00000  Uiso   1.00
O112   O     0.51924   0.16665   0.32681   0.00000  Uiso   1.00
O113   O     0.46177   0.10559   0.25000   0.00000  Uiso   1.00
O114   O     0.53821   0.10558   0.25000   0.00000  Uiso   1.00
O115   O     0.48076   0.16668   0.17319   0.00000  Uiso   1.00
O116   O     0.55720   0.16667   0.17319   0.00000  Uiso   1.00
Zn117  Zn    0.44896   0.16667   0.25000   0.00000  Uiso   1.00
Zn118  Zn    0.55104   0.16666   0.25000   0.00000  Uiso   1.00
N119   N     0.62039   0.20479   0.08390   0.00000  Uiso   1.00
H120   H     0.65574   0.19728   0.06114   0.00000  Uiso   1.00
C121   C     0.61492   0.24709   0.10476   0.00000  Uiso   1.00
H122   H     0.57820   0.25180   0.13566   0.00000  Uiso   1.00
H123   H     0.62066   0.26962   0.07119   0.00000  Uiso   1.00
H124   H     0.64208   0.25336   0.12418   0.00000  Uiso   1.00
N125   N     0.58389   0.26015   0.42062   0.00000  Uiso   1.00
H126   H     0.59355   0.26532   0.37938   0.00000  Uiso   1.00
C127   C     0.57031   0.29776   0.45341   0.00000  Uiso   1.00
H128   H     0.59841   0.32187   0.43648   0.00000  Uiso   1.00
H129   H     0.56740   0.29174   0.49613   0.00000  Uiso   1.00
H130   H     0.53515   0.30982   0.45315   0.00000  Uiso   1.00
Br131  Br    0.65676   0.22607   0.46042   0.00000  Uiso   1.00
Br132  Br    0.50132   0.25910   0.37484   0.00000  Uiso   1.00
C133   C     0.83373   0.24667   0.24860   0.00000  Uiso   1.00
C134   C     0.81078   0.16855   0.49206   0.00000  Uiso   1.00
C135   C     0.81618   0.18472   0.44060   0.00000  Uiso   1.00
C136   C     0.84783   0.17641   0.01358   0.00000  Uiso   1.00
C137   C     0.88785   0.20232   0.48528   0.00000  Uiso   1.00
C138   C     0.88573   0.22575   0.44075   0.00000  Uiso   1.00
C139   C     0.84894   0.21764   0.41976   0.00000  Uiso   1.00
C140   C     0.84585   0.15922   0.06288   0.00000  Uiso   1.00
C141   C     0.91986   0.19355   0.05876   0.00000  Uiso   1.00
C142   C     0.78774   0.16810   0.41200   0.00000  Uiso   1.00
C143   C     0.87762   0.31191   0.23663   0.00000  Uiso   1.00
C144   C     0.80623   0.16768   0.35243   0.00000  Uiso   1.00
C145   C     0.87748   0.02122   0.23735   0.00000  Uiso   1.00
C146   C     0.83365   0.04246   0.24882   0.00000  Uiso   1.00
C147   C     0.79006   0.02134   0.25909   0.00000  Uiso   1.00
C148   C     0.79019   0.31207   0.25837   0.00000  Uiso   1.00
C149   C     0.83392   0.29082   0.24749   0.00000  Uiso   1.00
C150   C     0.96846   0.13532   0.27427   0.00000  Uiso   1.00
C151   C     0.68304   0.13537   0.27435   0.00000  Uiso   1.00
C152   C     0.69813   0.19808   0.22596   0.00000  Uiso   1.00
C153   C     0.98348   0.19813   0.22615   0.00000  Uiso   1.00
C154   C     0.83340   0.08662   0.24977   0.00000  Uiso   1.00
C155   C     0.86043   0.16699   0.14749   0.00000  Uiso   1.00
C156   C     0.92676   0.20611   0.00516   0.00000  Uiso   1.00
C157   C     0.87755   0.17183   0.08831   0.00000  Uiso   1.00
C158   C     0.74662   0.14456   0.43944   0.00000  Uiso   1.00
C159   C     0.73595   0.13480   0.49386   0.00000  Uiso   1.00
C160   C     0.76829   0.14538   0.01969   0.00000  Uiso   1.00
H161   H     0.91148   0.03742   0.22884   0.00000  Uiso   1.00
H162   H     0.75592   0.03761   0.26820   0.00000  Uiso   1.00
H163   H     0.75613   0.29592   0.26710   0.00000  Uiso   1.00
H164   H     0.94426   0.11028   0.29376   0.00000  Uiso   1.00
H165   H     0.69505   0.11038   0.29391   0.00000  Uiso   1.00
H166   H     0.72226   0.22321   0.20664   0.00000  Uiso   1.00
H167   H     0.97122   0.22342   0.20743   0.00000  Uiso   1.00
H168   H     0.81758   0.13811   0.08491   0.00000  Uiso   1.00
H169   H     0.72388   0.13230   0.41824   0.00000  Uiso   1.00
H170   H     0.75842   0.13548   0.06132   0.00000  Uiso   1.00
H171   H     0.70387   0.11696   0.01527   0.00000  Uiso   1.00
H172   H     0.91168   0.29558   0.22776   0.00000  Uiso   1.00
N173   N     0.71426   0.16668   0.25002   0.00000  Uiso   1.00
N174   N     0.95239   0.16665   0.25001   0.00000  Uiso   1.00
O175   O     0.79512   0.22775   0.25001   0.00000  Uiso   1.00
O176   O     0.87157   0.22774   0.25001   0.00000  Uiso   1.00
O177   O     0.77613   0.16666   0.32681   0.00000  Uiso   1.00
O178   O     0.85258   0.16665   0.32681   0.00000  Uiso   1.00
O179   O     0.79510   0.10559   0.25000   0.00000  Uiso   1.00
O180   O     0.87154   0.10558   0.25000   0.00000  Uiso   1.00
O181   O     0.81409   0.16668   0.17319   0.00000  Uiso   1.00
O182   O     0.89053   0.16667   0.17319   0.00000  Uiso   1.00
Zn183  Zn    0.78229   0.16667   0.25000   0.00000  Uiso   1.00
Zn184  Zn    0.88438   0.16666   0.25000   0.00000  Uiso   1.00
N185   N     0.95372   0.20479   0.08390   0.00000  Uiso   1.00
H186   H     0.98908   0.19728   0.06114   0.00000  Uiso   1.00
C187   C     0.94826   0.24709   0.10476   0.00000  Uiso   1.00
H188   H     0.91154   0.25180   0.13566   0.00000  Uiso   1.00
H189   H     0.95400   0.26962   0.07119   0.00000  Uiso   1.00
H190   H     0.97542   0.25336   0.12418   0.00000  Uiso   1.00
N191   N     0.91722   0.26015   0.42062   0.00000  Uiso   1.00
H192   H     0.92689   0.26532   0.37938   0.00000  Uiso   1.00
C193   C     0.90365   0.29776   0.45341   0.00000  Uiso   1.00
H194   H     0.93174   0.32187   0.43648   0.00000  Uiso   1.00
H195   H     0.90073   0.29174   0.49613   0.00000  Uiso   1.00
H196   H     0.86848   0.30982   0.45315   0.00000  Uiso   1.00
Br197  Br    0.99009   0.22607   0.46042   0.00000  Uiso   1.00
Br198  Br    0.83465   0.25910   0.37484   0.00000  Uiso   1.00
C199   C     0.16707   0.58000   0.24860   0.00000  Uiso   1.00
C200   C     0.14411   0.50188   0.49206   0.00000  Uiso   1.00
C201   C     0.14951   0.51806   0.44060   0.00000  Uiso   1.00
C202   C     0.18116   0.50974   0.01358   0.00000  Uiso   1.00
C203   C     0.22119   0.53565   0.48528   0.00000  Uiso   1.00
C204   C     0.21906   0.55908   0.44075   0.00000  Uiso   1.00
C205   C     0.18227   0.55097   0.41976   0.00000  Uiso   1.00
C206   C     0.17918   0.49256   0.06288   0.00000  Uiso   1.00
C207   C     0.25319   0.52688   0.05876   0.00000  Uiso   1.00
C208   C     0.12108   0.50143   0.41200   0.00000  Uiso   1.00
C209   C     0.21095   0.64524   0.23663   0.00000  Uiso   1.00
C210   C     0.13956   0.50101   0.35243   0.00000  Uiso   1.00
C211   C     0.21081   0.35455   0.23735   0.00000  Uiso   1.00
C212   C     0.16699   0.37579   0.24882   0.00000  Uiso   1.00
C213   C     0.12339   0.35468   0.25909   0.00000  Uiso   1.00
C214   C     0.12353   0.64540   0.25837   0.00000  Uiso   1.00
C215   C     0.16726   0.62415   0.24749   0.00000  Uiso   1.00
C216   C     0.30179   0.46866   0.27427   0.00000  Uiso   1.00
C217   C     0.01637   0.46871   0.27435   0.00000  Uiso   1.00
C218   C     0.03147   0.53142   0.22596   0.00000  Uiso   1.00
C219   C     0.31681   0.53146   0.22615   0.00000  Uiso   1.00
C220   C     0.16673   0.41995   0.24977   0.00000  Uiso   1.00
C221   C     0.19376   0.50033   0.14749   0.00000  Uiso   1.00
C222   C     0.26010   0.53944   0.00516   0.00000  Uiso   1.00
C223   C     0.21088   0.50516   0.08831   0.00000  Uiso   1.00
C224   C     0.07995   0.47789   0.43944   0.00000  Uiso   1.00
C225   C     0.06928   0.46814   0.49386   0.00000  Uiso   1.00
C226   C     0.10163   0.47872   0.01969   0.00000  Uiso   1.00
H227   H     0.24481   0.37076   0.22884   0.00000  Uiso   1.00
H228   H     0.08925   0.37094   0.26820   0.00000  Uiso   1.00
H229   H     0.08946   0.62925   0.26710   0.00000  Uiso   1.00
H230   H     0.27759   0.44361   0.29376   0.00000  Uiso   1.00
H231   H     0.02839   0.44371   0.29391   0.00000  Uiso   1.00
H232   H     0.05559   0.55655   0.20664   0.00000  Uiso   1.00
H233   H     0.30455   0.55675   0.20743   0.00000  Uiso   1.00
H234   H     0.15091   0.47144   0.08491   0.00000  Uiso   1.00
H235   H     0.05722   0.46564   0.41824   0.00000  Uiso   1.00
H236   H     0.09175   0.46882   0.06132   0.00000  Uiso   1.00
H237   H     0.03721   0.45030   0.01527   0.00000  Uiso   1.00
H238   H     0.24502   0.62891   0.22776   0.00000  Uiso   1.00
N239   N     0.04760   0.50001   0.25002   0.00000  Uiso   1.00
N240   N     0.28573   0.49998   0.25001   0.00000  Uiso   1.00
O241   O     0.12846   0.56108   0.25001   0.00000  Uiso   1.00
O242   O     0.20490   0.56107   0.25001   0.00000  Uiso   1.00
O243   O     0.10947   0.50000   0.32681   0.00000  Uiso   1.00
O244   O     0.18591   0.49999   0.32681   0.00000  Uiso   1.00
O245   O     0.12843   0.43893   0.25000   0.00000  Uiso   1.00
O246   O     0.20488   0.43892   0.25000   0.00000  Uiso   1.00
O247   O     0.14742   0.50001   0.17319   0.00000  Uiso   1.00
O248   O     0.22387   0.50000   0.17319   0.00000  Uiso   1.00
Zn249  Zn    0.11562   0.50001   0.25000   0.00000  Uiso   1.00
Zn250  Zn    0.21771   0.49999   0.25000   0.00000  Uiso   1.00
N251   N     0.28705   0.53813   0.08390   0.00000  Uiso   1.00
H252   H     0.32241   0.53061   0.06114   0.00000  Uiso   1.00
C253   C     0.28159   0.58042   0.10476   0.00000  Uiso   1.00
H254   H     0.24487   0.58513   0.13566   0.00000  Uiso   1.00
H255   H     0.28733   0.60296   0.07119   0.00000  Uiso   1.00
H256   H     0.30875   0.58669   0.12418   0.00000  Uiso   1.00
N257   N     0.25056   0.59348   0.42062   0.00000  Uiso   1.00
H258   H     0.26022   0.59865   0.37938   0.00000  Uiso   1.00
C259   C     0.23698   0.63110   0.45341   0.00000  Uiso   1.00
H260   H     0.26508   0.65520   0.43648   0.00000  Uiso   1.00
H261   H     0.23407   0.62508   0.49613   0.00000  Uiso   1.00
H262   H     0.20182   0.64315   0.45315   0.00000  Uiso   1.00
Br263  Br    0.32343   0.55940   0.46042   0.00000  Uiso   1.00
Br264  Br    0.16798   0.59243   0.37484   0.00000  Uiso   1.00
C265   C     0.50040   0.58000   0.24860   0.00000  Uiso   1.00
C266   C     0.47745   0.50188   0.49206   0.00000  Uiso   1.00
C267   C     0.48285   0.51806   0.44060   0.00000  Uiso   1.00
C268   C     0.51449   0.50974   0.01358   0.00000  Uiso   1.00
C269   C     0.55452   0.53565   0.48528   0.00000  Uiso   1.00
C270   C     0.55240   0.55908   0.44075   0.00000  Uiso   1.00
C271   C     0.51561   0.55097   0.41976   0.00000  Uiso   1.00
C272   C     0.51252   0.49256   0.06288   0.00000  Uiso   1.00
C273   C     0.58653   0.52688   0.05876   0.00000  Uiso   1.00
C274   C     0.45441   0.50143   0.41200   0.00000  Uiso   1.00
C275   C     0.54428   0.64524   0.23663   0.00000  Uiso   1.00
C276   C     0.47289   0.50101   0.35243   0.00000  Uiso   1.00
C277   C     0.54414   0.35455   0.23735   0.00000  Uiso   1.00
C278   C     0.50032   0.37579   0.24882   0.00000  Uiso   1.00
C279   C     0.45672   0.35468   0.25909   0.00000  Uiso   1.00
C280   C     0.45686   0.64540   0.25837   0.00000  Uiso   1.00
C281   C     0.50059   0.62415   0.24749   0.00000  Uiso   1.00
C282   C     0.63512   0.46866   0.27427   0.00000  Uiso   1.00
C283   C     0.34971   0.46871   0.27435   0.00000  Uiso   1.00
C284   C     0.36480   0.53142   0.22596   0.00000  Uiso   1.00
C285   C     0.65015   0.53146   0.22615   0.00000  Uiso   1.00
C286   C     0.50006   0.41995   0.24977   0.00000  Uiso   1.00
C287   C     0.52709   0.50033   0.14749   0.00000  Uiso   1.00
C288   C     0.59343   0.53944   0.00516   0.00000  Uiso   1.00
C289   C     0.54421   0.50516   0.08831   0.00000  Uiso   1.00
C290   C     0.41328   0.47789   0.43944   0.00000  Uiso   1.00
C291   C     0.40261   0.46814   0.49386   0.00000  Uiso   1.00
C292   C     0.43496   0.47872   0.01969   0.00000  Uiso   1.00
H293   H     0.57815   0.37076   0.22884   0.00000  Uiso   1.00
H294   H     0.42258   0.37094   0.26820   0.00000  Uiso   1.00
H295   H     0.42280   0.62925   0.26710   0.00000  Uiso   1.00
H296   H     0.61093   0.44361   0.29376   0.00000  Uiso   1.00
H297   H     0.36172   0.44371   0.29391   0.00000  Uiso   1.00
H298   H     0.38892   0.55655   0.20664   0.00000  Uiso   1.00
H299   H     0.63788   0.55675   0.20743   0.00000  Uiso   1.00
H300   H     0.48424   0.47144   0.08491   0.00000  Uiso   1.00
H301   H     0.39055   0.46564   0.41824   0.00000  Uiso   1.00
H302   H     0.42508   0.46882   0.06132   0.00000  Uiso   1.00
H303   H     0.37054   0.45030   0.01527   0.00000  Uiso   1.00
H304   H     0.57835   0.62891   0.22776   0.00000  Uiso   1.00
N305   N     0.38093   0.50001   0.25002   0.00000  Uiso   1.00
N306   N     0.61906   0.49998   0.25001   0.00000  Uiso   1.00
O307   O     0.46179   0.56108   0.25001   0.00000  Uiso   1.00
O308   O     0.53823   0.56107   0.25001   0.00000  Uiso   1.00
O309   O     0.44280   0.50000   0.32681   0.00000  Uiso   1.00
O310   O     0.51924   0.49999   0.32681   0.00000  Uiso   1.00
O311   O     0.46177   0.43893   0.25000   0.00000  Uiso   1.00
O312   O     0.53821   0.43892   0.25000   0.00000  Uiso   1.00
O313   O     0.48076   0.50001   0.17319   0.00000  Uiso   1.00
O314   O     0.55720   0.50000   0.17319   0.00000  Uiso   1.00
Zn315  Zn    0.44896   0.50001   0.25000   0.00000  Uiso   1.00
Zn316  Zn    0.55104   0.49999   0.25000   0.00000  Uiso   1.00
N317   N     0.62039   0.53813   0.08390   0.00000  Uiso   1.00
H318   H     0.65574   0.53061   0.06114   0.00000  Uiso   1.00
C319   C     0.61492   0.58042   0.10476   0.00000  Uiso   1.00
H320   H     0.57820   0.58513   0.13566   0.00000  Uiso   1.00
H321   H     0.62066   0.60296   0.07119   0.00000  Uiso   1.00
H322   H     0.64208   0.58669   0.12418   0.00000  Uiso   1.00
N323   N     0.58389   0.59348   0.42062   0.00000  Uiso   1.00
H324   H     0.59355   0.59865   0.37938   0.00000  Uiso   1.00
C325   C     0.57031   0.63110   0.45341   0.00000  Uiso   1.00
H326   H     0.59841   0.65520   0.43648   0.00000  Uiso   1.00
H327   H     0.56740   0.62508   0.49613   0.00000  Uiso   1.00
H328   H     0.53515   0.64315   0.45315   0.00000  Uiso   1.00
Br329  Br    0.65676   0.55940   0.46042   0.00000  Uiso   1.00
Br330  Br    0.50132   0.59243   0.37484   0.00000  Uiso   1.00
C331   C     0.83373   0.58000   0.24860   0.00000  Uiso   1.00
C332   C     0.81078   0.50188   0.49206   0.00000  Uiso   1.00
C333   C     0.81618   0.51806   0.44060   0.00000  Uiso   1.00
C334   C     0.84783   0.50974   0.01358   0.00000  Uiso   1.00
C335   C     0.88785   0.53565   0.48528   0.00000  Uiso   1.00
C336   C     0.88573   0.55908   0.44075   0.00000  Uiso   1.00
C337   C     0.84894   0.55097   0.41976   0.00000  Uiso   1.00
C338   C     0.84585   0.49256   0.06288   0.00000  Uiso   1.00
C339   C     0.91986   0.52688   0.05876   0.00000  Uiso   1.00
C340   C     0.78774   0.50143   0.41200   0.00000  Uiso   1.00
C341   C     0.87762   0.64524   0.23663   0.00000  Uiso   1.00
C342   C     0.80623   0.50101   0.35243   0.00000  Uiso   1.00
C343   C     0.87748   0.35455   0.23735   0.00000  Uiso   1.00
C344   C     0.83365   0.37579   0.24882   0.00000  Uiso   1.00
C345   C     0.79006   0.35468   0.25909   0.00000  Uiso   1.00
C346   C     0.79019   0.64540   0.25837   0.00000  Uiso   1.00
C347   C     0.83392   0.62415   0.24749   0.00000  Uiso   1.00
C348   C     0.96846   0.46866   0.27427   0.00000  Uiso   1.00
C349   C     0.68304   0.46871   0.27435   0.00000  Uiso   1.00
C350   C     0.69813   0.53142   0.22596   0.00000  Uiso   1.00
C351   C     0.98348   0.53146   0.22615   0.00000  Uiso   1.00
C352   C     0.83340   0.41995   0.24977   0.00000  Uiso   1.00
C353   C     0.86043   0.50033   0.14749   0.00000  Uiso   1.00
C354   C     0.92676   0.53944   0.00516   0.00000  Uiso   1.00
C355   C     0.87755   0.50516   0.08831   0.00000  Uiso   1.00
C356   C     0.74662   0.47789   0.43944   0.00000  Uiso   1.00
C357   C     0.73595   0.46814   0.49386   0.00000  Uiso   1.00
C358   C     0.76829   0.47872   0.01969   0.00000  Uiso   1.00
H359   H     0.91148   0.37076   0.22884   0.00000  Uiso   1.00
H360   H     0.75592   0.37094   0.26820   0.00000  Uiso   1.00
H361   H     0.75613   0.62925   0.26710   0.00000  Uiso   1.00
H362   H     0.94426   0.44361   0.29376   0.00000  Uiso   1.00
H363   H     0.69505   0.44371   0.29391   0.00000  Uiso   1.00
H364   H     0.72226   0.55655   0.20664   0.00000  Uiso   1.00
H365   H     0.97122   0.55675   0.20743   0.00000  Uiso   1.00
H366   H     0.81758   0.47144   0.08491   0.00000  Uiso   1.00
H367   H     0.72388   0.46564   0.41824   0.00000  Uiso   1.00
H368   H     0.75842   0.46882   0.06132   0.00000  Uiso   1.00
H369   H     0.70387   0.45030   0.01527   0.00000  Uiso   1.00
H370   H     0.91168   0.62891   0.22776   0.00000  Uiso   1.00
N371   N     0.71426   0.50001   0.25002   0.00000  Uiso   1.00
N372   N     0.95239   0.49998   0.25001   0.00000  Uiso   1.00
O373   O     0.79512   0.56108   0.25001   0.00000  Uiso   1.00
O374   O     0.87157   0.56107   0.25001   0.00000  Uiso   1.00
O375   O     0.77613   0.50000   0.32681   0.00000  Uiso   1.00
O376   O     0.85258   0.49999   0.32681   0.00000  Uiso   1.00
O377   O     0.79510   0.43893   0.25000   0.00000  Uiso   1.00
O378   O     0.87154   0.43892   0.25000   0.00000  Uiso   1.00
O379   O     0.81409   0.50001   0.17319   0.00000  Uiso   1.00
O380   O     0.89053   0.50000   0.17319   0.00000  Uiso   1.00
Zn381  Zn    0.78229   0.50001   0.25000   0.00000  Uiso   1.00
Zn382  Zn    0.88438   0.49999   0.25000   0.00000  Uiso   1.00
N383   N     0.95372   0.53813   0.08390   0.00000  Uiso   1.00
H384   H     0.98908   0.53061   0.06114   0.00000  Uiso   1.00
C385   C     0.94826   0.58042   0.10476   0.00000  Uiso   1.00
H386   H     0.91154   0.58513   0.13566   0.00000  Uiso   1.00
H387   H     0.95400   0.60296   0.07119   0.00000  Uiso   1.00
H388   H     0.97542   0.58669   0.12418   0.00000  Uiso   1.00
N389   N     0.91722   0.59348   0.42062   0.00000  Uiso   1.00
H390   H     0.92689   0.59865   0.37938   0.00000  Uiso   1.00
C391   C     0.90365   0.63110   0.45341   0.00000  Uiso   1.00
H392   H     0.93174   0.65520   0.43648   0.00000  Uiso   1.00
H393   H     0.90073   0.62508   0.49613   0.00000  Uiso   1.00
H394   H     0.86848   0.64315   0.45315   0.00000  Uiso   1.00
Br395  Br    0.99009   0.55940   0.46042   0.00000  Uiso   1.00
Br396  Br    0.83465   0.59243   0.37484   0.00000  Uiso   1.00
C397   C     0.16707   0.91334   0.24860   0.00000  Uiso   1.00
C398   C     0.14411   0.83521   0.49206   0.00000  Uiso   1.00
C399   C     0.14951   0.85139   0.44060   0.00000  Uiso   1.00
C400   C     0.18116   0.84308   0.01358   0.00000  Uiso   1.00
C401   C     0.22119   0.86899   0.48528   0.00000  Uiso   1.00
C402   C     0.21906   0.89241   0.44075   0.00000  Uiso   1.00
C403   C     0.18227   0.88430   0.41976   0.00000  Uiso   1.00
C404   C     0.17918   0.82589   0.06288   0.00000  Uiso   1.00
C405   C     0.25319   0.86021   0.05876   0.00000  Uiso   1.00
C406   C     0.12108   0.83476   0.41200   0.00000  Uiso   1.00
C407   C     0.21095   0.97858   0.23663   0.00000  Uiso   1.00
C408   C     0.13956   0.83434   0.35243   0.00000  Uiso   1.00
C409   C     0.21081   0.68789   0.23735   0.00000  Uiso   1.00
C410   C     0.16699   0.70913   0.24882   0.00000  Uiso   1.00
C411   C     0.12339   0.68801   0.25909   0.00000  Uiso   1.00
C412   C     0.12353   0.97874   0.25837   0.00000  Uiso   1.00
C413   C     0.16726   0.95749   0.24749   0.00000  Uiso   1.00
C414   C     0.30179   0.80199   0.27427   0.00000  Uiso   1.00
C415   C     0.01637   0.80204   0.27435   0.00000  Uiso   1.00
C416   C     0.03147   0.86475   0.22596   0.00000  Uiso   1.00
C417   C     0.31681   0.86479   0.22615   0.00000  Uiso   1.00
C418   C     0.16673   0.75329   0.24977   0.00000  Uiso   1.00
C419   C     0.19376   0.83366   0.14749   0.00000  Uiso   1.00
C420   C     0.26010   0.87277   0.00516   0.00000  Uiso   1.00
C421   C     0.21088   0.83849   0.08831   0.00000  Uiso   1.00
C422   C     0.07995   0.81122   0.43944   0.00000  Uiso   1.00
C423   C     0.06928   0.80147   0.49386   0.00000  Uiso   1.00
C424   C     0.10163   0.81205   0.01969   0.00000  Uiso   1.00
H425   H     0.24481   0.70409   0.22884   0.00000  Uiso   1.00
H426   H     0.08925   0.70427   0.26820   0.00000  Uiso   1.00
H427   H     0.08946   0.96259   0.26710   0.00000  Uiso   1.00
H428   H     0.27759   0.77695   0.29376   0.00000  Uiso   1.00
H429   H     0.02839   0.77705   0.29391   0.00000  Uiso   1.00
H430   H     0.05559   0.88988   0.20664   0.00000  Uiso   1.00
H431   H     0.30455   0.89008   0.20743   0.00000  Uiso   1.00
H432   H     0.15091   0.80478   0.08491   0.00000  Uiso   1.00
H433   H     0.05722   0.79897   0.41824   0.00000  Uiso   1.00
H434   H     0.09175   0.80215   0.06132   0.00000  Uiso   1.00
H435   H     0.03721   0.78363   0.01527   0.00000  Uiso   1.00
H436   H     0.24502   0.96224   0.22776   0.00000  Uiso   1.00
N437   N     0.04760   0.83334   0.25002   0.00000  Uiso   1.00
N438   N     0.28573   0.83331   0.25001   0.00000  Uiso   1.00
O439   O     0.12846   0.89442   0.25001   0.00000  Uiso   1.00
O440   O     0.20490   0.89441   0.25001   0.00000  Uiso   1.00
O441   O     0.10947   0.83333   0.32681   0.00000  Uiso   1.00
O442   O     0.18591   0.83332   0.32681   0.00000  Uiso   1.00
O443   O     0.12843   0.77226   0.25000   0.00000  Uiso   1.00
O444   O     0.20488   0.77225   0.25000   0.00000  Uiso   1.00
O445   O     0.14742   0.83335   0.17319   0.00000  Uiso   1.00
O446   O     0.22387   0.83334   0.17319   0.00000  Uiso   1.00
Zn447  Zn    0.11562   0.83334   0.25000   0.00000  Uiso   1.00
Zn448  Zn    0.21771   0.83333   0.25000   0.00000  Uiso   1.00
N449   N     0.28705   0.87146   0.08390   0.00000  Uiso   1.00
H450   H     0.32241   0.86395   0.06114   0.00000  Uiso   1.00
C451   C     0.28159   0.91375   0.10476   0.00000  Uiso   1.00
H452   H     0.24487   0.91847   0.13566   0.00000  Uiso   1.00
H453   H     0.28733   0.93629   0.07119   0.00000  Uiso   1.00
H454   H     0.30875   0.92003   0.12418   0.00000  Uiso   1.00
N455   N     0.25056   0.92681   0.42062   0.00000  Uiso   1.00
H456   H     0.26022   0.93199   0.37938   0.00000  Uiso   1.00
C457   C     0.23698   0.96443   0.45341   0.00000  Uiso   1.00
H458   H     0.26508   0.98853   0.43648   0.00000  Uiso   1.00
H459   H     0.23407   0.95841   0.49613   0.00000  Uiso   1.00
H460   H     0.20182   0.97648   0.45315   0.00000  Uiso   1.00
Br461  Br    0.32343   0.89274   0.46042   0.00000  Uiso   1.00
Br462  Br    0.16798   0.92577   0.37484   0.00000  Uiso   1.00
C463   C     0.50040   0.91334   0.24860   0.00000  Uiso   1.00
C464   C     0.47745   0.83521   0.49206   0.00000  Uiso   1.00
C465   C     0.48285   0.85139   0.44060   0.00000  Uiso   1.00
C466   C     0.51449   0.84308   0.01358   0.00000  Uiso   1.00
C467   C     0.55452   0.86899   0.48528   0.00000  Uiso   1.00
C468   C     0.55240   0.89241   0.44075   0.00000  Uiso   1.00
C469   C     0.51561   0.88430   0.41976   0.00000  Uiso   1.00
C470   C     0.51252   0.82589   0.06288   0.00000  Uiso   1.00
C471   C     0.58653   0.86021   0.05876   0.00000  Uiso   1.00
C472   C     0.45441   0.83476   0.41200   0.00000  Uiso   1.00
C473   C     0.54428   0.97858   0.23663   0.00000  Uiso   1.00
C474   C     0.47289   0.83434   0.35243   0.00000  Uiso   1.00
C475   C     0.54414   0.68789   0.23735   0.00000  Uiso   1.00
C476   C     0.50032   0.70913   0.24882   0.00000  Uiso   1.00
C477   C     0.45672   0.68801   0.25909   0.00000  Uiso   1.00
C478   C     0.45686   0.97874   0.25837   0.00000  Uiso   1.00
C479   C     0.50059   0.95749   0.24749   0.00000  Uiso   1.00
C480   C     0.63512   0.80199   0.27427   0.00000  Uiso   1.00
C481   C     0.34971   0.80204   0.27435   0.00000  Uiso   1.00
C482   C     0.36480   0.86475   0.22596   0.00000  Uiso   1.00
C483   C     0.65015   0.86479   0.22615   0.00000  Uiso   1.00
C484   C     0.50006   0.75329   0.24977   0.00000  Uiso   1.00
C485   C     0.52709   0.83366   0.14749   0.00000  Uiso   1.00
C486   C     0.59343   0.87277   0.00516   0.00000  Uiso   1.00
C487   C     0.54421   0.83849   0.08831   0.00000  Uiso   1.00
C488   C     0.41328   0.81122   0.43944   0.00000  Uiso   1.00
C489   C     0.40261   0.80147   0.49386   0.00000  Uiso   1.00
C490   C     0.43496   0.81205   0.01969   0.00000  Uiso   1.00
H491   H     0.57815   0.70409   0.22884   0.00000  Uiso   1.00
H492   H     0.42258   0.70427   0.26820   0.00000  Uiso   1.00
H493   H     0.42280   0.96259   0.26710   0.00000  Uiso   1.00
H494   H     0.61093   0.77695   0.29376   0.00000  Uiso   1.00
H495   H     0.36172   0.77705   0.29391   0.00000  Uiso   1.00
H496   H     0.38892   0.88988   0.20664   0.00000  Uiso   1.00
H497   H     0.63788   0.89008   0.20743   0.00000  Uiso   1.00
H498   H     0.48424   0.80478   0.08491   0.00000  Uiso   1.00
H499   H     0.39055   0.79897   0.41824   0.00000  Uiso   1.00
H500   H     0.42508   0.80215   0.06132   0.00000  Uiso   1.00
H501   H     0.37054   0.78363   0.01527   0.00000  Uiso   1.00
H502   H     0.57835   0.96224   0.22776   0.00000  Uiso   1.00
N503   N     0.38093   0.83334   0.25002   0.00000  Uiso   1.00
N504   N     0.61906   0.83331   0.25001   0.00000  Uiso   1.00
O505   O     0.46179   0.89442   0.25001   0.00000  Uiso   1.00
O506   O     0.53823   0.89441   0.25001   0.00000  Uiso   1.00
O507   O     0.44280   0.83333   0.32681   0.00000  Uiso   1.00
O508   O     0.51924   0.83332   0.32681   0.00000  Uiso   1.00
O509   O     0.46177   0.77226   0.25000   0.00000  Uiso   1.00
O510   O     0.53821   0.77225   0.25000   0.00000  Uiso   1.00
O511   O     0.48076   0.83335   0.17319   0.00000  Uiso   1.00
O512   O     0.55720   0.83334   0.17319   0.00000  Uiso   1.00
Zn513  Zn    0.44896   0.83334   0.25000   0.00000  Uiso   1.00
Zn514  Zn    0.55104   0.83333   0.25000   0.00000  Uiso   1.00
N515   N     0.62039   0.87146   0.08390   0.00000  Uiso   1.00
H516   H     0.65574   0.86395   0.06114   0.00000  Uiso   1.00
C517   C     0.61492   0.91375   0.10476   0.00000  Uiso   1.00
H518   H     0.57820   0.91847   0.13566   0.00000  Uiso   1.00
H519   H     0.62066   0.93629   0.07119   0.00000  Uiso   1.00
H520   H     0.64208   0.92003   0.12418   0.00000  Uiso   1.00
N521   N     0.58389   0.92681   0.42062   0.00000  Uiso   1.00
H522   H     0.59355   0.93199   0.37938   0.00000  Uiso   1.00
C523   C     0.57031   0.96443   0.45341   0.00000  Uiso   1.00
H524   H     0.59841   0.98853   0.43648   0.00000  Uiso   1.00
H525   H     0.56740   0.95841   0.49613   0.00000  Uiso   1.00
H526   H     0.53515   0.97648   0.45315   0.00000  Uiso   1.00
Br527  Br    0.65676   0.89274   0.46042   0.00000  Uiso   1.00
Br528  Br    0.50132   0.92577   0.37484   0.00000  Uiso   1.00
C529   C     0.83373   0.91334   0.24860   0.00000  Uiso   1.00
C530   C     0.81078   0.83521   0.49206   0.00000  Uiso   1.00
C531   C     0.81618   0.85139   0.44060   0.00000  Uiso   1.00
C532   C     0.84783   0.84308   0.01358   0.00000  Uiso   1.00
C533   C     0.88785   0.86899   0.48528   0.00000  Uiso   1.00
C534   C     0.88573   0.89241   0.44075   0.00000  Uiso   1.00
C535   C     0.84894   0.88430   0.41976   0.00000  Uiso   1.00
C536   C     0.84585   0.82589   0.06288   0.00000  Uiso   1.00
C537   C     0.91986   0.86021   0.05876   0.00000  Uiso   1.00
C538   C     0.78774   0.83476   0.41200   0.00000  Uiso   1.00
C539   C     0.87762   0.97858   0.23663   0.00000  Uiso   1.00
C540   C     0.80623   0.83434   0.35243   0.00000  Uiso   1.00
C541   C     0.87748   0.68789   0.23735   0.00000  Uiso   1.00
C542   C     0.83365   0.70913   0.24882   0.00000  Uiso   1.00
C543   C     0.79006   0.68801   0.25909   0.00000  Uiso   1.00
C544   C     0.79019   0.97874   0.25837   0.00000  Uiso   1.00
C545   C     0.83392   0.95749   0.24749   0.00000  Uiso   1.00
C546   C     0.96846   0.80199   0.27427   0.00000  Uiso   1.00
C547   C     0.68304   0.80204   0.27435   0.00000  Uiso   1.00
C548   C     0.69813   0.86475   0.22596   0.00000  Uiso   1.00
C549   C     0.98348   0.86479   0.22615   0.00000  Uiso   1.00
C550   C     0.83340   0.75329   0.24977   0.00000  Uiso   1.00
C551   C     0.86043   0.83366   0.14749   0.00000  Uiso   1.00
C552   C     0.92676   0.87277   0.00516   0.00000  Uiso   1.00
C553   C     0.87755   0.83849   0.08831   0.00000  Uiso   1.00
C554   C     0.74662   0.81122   0.43944   0.00000  Uiso   1.00
C555   C     0.73595   0.80147   0.49386   0.00000  Uiso   1.00
C556   C     0.76829   0.81205   0.01969   0.00000  Uiso   1.00
H557   H     0.91148   0.70409   0.22884   0.00000  Uiso   1.00
H558   H     0.75592   0.70427   0.26820   0.00000  Uiso   1.00
H559   H     0.75613   0.96259   0.26710   0.00000  Uiso   1.00
H560   H     0.94426   0.77695   0.29376   0.00000  Uiso   1.00
H561   H     0.69505   0.77705   0.29391   0.00000  Uiso   1.00
H562   H     0.72226   0.88988   0.20664   0.00000  Uiso   1.00
H563   H     0.97122   0.89008   0.20743   0.00000  Uiso   1.00
H564   H     0.81758   0.80478   0.08491   0.00000  Uiso   1.00
H565   H     0.72388   0.79897   0.41824   0.00000  Uiso   1.00
H566   H     0.75842   0.80215   0.06132   0.00000  Uiso   1.00
H567   H     0.70387   0.78363   0.01527   0.00000  Uiso   1.00
H568   H     0.91168   0.96224   0.22776   0.00000  Uiso   1.00
N569   N     0.71426   0.83334   0.25002   0.00000  Uiso   1.00
N570   N     0.95239   0.83331   0.25001   0.00000  Uiso   1.00
O571   O     0.79512   0.89442   0.25001   0.00000  Uiso   1.00
O572   O     0.87157   0.89441   0.25001   0.00000  Uiso   1.00
O573   O     0.77613   0.83333   0.32681   0.00000  Uiso   1.00
O574   O     0.85258   0.83332   0.32681   0.00000  Uiso   1.00
O575   O     0.79510   0.77226   0.25000   0.00000  Uiso   1.00
O576   O     0.87154   0.77225   0.25000   0.00000  Uiso   1.00
O577   O     0.81409   0.83335   0.17319   0.00000  Uiso   1.00
O578   O     0.89053   0.83334   0.17319   0.00000  Uiso   1.00
Zn579  Zn    0.78229   0.83334   0.25000   0.00000  Uiso   1.00
Zn580  Zn    0.88438   0.83333   0.25000   0.00000  Uiso   1.00
N581   N     0.95372   0.87146   0.08390   0.00000  Uiso   1.00
H582   H     0.98908   0.86395   0.06114   0.00000  Uiso   1.00
C583   C     0.94826   0.91375   0.10476   0.00000  Uiso   1.00
H584   H     0.91154   0.91847   0.13566   0.00000  Uiso   1.00
H585   H     0.95400   0.93629   0.07119   0.00000  Uiso   1.00
H586   H     0.97542   0.92003   0.12418   0.00000  Uiso   1.00
N587   N     0.91722   0.92681   0.42062   0.00000  Uiso   1.00
H588   H     0.92689   0.93199   0.37938   0.00000  Uiso   1.00
C589   C     0.90365   0.96443   0.45341   0.00000  Uiso   1.00
H590   H     0.93174   0.98853   0.43648   0.00000  Uiso   1.00
H591   H     0.90073   0.95841   0.49613   0.00000  Uiso   1.00
H592   H     0.86848   0.97648   0.45315   0.00000  Uiso   1.00
Br593  Br    0.99009   0.89274   0.46042   0.00000  Uiso   1.00
Br594  Br    0.83465   0.92577   0.37484   0.00000  Uiso   1.00
C595   C     0.16707   0.24667   0.74860   0.00000  Uiso   1.00
C596   C     0.14411   0.16855   0.99206   0.00000  Uiso   1.00
C597   C     0.14951   0.18472   0.94060   0.00000  Uiso   1.00
C598   C     0.18116   0.17641   0.51358   0.00000  Uiso   1.00
C599   C     0.22119   0.20232   0.98528   0.00000  Uiso   1.00
C600   C     0.21906   0.22575   0.94075   0.00000  Uiso   1.00
C601   C     0.18227   0.21764   0.91976   0.00000  Uiso   1.00
C602   C     0.17918   0.15922   0.56288   0.00000  Uiso   1.00
C603   C     0.25319   0.19355   0.55876   0.00000  Uiso   1.00
C604   C     0.12108   0.16810   0.91200   0.00000  Uiso   1.00
C605   C     0.21095   0.31191   0.73663   0.00000  Uiso   1.00
C606   C     0.13956   0.16768   0.85243   0.00000  Uiso   1.00
C607   C     0.21081   0.02122   0.73735   0.00000  Uiso   1.00
C608   C     0.16699   0.04246   0.74882   0.00000  Uiso   1.00
C609   C     0.12339   0.02134   0.75909   0.00000  Uiso   1.00
C610   C     0.12353   0.31207   0.75837   0.00000  Uiso   1.00
C611   C     0.16726   0.29082   0.74749   0.00000  Uiso   1.00
C612   C     0.30179   0.13532   0.77427   0.00000  Uiso   1.00
C613   C     0.01637   0.13537   0.77435   0.00000  Uiso   1.00
C614   C     0.03147   0.19808   0.72596   0.00000  Uiso   1.00
C615   C     0.31681   0.19813   0.72615   0.00000  Uiso   1.00
C616   C     0.16673   0.08662   0.74977   0.00000  Uiso   1.00
C617   C     0.19376   0.16699   0.64749   0.00000  Uiso   1.00
C618   C     0.26010   0.20611   0.50516   0.00000  Uiso   1.00
C619   C     0.21088   0.17183   0.58831   0.00000  Uiso   1.00
C620   C     0.07995   0.14456   0.93944   0.00000  Uiso   1.00
C621   C     0.06928   0.13480   0.99386   0.00000  Uiso   1.00
C622   C     0.10163   0.14538   0.51969   0.00000  Uiso   1.00
H623   H     0.24481   0.03742   0.72884   0.00000  Uiso   1.00
H624   H     0.08925   0.03761   0.76820   0.00000  Uiso   1.00
H625   H     0.08946   0.29592   0.76710   0.00000  Uiso   1.00
H626   H     0.27759   0.11028   0.79376   0.00000  Uiso   1.00
H627   H     0.02839   0.11038   0.79391   0.00000  Uiso   1.00
H628   H     0.05559   0.22321   0.70664   0.00000  Uiso   1.00
H629   H     0.30455   0.22342   0.70743   0.00000  Uiso   1.00
H630   H     0.15091   0.13811   0.58491   0.00000  Uiso   1.00
H631   H     0.05722   0.13230   0.91824   0.00000  Uiso   1.00
H632   H     0.09175   0.13548   0.56132   0.00000  Uiso   1.00
H633   H     0.03721   0.11696   0.51527   0.00000  Uiso   1.00
H634   H     0.24502   0.29558   0.72776   0.00000  Uiso   1.00
N635   N     0.04760   0.16668   0.75002   0.00000  Uiso   1.00
N636   N     0.28573   0.16665   0.75001   0.00000  Uiso   1.00
O637   O     0.12846   0.22775   0.75001   0.00000  Uiso   1.00
O638   O     0.20490   0.22774   0.75001   0.00000  Uiso   1.00
O639   O     0.10947   0.16666   0.82681   0.00000  Uiso   1.00
O640   O     0.18591   0.16665   0.82681   0.00000  Uiso   1.00
O641   O     0.12843   0.10559   0.75000   0.00000  Uiso   1.00
O642   O     0.20488   0.10558   0.75000   0.00000  Uiso   1.00
O643   O     0.14742   0.16668   0.67319   0.00000  Uiso   1.00
O644   O     0.22387   0.16667   0.67319   0.00000  Uiso   1.00
Zn645  Zn    0.11562   0.16667   0.75000   0.00000  Uiso   1.00
Zn646  Zn    0.21771   0.16666   0.75000   0.00000  Uiso   1.00
N647   N     0.28705   0.20479   0.58390   0.00000  Uiso   1.00
H648   H     0.32241   0.19728   0.56114   0.00000  Uiso   1.00
C649   C     0.28159   0.24709   0.60476   0.00000  Uiso   1.00
H650   H     0.24487   0.25180   0.63566   0.00000  Uiso   1.00
H651   H     0.28733   0.26962   0.57119   0.00000  Uiso   1.00
H652   H     0.30875   0.25336   0.62418   0.00000  Uiso   1.00
N653   N     0.25056   0.26015   0.92062   0.00000  Uiso   1.00
H654   H     0.26022   0.26532   0.87938   0.00000  Uiso   1.00
C655   C     0.23698   0.29776   0.95341   0.00000  Uiso   1.00
H656   H     0.26508   0.32187   0.93648   0.00000  Uiso   1.00
H657   H     0.23407   0.29174   0.99613   0.00000  Uiso   1.00
H658   H     0.20182   0.30982   0.95315   0.00000  Uiso   1.00
Br659  Br    0.32343   0.22607   0.96042   0.00000  Uiso   1.00
Br660  Br    0.16798   0.25910   0.87484   0.00000  Uiso   1.00
C661   C     0.50040   0.24667   0.74860   0.00000  Uiso   1.00
C662   C     0.47745   0.16855   0.99206   0.00000  Uiso   1.00
C663   C     0.48285   0.18472   0.94060   0.00000  Uiso   1.00
C664   C     0.51449   0.17641   0.51358   0.00000  Uiso   1.00
C665   C     0.55452   0.20232   0.98528   0.00000  Uiso   1.00
C666   C     0.55240   0.22575   0.94075   0.00000  Uiso   1.00
C667   C     0.51561   0.21764   0.91976   0.00000  Uiso   1.00
C668   C     0.51252   0.15922   0.56288   0.00000  Uiso   1.00
C669   C     0.58653   0.19355   0.55876   0.00000  Uiso   1.00
C670   C     0.45441   0.16810   0.91200   0.00000  Uiso   1.00
C671   C     0.54428   0.31191   0.73663   0.00000  Uiso   1.00
C672   C     0.47289   0.16768   0.85243   0.00000  Uiso   1.00
C673   C     0.54414   0.02122   0.73735   0.00000  Uiso   1.00
C674   C     0.50032   0.04246   0.74882   0.00000  Uiso   1.00
C675   C     0.45672   0.02134   0.75909   0.00000  Uiso   1.00
C676   C     0.45686   0.31207   0.75837   0.00000  Uiso   1.00
C677   C     0.50059   0.29082   0.74749   0.00000  Uiso   1.00
C678   C     0.63512   0.13532   0.77427   0.00000  Uiso   1.00
C679   C     0.34971   0.13537   0.77435   0.00000  Uiso   1.00
C680   C     0.36480   0.19808   0.72596   0.00000  Uiso   1.00
C681   C     0.65015   0.19813   0.72615   0.00000  Uiso   1.00
C682   C     0.50006   0.08662   0.74977   0.00000  Uiso   1.00
C683   C     0.52709   0.16699   0.64749   0.00000  Uiso   1.00
C684   C     0.59343   0.20611   0.50516   0.00000  Uiso   1.00
C685   C     0.54421   0.17183   0.58831   0.00000  Uiso   1.00
C686   C     0.41328   0.14456   0.93944   0.00000  Uiso   1.00
C687   C     0.40261   0.13480   0.99386   0.00000  Uiso   1.00
C688   C     0.43496   0.14538   0.51969   0.00000  Uiso   1.00
H689   H     0.57815   0.03742   0.72884   0.00000  Uiso   1.00
H690   H     0.42258   0.03761   0.76820   0.00000  Uiso   1.00
H691   H     0.42280   0.29592   0.76710   0.00000  Uiso   1.00
H692   H     0.61093   0.11028   0.79376   0.00000  Uiso   1.00
H693   H     0.36172   0.11038   0.79391   0.00000  Uiso   1.00
H694   H     0.38892   0.22321   0.70664   0.00000  Uiso   1.00
H695   H     0.63788   0.22342   0.70743   0.00000  Uiso   1.00
H696   H     0.48424   0.13811   0.58491   0.00000  Uiso   1.00
H697   H     0.39055   0.13230   0.91824   0.00000  Uiso   1.00
H698   H     0.42508   0.13548   0.56132   0.00000  Uiso   1.00
H699   H     0.37054   0.11696   0.51527   0.00000  Uiso   1.00
H700   H     0.57835   0.29558   0.72776   0.00000  Uiso   1.00
N701   N     0.38093   0.16668   0.75002   0.00000  Uiso   1.00
N702   N     0.61906   0.16665   0.75001   0.00000  Uiso   1.00
O703   O     0.46179   0.22775   0.75001   0.00000  Uiso   1.00
O704   O     0.53823   0.22774   0.75001   0.00000  Uiso   1.00
O705   O     0.44280   0.16666   0.82681   0.00000  Uiso   1.00
O706   O     0.51924   0.16665   0.82681   0.00000  Uiso   1.00
O707   O     0.46177   0.10559   0.75000   0.00000  Uiso   1.00
O708   O     0.53821   0.10558   0.75000   0.00000  Uiso   1.00
O709   O     0.48076   0.16668   0.67319   0.00000  Uiso   1.00
O710   O     0.55720   0.16667   0.67319   0.00000  Uiso   1.00
Zn711  Zn    0.44896   0.16667   0.75000   0.00000  Uiso   1.00
Zn712  Zn    0.55104   0.16666   0.75000   0.00000  Uiso   1.00
N713   N     0.62039   0.20479   0.58390   0.00000  Uiso   1.00
H714   H     0.65574   0.19728   0.56114   0.00000  Uiso   1.00
C715   C     0.61492   0.24709   0.60476   0.00000  Uiso   1.00
H716   H     0.57820   0.25180   0.63566   0.00000  Uiso   1.00
H717   H     0.62066   0.26962   0.57119   0.00000  Uiso   1.00
H718   H     0.64208   0.25336   0.62418   0.00000  Uiso   1.00
N719   N     0.58389   0.26015   0.92062   0.00000  Uiso   1.00
H720   H     0.59355   0.26532   0.87938   0.00000  Uiso   1.00
C721   C     0.57031   0.29776   0.95341   0.00000  Uiso   1.00
H722   H     0.59841   0.32187   0.93648   0.00000  Uiso   1.00
H723   H     0.56740   0.29174   0.99613   0.00000  Uiso   1.00
H724   H     0.53515   0.30982   0.95315   0.00000  Uiso   1.00
Br725  Br    0.65676   0.22607   0.96042   0.00000  Uiso   1.00
Br726  Br    0.50132   0.25910   0.87484   0.00000  Uiso   1.00
C727   C     0.83373   0.24667   0.74860   0.00000  Uiso   1.00
C728   C     0.81078   0.16855   0.99206   0.00000  Uiso   1.00
C729   C     0.81618   0.18472   0.94060   0.00000  Uiso   1.00
C730   C     0.84783   0.17641   0.51358   0.00000  Uiso   1.00
C731   C     0.88785   0.20232   0.98528   0.00000  Uiso   1.00
C732   C     0.88573   0.22575   0.94075   0.00000  Uiso   1.00
C733   C     0.84894   0.21764   0.91976   0.00000  Uiso   1.00
C734   C     0.84585   0.15922   0.56288   0.00000  Uiso   1.00
C735   C     0.91986   0.19355   0.55876   0.00000  Uiso   1.00
C736   C     0.78774   0.16810   0.91200   0.00000  Uiso   1.00
C737   C     0.87762   0.31191   0.73663   0.00000  Uiso   1.00
C738   C     0.80623   0.16768   0.85243   0.00000  Uiso   1.00
C739   C     0.87748   0.02122   0.73735   0.00000  Uiso   1.00
C740   C     0.83365   0.04246   0.74882   0.00000  Uiso   1.00
C741   C     0.79006   0.02134   0.75909   0.00000  Uiso   1.00
C742   C     0.79019   0.31207   0.75837   0.00000  Uiso   1.00
C743   C     0.83392   0.29082   0.74749   0.00000  Uiso   1.00
C744   C     0.96846   0.13532   0.77427   0.00000  Uiso   1.00
C745   C     0.68304   0.13537   0.77435   0.00000  Uiso   1.00
C746   C     0.69813   0.19808   0.72596   0.00000  Uiso   1.00
C747   C     0.98348   0.19813   0.72615   0.00000  Uiso   1.00
C748   C     0.83340   0.08662   0.74977   0.00000  Uiso   1.00
C749   C     0.86043   0.16699   0.64749   0.00000  Uiso   1.00
C750   C     0.92676   0.20611   0.50516   0.00000  Uiso   1.00
C751   C     0.87755   0.17183   0.58831   0.00000  Uiso   1.00
C752   C     0.74662   0.14456   0.93944   0.00000  Uiso   1.00
C753   C     0.73595   0.13480   0.99386   0.00000  Uiso   1.00
C754   C     0.76829   0.14538   0.51969   0.00000  Uiso   1.00
H755   H     0.91148   0.03742   0.72884   0.00000  Uiso   1.00
H756   H     0.75592   0.03761   0.76820   0.00000  Uiso   1.00
H757   H     0.75613   0.29592   0.76710   0.00000  Uiso   1.00
H758   H     0.94426   0.11028   0.79376   0.00000  Uiso   1.00
H759   H     0.69505   0.11038   0.79391   0.00000  Uiso   1.00
H760   H     0.72226   0.22321   0.70664   0.00000  Uiso   1.00
H761   H     0.97122   0.22342   0.70743   0.00000  Uiso   1.00
H762   H     0.81758   0.13811   0.58491   0.00000  Uiso   1.00
H763   H     0.72388   0.13230   0.91824   0.00000  Uiso   1.00
H764   H     0.75842   0.13548   0.56132   0.00000  Uiso   1.00
H765   H     0.70387   0.11696   0.51527   0.00000  Uiso   1.00
H766   H     0.91168   0.29558   0.72776   0.00000  Uiso   1.00
N767   N     0.71426   0.16668   0.75002   0.00000  Uiso   1.00
N768   N     0.95239   0.16665   0.75001   0.00000  Uiso   1.00
O769   O     0.79512   0.22775   0.75001   0.00000  Uiso   1.00
O770   O     0.87157   0.22774   0.75001   0.00000  Uiso   1.00
O771   O     0.77613   0.16666   0.82681   0.00000  Uiso   1.00
O772   O     0.85258   0.16665   0.82681   0.00000  Uiso   1.00
O773   O     0.79510   0.10559   0.75000   0.00000  Uiso   1.00
O774   O     0.87154   0.10558   0.75000   0.00000  Uiso   1.00
O775   O     0.81409   0.16668   0.67319   0.00000  Uiso   1.00
O776   O     0.89053   0.16667   0.67319   0.00000  Uiso   1.00
Zn777  Zn    0.78229   0.16667   0.75000   0.00000  Uiso   1.00
Zn778  Zn    0.88438   0.16666   0.75000   0.00000  Uiso   1.00
N779   N     0.95372   0.20479   0.58390   0.00000  Uiso   1.00
H780   H     0.98908   0.19728   0.56114   0.00000  Uiso   1.00
C781   C     0.94826   0.24709   0.60476   0.00000  Uiso   1.00
H782   H     0.91154   0.25180   0.63566   0.00000  Uiso   1.00
H783   H     0.95400   0.26962   0.57119   0.00000  Uiso   1.00
H784   H     0.97542   0.25336   0.62418   0.00000  Uiso   1.00
N785   N     0.91722   0.26015   0.92062   0.00000  Uiso   1.00
H786   H     0.92689   0.26532   0.87938   0.00000  Uiso   1.00
C787   C     0.90365   0.29776   0.95341   0.00000  Uiso   1.00
H788   H     0.93174   0.32187   0.93648   0.00000  Uiso   1.00
H789   H     0.90073   0.29174   0.99613   0.00000  Uiso   1.00
H790   H     0.86848   0.30982   0.95315   0.00000  Uiso   1.00
Br791  Br    0.99009   0.22607   0.96042   0.00000  Uiso   1.00
Br792  Br    0.83465   0.25910   0.87484   0.00000  Uiso   1.00
C793   C     0.16707   0.58000   0.74860   0.00000  Uiso   1.00
C794   C     0.14411   0.50188   0.99206   0.00000  Uiso   1.00
C795   C     0.14951   0.51806   0.94060   0.00000  Uiso   1.00
C796   C     0.18116   0.50974   0.51358   0.00000  Uiso   1.00
C797   C     0.22119   0.53565   0.98528   0.00000  Uiso   1.00
C798   C     0.21906   0.55908   0.94075   0.00000  Uiso   1.00
C799   C     0.18227   0.55097   0.91976   0.00000  Uiso   1.00
C800   C     0.17918   0.49256   0.56288   0.00000  Uiso   1.00
C801   C     0.25319   0.52688   0.55876   0.00000  Uiso   1.00
C802   C     0.12108   0.50143   0.91200   0.00000  Uiso   1.00
C803   C     0.21095   0.64524   0.73663   0.00000  Uiso   1.00
C804   C     0.13956   0.50101   0.85243   0.00000  Uiso   1.00
C805   C     0.21081   0.35455   0.73735   0.00000  Uiso   1.00
C806   C     0.16699   0.37579   0.74882   0.00000  Uiso   1.00
C807   C     0.12339   0.35468   0.75909   0.00000  Uiso   1.00
C808   C     0.12353   0.64540   0.75837   0.00000  Uiso   1.00
C809   C     0.16726   0.62415   0.74749   0.00000  Uiso   1.00
C810   C     0.30179   0.46866   0.77427   0.00000  Uiso   1.00
C811   C     0.01637   0.46871   0.77435   0.00000  Uiso   1.00
C812   C     0.03147   0.53142   0.72596   0.00000  Uiso   1.00
C813   C     0.31681   0.53146   0.72615   0.00000  Uiso   1.00
C814   C     0.16673   0.41995   0.74977   0.00000  Uiso   1.00
C815   C     0.19376   0.50033   0.64749   0.00000  Uiso   1.00
C816   C     0.26010   0.53944   0.50516   0.00000  Uiso   1.00
C817   C     0.21088   0.50516   0.58831   0.00000  Uiso   1.00
C818   C     0.07995   0.47789   0.93944   0.00000  Uiso   1.00
C819   C     0.06928   0.46814   0.99386   0.00000  Uiso   1.00
C820   C     0.10163   0.47872   0.51969   0.00000  Uiso   1.00
H821   H     0.24481   0.37076   0.72884   0.00000  Uiso   1.00
H822   H     0.08925   0.37094   0.76820   0.00000  Uiso   1.00
H823   H     0.08946   0.62925   0.76710   0.00000  Uiso   1.00
H824   H     0.27759   0.44361   0.79376   0.00000  Uiso   1.00
H825   H     0.02839   0.44371   0.79391   0.00000  Uiso   1.00
H826   H     0.05559   0.55655   0.70664   0.00000  Uiso   1.00
H827   H     0.30455   0.55675   0.70743   0.00000  Uiso   1.00
H828   H     0.15091   0.47144   0.58491   0.00000  Uiso   1.00
H829   H     0.05722   0.46564   0.91824   0.00000  Uiso   1.00
H830   H     0.09175   0.46882   0.56132   0.00000  Uiso   1.00
H831   H     0.03721   0.45030   0.51527   0.00000  Uiso   1.00
H832   H     0.24502   0.62891   0.72776   0.00000  Uiso   1.00
N833   N     0.04760   0.50001   0.75002   0.00000  Uiso   1.00
N834   N     0.28573   0.49998   0.75001   0.00000  Uiso   1.00
O835   O     0.12846   0.56108   0.75001   0.00000  Uiso   1.00
O836   O     0.20490   0.56107   0.75001   0.00000  Uiso   1.00
O837   O     0.10947   0.50000   0.82681   0.00000  Uiso   1.00
O838   O     0.18591   0.49999   0.82681   0.00000  Uiso   1.00
O839   O     0.12843   0.43893   0.75000   0.00000  Uiso   1.00
O840   O     0.20488   0.43892   0.75000   0.00000  Uiso   1.00
O841   O     0.14742   0.50001   0.67319   0.00000  Uiso   1.00
O842   O     0.22387   0.50000   0.67319   0.00000  Uiso   1.00
Zn843  Zn    0.11562   0.50001   0.75000   0.00000  Uiso   1.00
Zn844  Zn    0.21771   0.49999   0.75000   0.00000  Uiso   1.00
N845   N     0.28705   0.53813   0.58390   0.00000  Uiso   1.00
H846   H     0.32241   0.53061   0.56114   0.00000  Uiso   1.00
C847   C     0.28159   0.58042   0.60476   0.00000  Uiso   1.00
H848   H     0.24487   0.58513   0.63566   0.00000  Uiso   1.00
H849   H     0.28733   0.60296   0.57119   0.00000  Uiso   1.00
H850   H     0.30875   0.58669   0.62418   0.00000  Uiso   1.00
N851   N     0.25056   0.59348   0.92062   0.00000  Uiso   1.00
H852   H     0.26022   0.59865   0.87938   0.00000  Uiso   1.00
C853   C     0.23698   0.63110   0.95341   0.00000  Uiso   1.00
H854   H     0.26508   0.65520   0.93648   0.00000  Uiso   1.00
H855   H     0.23407   0.62508   0.99613   0.00000  Uiso   1.00
H856   H     0.20182   0.64315   0.95315   0.00000  Uiso   1.00
Br857  Br    0.32343   0.55940   0.96042   0.00000  Uiso   1.00
Br858  Br    0.16798   0.59243   0.87484   0.00000  Uiso   1.00
C859   C     0.50040   0.58000   0.74860   0.00000  Uiso   1.00
C860   C     0.47745   0.50188   0.99206   0.00000  Uiso   1.00
C861   C     0.48285   0.51806   0.94060   0.00000  Uiso   1.00
C862   C     0.51449   0.50974   0.51358   0.00000  Uiso   1.00
C863   C     0.55452   0.53565   0.98528   0.00000  Uiso   1.00
C864   C     0.55240   0.55908   0.94075   0.00000  Uiso   1.00
C865   C     0.51561   0.55097   0.91976   0.00000  Uiso   1.00
C866   C     0.51252   0.49256   0.56288   0.00000  Uiso   1.00
C867   C     0.58653   0.52688   0.55876   0.00000  Uiso   1.00
C868   C     0.45441   0.50143   0.91200   0.00000  Uiso   1.00
C869   C     0.54428   0.64524   0.73663   0.00000  Uiso   1.00
C870   C     0.47289   0.50101   0.85243   0.00000  Uiso   1.00
C871   C     0.54414   0.35455   0.73735   0.00000  Uiso   1.00
C872   C     0.50032   0.37579   0.74882   0.00000  Uiso   1.00
C873   C     0.45672   0.35468   0.75909   0.00000  Uiso   1.00
C874   C     0.45686   0.64540   0.75837   0.00000  Uiso   1.00
C875   C     0.50059   0.62415   0.74749   0.00000  Uiso   1.00
C876   C     0.63512   0.46866   0.77427   0.00000  Uiso   1.00
C877   C     0.34971   0.46871   0.77435   0.00000  Uiso   1.00
C878   C     0.36480   0.53142   0.72596   0.00000  Uiso   1.00
C879   C     0.65015   0.53146   0.72615   0.00000  Uiso   1.00
C880   C     0.50006   0.41995   0.74977   0.00000  Uiso   1.00
C881   C     0.52709   0.50033   0.64749   0.00000  Uiso   1.00
C882   C     0.59343   0.53944   0.50516   0.00000  Uiso   1.00
C883   C     0.54421   0.50516   0.58831   0.00000  Uiso   1.00
C884   C     0.41328   0.47789   0.93944   0.00000  Uiso   1.00
C885   C     0.40261   0.46814   0.99386   0.00000  Uiso   1.00
C886   C     0.43496   0.47872   0.51969   0.00000  Uiso   1.00
H887   H     0.57815   0.37076   0.72884   0.00000  Uiso   1.00
H888   H     0.42258   0.37094   0.76820   0.00000  Uiso   1.00
H889   H     0.42280   0.62925   0.76710   0.00000  Uiso   1.00
H890   H     0.61093   0.44361   0.79376   0.00000  Uiso   1.00
H891   H     0.36172   0.44371   0.79391   0.00000  Uiso   1.00
H892   H     0.38892   0.55655   0.70664   0.00000  Uiso   1.00
H893   H     0.63788   0.55675   0.70743   0.00000  Uiso   1.00
H894   H     0.48424   0.47144   0.58491   0.00000  Uiso   1.00
H895   H     0.39055   0.46564   0.91824   0.00000  Uiso   1.00
H896   H     0.42508   0.46882   0.56132   0.00000  Uiso   1.00
H897   H     0.37054   0.45030   0.51527   0.00000  Uiso   1.00
H898   H     0.57835   0.62891   0.72776   0.00000  Uiso   1.00
N899   N     0.38093   0.50001   0.75002   0.00000  Uiso   1.00
N900   N     0.61906   0.49998   0.75001   0.00000  Uiso   1.00
O901   O     0.46179   0.56108   0.75001   0.00000  Uiso   1.00
O902   O     0.53823   0.56107   0.75001   0.00000  Uiso   1.00
O903   O     0.44280   0.50000   0.82681   0.00000  Uiso   1.00
O904   O     0.51924   0.49999   0.82681   0.00000  Uiso   1.00
O905   O     0.46177   0.43893   0.75000   0.00000  Uiso   1.00
O906   O     0.53821   0.43892   0.75000   0.00000  Uiso   1.00
O907   O     0.48076   0.50001   0.67319   0.00000  Uiso   1.00
O908   O     0.55720   0.50000   0.67319   0.00000  Uiso   1.00
Zn909  Zn    0.44896   0.50001   0.75000   0.00000  Uiso   1.00
Zn910  Zn    0.55104   0.49999   0.75000   0.00000  Uiso   1.00
N911   N     0.62039   0.53813   0.58390   0.00000  Uiso   1.00
H912   H     0.65574   0.53061   0.56114   0.00000  Uiso   1.00
C913   C     0.61492   0.58042   0.60476   0.00000  Uiso   1.00
H914   H     0.57820   0.58513   0.63566   0.00000  Uiso   1.00
H915   H     0.62066   0.60296   0.57119   0.00000  Uiso   1.00
H916   H     0.64208   0.58669   0.62418   0.00000  Uiso   1.00
N917   N     0.58389   0.59348   0.92062   0.00000  Uiso   1.00
H918   H     0.59355   0.59865   0.87938   0.00000  Uiso   1.00
C919   C     0.57031   0.63110   0.95341   0.00000  Uiso   1.00
H920   H     0.59841   0.65520   0.93648   0.00000  Uiso   1.00
H921   H     0.56740   0.62508   0.99613   0.00000  Uiso   1.00
H922   H     0.53515   0.64315   0.95315   0.00000  Uiso   1.00
Br923  Br    0.65676   0.55940   0.96042   0.00000  Uiso   1.00
Br924  Br    0.50132   0.59243   0.87484   0.00000  Uiso   1.00
C925   C     0.83373   0.58000   0.74860   0.00000  Uiso   1.00
C926   C     0.81078   0.50188   0.99206   0.00000  Uiso   1.00
C927   C     0.81618   0.51806   0.94060   0.00000  Uiso   1.00
C928   C     0.84783   0.50974   0.51358   0.00000  Uiso   1.00
C929   C     0.88785   0.53565   0.98528   0.00000  Uiso   1.00
C930   C     0.88573   0.55908   0.94075   0.00000  Uiso   1.00
C931   C     0.84894   0.55097   0.91976   0.00000  Uiso   1.00
C932   C     0.84585   0.49256   0.56288   0.00000  Uiso   1.00
C933   C     0.91986   0.52688   0.55876   0.00000  Uiso   1.00
C934   C     0.78774   0.50143   0.91200   0.00000  Uiso   1.00
C935   C     0.87762   0.64524   0.73663   0.00000  Uiso   1.00
C936   C     0.80623   0.50101   0.85243   0.00000  Uiso   1.00
C937   C     0.87748   0.35455   0.73735   0.00000  Uiso   1.00
C938   C     0.83365   0.37579   0.74882   0.00000  Uiso   1.00
C939   C     0.79006   0.35468   0.75909   0.00000  Uiso   1.00
C940   C     0.79019   0.64540   0.75837   0.00000  Uiso   1.00
C941   C     0.83392   0.62415   0.74749   0.00000  Uiso   1.00
C942   C     0.96846   0.46866   0.77427   0.00000  Uiso   1.00
C943   C     0.68304   0.46871   0.77435   0.00000  Uiso   1.00
C944   C     0.69813   0.53142   0.72596   0.00000  Uiso   1.00
C945   C     0.98348   0.53146   0.72615   0.00000  Uiso   1.00
C946   C     0.83340   0.41995   0.74977   0.00000  Uiso   1.00
C947   C     0.86043   0.50033   0.64749   0.00000  Uiso   1.00
C948   C     0.92676   0.53944   0.50516   0.00000  Uiso   1.00
C949   C     0.87755   0.50516   0.58831   0.00000  Uiso   1.00
C950   C     0.74662   0.47789   0.93944   0.00000  Uiso   1.00
C951   C     0.73595   0.46814   0.99386   0.00000  Uiso   1.00
C952   C     0.76829   0.47872   0.51969   0.00000  Uiso   1.00
H953   H     0.91148   0.37076   0.72884   0.00000  Uiso   1.00
H954   H     0.75592   0.37094   0.76820   0.00000  Uiso   1.00
H955   H     0.75613   0.62925   0.76710   0.00000  Uiso   1.00
H956   H     0.94426   0.44361   0.79376   0.00000  Uiso   1.00
H957   H     0.69505   0.44371   0.79391   0.00000  Uiso   1.00
H958   H     0.72226   0.55655   0.70664   0.00000  Uiso   1.00
H959   H     0.97122   0.55675   0.70743   0.00000  Uiso   1.00
H960   H     0.81758   0.47144   0.58491   0.00000  Uiso   1.00
H961   H     0.72388   0.46564   0.91824   0.00000  Uiso   1.00
H962   H     0.75842   0.46882   0.56132   0.00000  Uiso   1.00
H963   H     0.70387   0.45030   0.51527   0.00000  Uiso   1.00
H964   H     0.91168   0.62891   0.72776   0.00000  Uiso   1.00
N965   N     0.71426   0.50001   0.75002   0.00000  Uiso   1.00
N966   N     0.95239   0.49998   0.75001   0.00000  Uiso   1.00
O967   O     0.79512   0.56108   0.75001   0.00000  Uiso   1.00
O968   O     0.87157   0.56107   0.75001   0.00000  Uiso   1.00
O969   O     0.77613   0.50000   0.82681   0.00000  Uiso   1.00
O970   O     0.85258   0.49999   0.82681   0.00000  Uiso   1.00
O971   O     0.79510   0.43893   0.75000   0.00000  Uiso   1.00
O972   O     0.87154   0.43892   0.75000   0.00000  Uiso   1.00
O973   O     0.81409   0.50001   0.67319   0.00000  Uiso   1.00
O974   O     0.89053   0.50000   0.67319   0.00000  Uiso   1.00
Zn975  Zn    0.78229   0.50001   0.75000   0.00000  Uiso   1.00
Zn976  Zn    0.88438   0.49999   0.75000   0.00000  Uiso   1.00
N977   N     0.95372   0.53813   0.58390   0.00000  Uiso   1.00
H978   H     0.98908   0.53061   0.56114   0.00000  Uiso   1.00
C979   C     0.94826   0.58042   0.60476   0.00000  Uiso   1.00
H980   H     0.91154   0.58513   0.63566   0.00000  Uiso   1.00
H981   H     0.95400   0.60296   0.57119   0.00000  Uiso   1.00
H982   H     0.97542   0.58669   0.62418   0.00000  Uiso   1.00
N983   N     0.91722   0.59348   0.92062   0.00000  Uiso   1.00
H984   H     0.92689   0.59865   0.87938   0.00000  Uiso   1.00
C985   C     0.90365   0.63110   0.95341   0.00000  Uiso   1.00
H986   H     0.93174   0.65520   0.93648   0.00000  Uiso   1.00
H987   H     0.90073   0.62508   0.99613   0.00000  Uiso   1.00
H988   H     0.86848   0.64315   0.95315   0.00000  Uiso   1.00
Br989  Br    0.99009   0.55940   0.96042   0.00000  Uiso   1.00
Br990  Br    0.83465   0.59243   0.87484   0.00000  Uiso   1.00
C991   C     0.16707   0.91334   0.74860   0.00000  Uiso   1.00
C992   C     0.14411   0.83521   0.99206   0.00000  Uiso   1.00
C993   C     0.14951   0.85139   0.94060   0.00000  Uiso   1.00
C994   C     0.18116   0.84308   0.51358   0.00000  Uiso   1.00
C995   C     0.22119   0.86899   0.98528   0.00000  Uiso   1.00
C996   C     0.21906   0.89241   0.94075   0.00000  Uiso   1.00
C997   C     0.18227   0.88430   0.91976   0.00000  Uiso   1.00
C998   C     0.17918   0.82589   0.56288   0.00000  Uiso   1.00
C999   C     0.25319   0.86021   0.55876   0.00000  Uiso   1.00
C1000  C     0.12108   0.83476   0.91200   0.00000  Uiso   1.00
C1001  C     0.21095   0.97858   0.73663   0.00000  Uiso   1.00
C1002  C     0.13956   0.83434   0.85243   0.00000  Uiso   1.00
C1003  C     0.21081   0.68789   0.73735   0.00000  Uiso   1.00
C1004  C     0.16699   0.70913   0.74882   0.00000  Uiso   1.00
C1005  C     0.12339   0.68801   0.75909   0.00000  Uiso   1.00
C1006  C     0.12353   0.97874   0.75837   0.00000  Uiso   1.00
C1007  C     0.16726   0.95749   0.74749   0.00000  Uiso   1.00
C1008  C     0.30179   0.80199   0.77427   0.00000  Uiso   1.00
C1009  C     0.01637   0.80204   0.77435   0.00000  Uiso   1.00
C1010  C     0.03147   0.86475   0.72596   0.00000  Uiso   1.00
C1011  C     0.31681   0.86479   0.72615   0.00000  Uiso   1.00
C1012  C     0.16673   0.75329   0.74977   0.00000  Uiso   1.00
C1013  C     0.19376   0.83366   0.64749   0.00000  Uiso   1.00
C1014  C     0.26010   0.87277   0.50516   0.00000  Uiso   1.00
C1015  C     0.21088   0.83849   0.58831   0.00000  Uiso   1.00
C1016  C     0.07995   0.81122   0.93944   0.00000  Uiso   1.00
C1017  C     0.06928   0.80147   0.99386   0.00000  Uiso   1.00
C1018  C     0.10163   0.81205   0.51969   0.00000  Uiso   1.00
H1019  H     0.24481   0.70409   0.72884   0.00000  Uiso   1.00
H1020  H     0.08925   0.70427   0.76820   0.00000  Uiso   1.00
H1021  H     0.08946   0.96259   0.76710   0.00000  Uiso   1.00
H1022  H     0.27759   0.77695   0.79376   0.00000  Uiso   1.00
H1023  H     0.02839   0.77705   0.79391   0.00000  Uiso   1.00
H1024  H     0.05559   0.88988   0.70664   0.00000  Uiso   1.00
H1025  H     0.30455   0.89008   0.70743   0.00000  Uiso   1.00
H1026  H     0.15091   0.80478   0.58491   0.00000  Uiso   1.00
H1027  H     0.05722   0.79897   0.91824   0.00000  Uiso   1.00
H1028  H     0.09175   0.80215   0.56132   0.00000  Uiso   1.00
H1029  H     0.03721   0.78363   0.51527   0.00000  Uiso   1.00
H1030  H     0.24502   0.96224   0.72776   0.00000  Uiso   1.00
N1031  N     0.04760   0.83334   0.75002   0.00000  Uiso   1.00
N1032  N     0.28573   0.83331   0.75001   0.00000  Uiso   1.00
O1033  O     0.12846   0.89442   0.75001   0.00000  Uiso   1.00
O1034  O     0.20490   0.89441   0.75001   0.00000  Uiso   1.00
O1035  O     0.10947   0.83333   0.82681   0.00000  Uiso   1.00
O1036  O     0.18591   0.83332   0.82681   0.00000  Uiso   1.00
O1037  O     0.12843   0.77226   0.75000   0.00000  Uiso   1.00
O1038  O     0.20488   0.77225   0.75000   0.00000  Uiso   1.00
O1039  O     0.14742   0.83335   0.67319   0.00000  Uiso   1.00
O1040  O     0.22387   0.83334   0.67319   0.00000  Uiso   1.00
Zn1041 Zn    0.11562   0.83334   0.75000   0.00000  Uiso   1.00
Zn1042 Zn    0.21771   0.83333   0.75000   0.00000  Uiso   1.00
N1043  N     0.28705   0.87146   0.58390   0.00000  Uiso   1.00
H1044  H     0.32241   0.86395   0.56114   0.00000  Uiso   1.00
C1045  C     0.28159   0.91375   0.60476   0.00000  Uiso   1.00
H1046  H     0.24487   0.91847   0.63566   0.00000  Uiso   1.00
H1047  H     0.28733   0.93629   0.57119   0.00000  Uiso   1.00
H1048  H     0.30875   0.92003   0.62418   0.00000  Uiso   1.00
N1049  N     0.25056   0.92681   0.92062   0.00000  Uiso   1.00
H1050  H     0.26022   0.93199   0.87938   0.00000  Uiso   1.00
C1051  C     0.23698   0.96443   0.95341   0.00000  Uiso   1.00
H1052  H     0.26508   0.98853   0.93648   0.00000  Uiso   1.00
H1053  H     0.23407   0.95841   0.99613   0.00000  Uiso   1.00
H1054  H     0.20182   0.97648   0.95315   0.00000  Uiso   1.00
Br1055 Br    0.32343   0.89274   0.96042   0.00000  Uiso   1.00
Br1056 Br    0.16798   0.92577   0.87484   0.00000  Uiso   1.00
C1057  C     0.50040   0.91334   0.74860   0.00000  Uiso   1.00
C1058  C     0.47745   0.83521   0.99206   0.00000  Uiso   1.00
C1059  C     0.48285   0.85139   0.94060   0.00000  Uiso   1.00
C1060  C     0.51449   0.84308   0.51358   0.00000  Uiso   1.00
C1061  C     0.55452   0.86899   0.98528   0.00000  Uiso   1.00
C1062  C     0.55240   0.89241   0.94075   0.00000  Uiso   1.00
C1063  C     0.51561   0.88430   0.91976   0.00000  Uiso   1.00
C1064  C     0.51252   0.82589   0.56288   0.00000  Uiso   1.00
C1065  C     0.58653   0.86021   0.55876   0.00000  Uiso   1.00
C1066  C     0.45441   0.83476   0.91200   0.00000  Uiso   1.00
C1067  C     0.54428   0.97858   0.73663   0.00000  Uiso   1.00
C1068  C     0.47289   0.83434   0.85243   0.00000  Uiso   1.00
C1069  C     0.54414   0.68789   0.73735   0.00000  Uiso   1.00
C1070  C     0.50032   0.70913   0.74882   0.00000  Uiso   1.00
C1071  C     0.45672   0.68801   0.75909   0.00000  Uiso   1.00
C1072  C     0.45686   0.97874   0.75837   0.00000  Uiso   1.00
C1073  C     0.50059   0.95749   0.74749   0.00000  Uiso   1.00
C1074  C     0.63512   0.80199   0.77427   0.00000  Uiso   1.00
C1075  C     0.34971   0.80204   0.77435   0.00000  Uiso   1.00
C1076  C     0.36480   0.86475   0.72596   0.00000  Uiso   1.00
C1077  C     0.65015   0.86479   0.72615   0.00000  Uiso   1.00
C1078  C     0.50006   0.75329   0.74977   0.00000  Uiso   1.00
C1079  C     0.52709   0.83366   0.64749   0.00000  Uiso   1.00
C1080  C     0.59343   0.87277   0.50516   0.00000  Uiso   1.00
C1081  C     0.54421   0.83849   0.58831   0.00000  Uiso   1.00
C1082  C     0.41328   0.81122   0.93944   0.00000  Uiso   1.00
C1083  C     0.40261   0.80147   0.99386   0.00000  Uiso   1.00
C1084  C     0.43496   0.81205   0.51969   0.00000  Uiso   1.00
H1085  H     0.57815   0.70409   0.72884   0.00000  Uiso   1.00
H1086  H     0.42258   0.70427   0.76820   0.00000  Uiso   1.00
H1087  H     0.42280   0.96259   0.76710   0.00000  Uiso   1.00
H1088  H     0.61093   0.77695   0.79376   0.00000  Uiso   1.00
H1089  H     0.36172   0.77705   0.79391   0.00000  Uiso   1.00
H1090  H     0.38892   0.88988   0.70664   0.00000  Uiso   1.00
H1091  H     0.63788   0.89008   0.70743   0.00000  Uiso   1.00
H1092  H     0.48424   0.80478   0.58491   0.00000  Uiso   1.00
H1093  H     0.39055   0.79897   0.91824   0.00000  Uiso   1.00
H1094  H     0.42508   0.80215   0.56132   0.00000  Uiso   1.00
H1095  H     0.37054   0.78363   0.51527   0.00000  Uiso   1.00
H1096  H     0.57835   0.96224   0.72776   0.00000  Uiso   1.00
N1097  N     0.38093   0.83334   0.75002   0.00000  Uiso   1.00
N1098  N     0.61906   0.83331   0.75001   0.00000  Uiso   1.00
O1099  O     0.46179   0.89442   0.75001   0.00000  Uiso   1.00
O1100  O     0.53823   0.89441   0.75001   0.00000  Uiso   1.00
O1101  O     0.44280   0.83333   0.82681   0.00000  Uiso   1.00
O1102  O     0.51924   0.83332   0.82681   0.00000  Uiso   1.00
O1103  O     0.46177   0.77226   0.75000   0.00000  Uiso   1.00
O1104  O     0.53821   0.77225   0.75000   0.00000  Uiso   1.00
O1105  O     0.48076   0.83335   0.67319   0.00000  Uiso   1.00
O1106  O     0.55720   0.83334   0.67319   0.00000  Uiso   1.00
Zn1107 Zn    0.44896   0.83334   0.75000   0.00000  Uiso   1.00
Zn1108 Zn    0.55104   0.83333   0.75000   0.00000  Uiso   1.00
N1109  N     0.62039   0.87146   0.58390   0.00000  Uiso   1.00
H1110  H     0.65574   0.86395   0.56114   0.00000  Uiso   1.00
C1111  C     0.61492   0.91375   0.60476   0.00000  Uiso   1.00
H1112  H     0.57820   0.91847   0.63566   0.00000  Uiso   1.00
H1113  H     0.62066   0.93629   0.57119   0.00000  Uiso   1.00
H1114  H     0.64208   0.92003   0.62418   0.00000  Uiso   1.00
N1115  N     0.58389   0.92681   0.92062   0.00000  Uiso   1.00
H1116  H     0.59355   0.93199   0.87938   0.00000  Uiso   1.00
C1117  C     0.57031   0.96443   0.95341   0.00000  Uiso   1.00
H1118  H     0.59841   0.98853   0.93648   0.00000  Uiso   1.00
H1119  H     0.56740   0.95841   0.99613   0.00000  Uiso   1.00
H1120  H     0.53515   0.97648   0.95315   0.00000  Uiso   1.00
Br1121 Br    0.65676   0.89274   0.96042   0.00000  Uiso   1.00
Br1122 Br    0.50132   0.92577   0.87484   0.00000  Uiso   1.00
C1123  C     0.83373   0.91334   0.74860   0.00000  Uiso   1.00
C1124  C     0.81078   0.83521   0.99206   0.00000  Uiso   1.00
C1125  C     0.81618   0.85139   0.94060   0.00000  Uiso   1.00
C1126  C     0.84783   0.84308   0.51358   0.00000  Uiso   1.00
C1127  C     0.88785   0.86899   0.98528   0.00000  Uiso   1.00
C1128  C     0.88573   0.89241   0.94075   0.00000  Uiso   1.00
C1129  C     0.84894   0.88430   0.91976   0.00000  Uiso   1.00
C1130  C     0.84585   0.82589   0.56288   0.00000  Uiso   1.00
C1131  C     0.91986   0.86021   0.55876   0.00000  Uiso   1.00
C1132  C     0.78774   0.83476   0.91200   0.00000  Uiso   1.00
C1133  C     0.87762   0.97858   0.73663   0.00000  Uiso   1.00
C1134  C     0.80623   0.83434   0.85243   0.00000  Uiso   1.00
C1135  C     0.87748   0.68789   0.73735   0.00000  Uiso   1.00
C1136  C     0.83365   0.70913   0.74882   0.00000  Uiso   1.00
C1137  C     0.79006   0.68801   0.75909   0.00000  Uiso   1.00
C1138  C     0.79019   0.97874   0.75837   0.00000  Uiso   1.00
C1139  C     0.83392   0.95749   0.74749   0.00000  Uiso   1.00
C1140  C     0.96846   0.80199   0.77427   0.00000  Uiso   1.00
C1141  C     0.68304   0.80204   0.77435   0.00000  Uiso   1.00
C1142  C     0.69813   0.86475   0.72596   0.00000  Uiso   1.00
C1143  C     0.98348   0.86479   0.72615   0.00000  Uiso   1.00
C1144  C     0.83340   0.75329   0.74977   0.00000  Uiso   1.00
C1145  C     0.86043   0.83366   0.64749   0.00000  Uiso   1.00
C1146  C     0.92676   0.87277   0.50516   0.00000  Uiso   1.00
C1147  C     0.87755   0.83849   0.58831   0.00000  Uiso   1.00
C1148  C     0.74662   0.81122   0.93944   0.00000  Uiso   1.00
C1149  C     0.73595   0.80147   0.99386   0.00000  Uiso   1.00
C1150  C     0.76829   0.81205   0.51969   0.00000  Uiso   1.00
H1151  H     0.91148   0.70409   0.72884   0.00000  Uiso   1.00
H1152  H     0.75592   0.70427   0.76820   0.00000  Uiso   1.00
H1153  H     0.75613   0.96259   0.76710   0.00000  Uiso   1.00
H1154  H     0.94426   0.77695   0.79376   0.00000  Uiso   1.00
H1155  H     0.69505   0.77705   0.79391   0.00000  Uiso   1.00
H1156  H     0.72226   0.88988   0.70664   0.00000  Uiso   1.00
H1157  H     0.97122   0.89008   0.70743   0.00000  Uiso   1.00
H1158  H     0.81758   0.80478   0.58491   0.00000  Uiso   1.00
H1159  H     0.72388   0.79897   0.91824   0.00000  Uiso   1.00
H1160  H     0.75842   0.80215   0.56132   0.00000  Uiso   1.00
H1161  H     0.70387   0.78363   0.51527   0.00000  Uiso   1.00
H1162  H     0.91168   0.96224   0.72776   0.00000  Uiso   1.00
N1163  N     0.71426   0.83334   0.75002   0.00000  Uiso   1.00
N1164  N     0.95239   0.83331   0.75001   0.00000  Uiso   1.00
O1165  O     0.79512   0.89442   0.75001   0.00000  Uiso   1.00
O1166  O     0.87157   0.89441   0.75001   0.00000  Uiso   1.00
O1167  O     0.77613   0.83333   0.82681   0.00000  Uiso   1.00
O1168  O     0.85258   0.83332   0.82681   0.00000  Uiso   1.00
O1169  O     0.79510   0.77226   0.75000   0.00000  Uiso   1.00
O1170  O     0.87154   0.77225   0.75000   0.00000  Uiso   1.00
O1171  O     0.81409   0.83335   0.67319   0.00000  Uiso   1.00
O1172  O     0.89053   0.83334   0.67319   0.00000  Uiso   1.00
Zn1173 Zn    0.78229   0.83334   0.75000   0.00000  Uiso   1.00
Zn1174 Zn    0.88438   0.83333   0.75000   0.00000  Uiso   1.00
N1175  N     0.95372   0.87146   0.58390   0.00000  Uiso   1.00
H1176  H     0.98908   0.86395   0.56114   0.00000  Uiso   1.00
C1177  C     0.94826   0.91375   0.60476   0.00000  Uiso   1.00
H1178  H     0.91154   0.91847   0.63566   0.00000  Uiso   1.00
H1179  H     0.95400   0.93629   0.57119   0.00000  Uiso   1.00
H1180  H     0.97542   0.92003   0.62418   0.00000  Uiso   1.00
N1181  N     0.91722   0.92681   0.92062   0.00000  Uiso   1.00
H1182  H     0.92689   0.93199   0.87938   0.00000  Uiso   1.00
C1183  C     0.90365   0.96443   0.95341   0.00000  Uiso   1.00
H1184  H     0.93174   0.98853   0.93648   0.00000  Uiso   1.00
H1185  H     0.90073   0.95841   0.99613   0.00000  Uiso   1.00
H1186  H     0.86848   0.97648   0.95315   0.00000  Uiso   1.00
Br1187 Br    0.99009   0.89274   0.96042   0.00000  Uiso   1.00
Br1188 Br    0.83465   0.92577   0.87484   0.00000  Uiso   1.00
loop_
_geom_bond_atom_site_label_1
_geom_bond_atom_site_label_2
_geom_bond_distance
_geom_bond_site_symmetry_2
_ccdc_geom_bond_type
C1     O44     1.284   .     A
C1     C17     1.419   .     S
C1     O43     1.282   .     A
C2     C3      1.406   .     A
C2     C598    1.419   .     S
C2     C622    1.422   .     S
C3     C10     1.411   .     A
C3     C7      1.411   .     A
C4     C8      1.392   .     A
C4     C596    1.419   1_554 S
C4     C599    1.427   1_554 S
C5     C6      1.415   .     A
C5     C598    1.427   .     S
C5     C618    1.424   .     S
C6     C7      1.404   .     A
C6     N59     1.425   .     S
C7     Br66    1.929   .     S
C8     C25     1.386   .     A
C8     H36     1.076   .     S
C9     C25     1.406   .     A
C9     C24     1.409   .     A
C9     N53     1.423   .     S
C10    C26     1.400   .     A
C10    C12     1.461   .     S
C11    H40     1.084   .     S
C11    C17     1.397   .     A
C11    C211    1.370   .     S
C12    O45     1.290   .     A
C12    O46     1.295   .     A
C13    C14     1.397   .     A
C13    H29     1.084   .     S
C13    C407    1.370   1_545 S
C14    C22     1.419   .     S
C14    C15     1.397   .     A
C15    H30     1.084   .     S
C15    C412    1.369   1_545 S
C16    H31     1.084   .     S
C16    C17     1.397   .     A
C16    C213    1.369   .     S
C18    N42     1.367   .     A
C18    H32     1.082   .     S
C18    C85     1.416   .     S
C19    H33     1.082   .     S
C19    N41     1.366   .     A
C19    C150    1.416   1_455 S
C20    H34     1.082   .     S
C20    N41     1.366   .     A
C20    C153    1.416   1_455 S
C21    H35     1.079   .     S
C21    N42     1.366   .     A
C21    C86     1.416   .     S
C22    O48     1.283   .     A
C22    O47     1.283   .     A
C23    O49     1.295   .     A
C23    C25     1.462   .     S
C23    O50     1.291   .     A
C24    C599    1.424   1_554 S
C24    Br659   1.937   1_554 S
C26    H37     1.083   .     S
C26    C27     1.387   .     A
C27    C622    1.392   .     S
C27    H633    1.083   .     S
C28    H38     1.077   .     S
C28    C596    1.422   1_554 S
C28    C621    1.392   1_554 S
H39    C621    1.083   1_554 S
N41    Zn51    2.009   .     S
N42    Zn52    2.009   .     S
O43    Zn51    1.999   .     S
O44    Zn52    1.999   .     S
O45    Zn51    1.956   .     S
O46    Zn52    1.897   .     S
O47    Zn51    1.999   .     S
O48    Zn52    1.999   .     S
O49    Zn51    1.897   .     S
O50    Zn52    1.956   .     S
N53    C55     1.447   .     S
N53    H54     1.031   .     S
C55    H56     1.110   .     S
C55    H57     1.111   .     S
C55    H58     1.109   .     S
N59    H60     1.031   .     S
N59    C61     1.448   .     S
C61    H64     1.111   .     S
C61    H62     1.110   .     S
C61    H63     1.111   .     S
Br65   C618    1.937   .     S
C67    O110    1.284   .     A
C67    C83     1.419   .     S
C67    O109    1.282   .     A
C68    C69     1.406   .     A
C68    C664    1.419   .     S
C68    C688    1.422   .     S
C69    C76     1.411   .     A
C69    C73     1.411   .     A
C70    C74     1.392   .     A
C70    C662    1.419   1_554 S
C70    C665    1.427   1_554 S
C71    C72     1.415   .     A
C71    C664    1.427   .     S
C71    C684    1.424   .     S
C72    C73     1.404   .     A
C72    N125    1.425   .     S
C73    Br132   1.929   .     S
C74    C91     1.386   .     A
C74    H102    1.076   .     S
C75    C91     1.406   .     A
C75    C90     1.409   .     A
C75    N119    1.423   .     S
C76    C92     1.400   .     A
C76    C78     1.461   .     S
C77    H106    1.084   .     S
C77    C83     1.397   .     A
C77    C277    1.370   .     S
C78    O111    1.290   .     A
C78    O112    1.295   .     A
C79    C80     1.397   .     A
C79    H95     1.084   .     S
C79    C473    1.370   1_545 S
C80    C88     1.419   .     S
C80    C81     1.397   .     A
C81    H96     1.084   .     S
C81    C478    1.369   1_545 S
C82    H97     1.084   .     S
C82    C83     1.397   .     A
C82    C279    1.369   .     S
C84    N108    1.367   .     A
C84    H98     1.082   .     S
C84    C151    1.416   .     S
C85    H99     1.082   .     S
C85    N107    1.366   .     A
C86    H100    1.082   .     S
C86    N107    1.366   .     A
C87    H101    1.079   .     S
C87    N108    1.366   .     A
C87    C152    1.416   .     S
C88    O114    1.283   .     A
C88    O113    1.283   .     A
C89    O115    1.295   .     A
C89    C91     1.462   .     S
C89    O116    1.291   .     A
C90    C665    1.424   1_554 S
C90    Br725   1.937   1_554 S
C92    H103    1.083   .     S
C92    C93     1.387   .     A
C93    C688    1.392   .     S
C93    H699    1.083   .     S
C94    H104    1.077   .     S
C94    C662    1.422   1_554 S
C94    C687    1.392   1_554 S
H105   C687    1.083   1_554 S
N107   Zn117   2.009   .     S
N108   Zn118   2.009   .     S
O109   Zn117   1.999   .     S
O110   Zn118   1.999   .     S
O111   Zn117   1.956   .     S
O112   Zn118   1.897   .     S
O113   Zn117   1.999   .     S
O114   Zn118   1.999   .     S
O115   Zn117   1.897   .     S
O116   Zn118   1.956   .     S
N119   C121    1.447   .     S
N119   H120    1.031   .     S
C121   H122    1.110   .     S
C121   H123    1.111   .     S
C121   H124    1.109   .     S
N125   H126    1.031   .     S
N125   C127    1.448   .     S
C127   H130    1.111   .     S
C127   H128    1.110   .     S
C127   H129    1.111   .     S
Br131  C684    1.937   .     S
C133   O176    1.284   .     A
C133   C149    1.419   .     S
C133   O175    1.282   .     A
C134   C135    1.406   .     A
C134   C730    1.419   .     S
C134   C754    1.422   .     S
C135   C142    1.411   .     A
C135   C139    1.411   .     A
C136   C140    1.392   .     A
C136   C728    1.419   1_554 S
C136   C731    1.427   1_554 S
C137   C138    1.415   .     A
C137   C730    1.427   .     S
C137   C750    1.424   .     S
C138   C139    1.404   .     A
C138   N191    1.425   .     S
C139   Br198   1.929   .     S
C140   C157    1.386   .     A
C140   H168    1.076   .     S
C141   C157    1.406   .     A
C141   C156    1.409   .     A
C141   N185    1.423   .     S
C142   C158    1.400   .     A
C142   C144    1.461   .     S
C143   H172    1.084   .     S
C143   C149    1.397   .     A
C143   C343    1.370   .     S
C144   O177    1.290   .     A
C144   O178    1.295   .     A
C145   C146    1.397   .     A
C145   H161    1.084   .     S
C145   C539    1.370   1_545 S
C146   C154    1.419   .     S
C146   C147    1.397   .     A
C147   H162    1.084   .     S
C147   C544    1.369   1_545 S
C148   H163    1.084   .     S
C148   C149    1.397   .     A
C148   C345    1.369   .     S
C150   N174    1.367   .     A
C150   H164    1.082   .     S
C150   C19     1.416   1_655 S
C151   H165    1.082   .     S
C151   N173    1.366   .     A
C152   H166    1.082   .     S
C152   N173    1.366   .     A
C153   H167    1.079   .     S
C153   N174    1.366   .     A
C153   C20     1.416   1_655 S
C154   O180    1.283   .     A
C154   O179    1.283   .     A
C155   O181    1.295   .     A
C155   C157    1.462   .     S
C155   O182    1.291   .     A
C156   C731    1.424   1_554 S
C156   Br791   1.937   1_554 S
C158   H169    1.083   .     S
C158   C159    1.387   .     A
C159   C754    1.392   .     S
C159   H765    1.083   .     S
C160   H170    1.077   .     S
C160   C728    1.422   1_554 S
C160   C753    1.392   1_554 S
H171   C753    1.083   1_554 S
N173   Zn183   2.009   .     S
N174   Zn184   2.009   .     S
O175   Zn183   1.999   .     S
O176   Zn184   1.999   .     S
O177   Zn183   1.956   .     S
O178   Zn184   1.897   .     S
O179   Zn183   1.999   .     S
O180   Zn184   1.999   .     S
O181   Zn183   1.897   .     S
O182   Zn184   1.956   .     S
N185   C187    1.447   .     S
N185   H186    1.031   .     S
C187   H188    1.110   .     S
C187   H189    1.111   .     S
C187   H190    1.109   .     S
N191   H192    1.031   .     S
N191   C193    1.448   .     S
C193   H196    1.111   .     S
C193   H194    1.110   .     S
C193   H195    1.111   .     S
Br197  C750    1.937   .     S
C199   O242    1.284   .     A
C199   C215    1.419   .     S
C199   O241    1.282   .     A
C200   C201    1.406   .     A
C200   C796    1.419   .     S
C200   C820    1.422   .     S
C201   C208    1.411   .     A
C201   C205    1.411   .     A
C202   C206    1.392   .     A
C202   C794    1.419   1_554 S
C202   C797    1.427   1_554 S
C203   C204    1.415   .     A
C203   C796    1.427   .     S
C203   C816    1.424   .     S
C204   C205    1.404   .     A
C204   N257    1.425   .     S
C205   Br264   1.929   .     S
C206   C223    1.386   .     A
C206   H234    1.076   .     S
C207   C223    1.406   .     A
C207   C222    1.409   .     A
C207   N251    1.423   .     S
C208   C224    1.400   .     A
C208   C210    1.461   .     S
C209   H238    1.084   .     S
C209   C215    1.397   .     A
C209   C409    1.370   .     S
C210   O243    1.290   .     A
C210   O244    1.295   .     A
C211   C212    1.397   .     A
C211   H227    1.084   .     S
C212   C220    1.419   .     S
C212   C213    1.397   .     A
C213   H228    1.084   .     S
C214   H229    1.084   .     S
C214   C215    1.397   .     A
C214   C411    1.369   .     S
C216   N240    1.367   .     A
C216   H230    1.082   .     S
C216   C283    1.416   .     S
C217   H231    1.082   .     S
C217   N239    1.366   .     A
C217   C348    1.416   1_455 S
C218   H232    1.082   .     S
C218   N239    1.366   .     A
C218   C351    1.416   1_455 S
C219   H233    1.079   .     S
C219   N240    1.366   .     A
C219   C284    1.416   .     S
C220   O246    1.283   .     A
C220   O245    1.283   .     A
C221   O247    1.295   .     A
C221   C223    1.462   .     S
C221   O248    1.291   .     A
C222   C797    1.424   1_554 S
C222   Br857   1.937   1_554 S
C224   H235    1.083   .     S
C224   C225    1.387   .     A
C225   C820    1.392   .     S
C225   H831    1.083   .     S
C226   H236    1.077   .     S
C226   C794    1.422   1_554 S
C226   C819    1.392   1_554 S
H237   C819    1.083   1_554 S
N239   Zn249   2.009   .     S
N240   Zn250   2.009   .     S
O241   Zn249   1.999   .     S
O242   Zn250   1.999   .     S
O243   Zn249   1.956   .     S
O244   Zn250   1.897   .     S
O245   Zn249   1.999   .     S
O246   Zn250   1.999   .     S
O247   Zn249   1.897   .     S
O248   Zn250   1.956   .     S
N251   C253    1.447   .     S
N251   H252    1.031   .     S
C253   H254    1.110   .     S
C253   H255    1.111   .     S
C253   H256    1.109   .     S
N257   H258    1.031   .     S
N257   C259    1.448   .     S
C259   H262    1.111   .     S
C259   H260    1.110   .     S
C259   H261    1.111   .     S
Br263  C816    1.937   .     S
C265   O308    1.284   .     A
C265   C281    1.419   .     S
C265   O307    1.282   .     A
C266   C267    1.406   .     A
C266   C862    1.419   .     S
C266   C886    1.422   .     S
C267   C274    1.411   .     A
C267   C271    1.411   .     A
C268   C272    1.392   .     A
C268   C860    1.419   1_554 S
C268   C863    1.427   1_554 S
C269   C270    1.415   .     A
C269   C862    1.427   .     S
C269   C882    1.424   .     S
C270   C271    1.404   .     A
C270   N323    1.425   .     S
C271   Br330   1.929   .     S
C272   C289    1.386   .     A
C272   H300    1.076   .     S
C273   C289    1.406   .     A
C273   C288    1.409   .     A
C273   N317    1.423   .     S
C274   C290    1.400   .     A
C274   C276    1.461   .     S
C275   H304    1.084   .     S
C275   C281    1.397   .     A
C275   C475    1.370   .     S
C276   O309    1.290   .     A
C276   O310    1.295   .     A
C277   C278    1.397   .     A
C277   H293    1.084   .     S
C278   C286    1.419   .     S
C278   C279    1.397   .     A
C279   H294    1.084   .     S
C280   H295    1.084   .     S
C280   C281    1.397   .     A
C280   C477    1.369   .     S
C282   N306    1.367   .     A
C282   H296    1.082   .     S
C282   C349    1.416   .     S
C283   H297    1.082   .     S
C283   N305    1.366   .     A
C284   H298    1.082   .     S
C284   N305    1.366   .     A
C285   H299    1.079   .     S
C285   N306    1.366   .     A
C285   C350    1.416   .     S
C286   O312    1.283   .     A
C286   O311    1.283   .     A
C287   O313    1.295   .     A
C287   C289    1.462   .     S
C287   O314    1.291   .     A
C288   C863    1.424   1_554 S
C288   Br923   1.937   1_554 S
C290   H301    1.083   .     S
C290   C291    1.387   .     A
C291   C886    1.392   .     S
C291   H897    1.083   .     S
C292   H302    1.077   .     S
C292   C860    1.422   1_554 S
C292   C885    1.392   1_554 S
H303   C885    1.083   1_554 S
N305   Zn315   2.009   .     S
N306   Zn316   2.009   .     S
O307   Zn315   1.999   .     S
O308   Zn316   1.999   .     S
O309   Zn315   1.956   .     S
O310   Zn316   1.897   .     S
O311   Zn315   1.999   .     S
O312   Zn316   1.999   .     S
O313   Zn315   1.897   .     S
O314   Zn316   1.956   .     S
N317   C319    1.447   .     S
N317   H318    1.031   .     S
C319   H320    1.110   .     S
C319   H321    1.111   .     S
C319   H322    1.109   .     S
N323   H324    1.031   .     S
N323   C325    1.448   .     S
C325   H328    1.111   .     S
C325   H326    1.110   .     S
C325   H327    1.111   .     S
Br329  C882    1.937   .     S
C331   O374    1.284   .     A
C331   C347    1.419   .     S
C331   O373    1.282   .     A
C332   C333    1.406   .     A
C332   C928    1.419   .     S
C332   C952    1.422   .     S
C333   C340    1.411   .     A
C333   C337    1.411   .     A
C334   C338    1.392   .     A
C334   C926    1.419   1_554 S
C334   C929    1.427   1_554 S
C335   C336    1.415   .     A
C335   C928    1.427   .     S
C335   C948    1.424   .     S
C336   C337    1.404   .     A
C336   N389    1.425   .     S
C337   Br396   1.929   .     S
C338   C355    1.386   .     A
C338   H366    1.076   .     S
C339   C355    1.406   .     A
C339   C354    1.409   .     A
C339   N383    1.423   .     S
C340   C356    1.400   .     A
C340   C342    1.461   .     S
C341   H370    1.084   .     S
C341   C347    1.397   .     A
C341   C541    1.370   .     S
C342   O375    1.290   .     A
C342   O376    1.295   .     A
C343   C344    1.397   .     A
C343   H359    1.084   .     S
C344   C352    1.419   .     S
C344   C345    1.397   .     A
C345   H360    1.084   .     S
C346   H361    1.084   .     S
C346   C347    1.397   .     A
C346   C543    1.369   .     S
C348   N372    1.367   .     A
C348   H362    1.082   .     S
C348   C217    1.416   1_655 S
C349   H363    1.082   .     S
C349   N371    1.366   .     A
C350   H364    1.082   .     S
C350   N371    1.366   .     A
C351   H365    1.079   .     S
C351   N372    1.366   .     A
C351   C218    1.416   1_655 S
C352   O378    1.283   .     A
C352   O377    1.283   .     A
C353   O379    1.295   .     A
C353   C355    1.462   .     S
C353   O380    1.291   .     A
C354   C929    1.424   1_554 S
C354   Br989   1.937   1_554 S
C356   H367    1.083   .     S
C356   C357    1.387   .     A
C357   C952    1.392   .     S
C357   H963    1.083   .     S
C358   H368    1.077   .     S
C358   C926    1.422   1_554 S
C358   C951    1.392   1_554 S
H369   C951    1.083   1_554 S
N371   Zn381   2.009   .     S
N372   Zn382   2.009   .     S
O373   Zn381   1.999   .     S
O374   Zn382   1.999   .     S
O375   Zn381   1.956   .     S
O376   Zn382   1.897   .     S
O377   Zn381   1.999   .     S
O378   Zn382   1.999   .     S
O379   Zn381   1.897   .     S
O380   Zn382   1.956   .     S
N383   C385    1.447   .     S
N383   H384    1.031   .     S
C385   H386    1.110   .     S
C385   H387    1.111   .     S
C385   H388    1.109   .     S
N389   H390    1.031   .     S
N389   C391    1.448   .     S
C391   H394    1.111   .     S
C391   H392    1.110   .     S
C391   H393    1.111   .     S
Br395  C948    1.937   .     S
C397   O440    1.284   .     A
C397   C413    1.419   .     S
C397   O439    1.282   .     A
C398   C399    1.406   .     A
C398   C994    1.419   .     S
C398   C1018   1.422   .     S
C399   C406    1.411   .     A
C399   C403    1.411   .     A
C400   C404    1.392   .     A
C400   C992    1.419   1_554 S
C400   C995    1.427   1_554 S
C401   C402    1.415   .     A
C401   C994    1.427   .     S
C401   C1014   1.424   .     S
C402   C403    1.404   .     A
C402   N455    1.425   .     S
C403   Br462   1.929   .     S
C404   C421    1.386   .     A
C404   H432    1.076   .     S
C405   C421    1.406   .     A
C405   C420    1.409   .     A
C405   N449    1.423   .     S
C406   C422    1.400   .     A
C406   C408    1.461   .     S
C407   H436    1.084   .     S
C407   C413    1.397   .     A
C407   C13     1.370   1_565 S
C408   O441    1.290   .     A
C408   O442    1.295   .     A
C409   C410    1.397   .     A
C409   H425    1.084   .     S
C410   C418    1.419   .     S
C410   C411    1.397   .     A
C411   H426    1.084   .     S
C412   H427    1.084   .     S
C412   C413    1.397   .     A
C412   C15     1.369   1_565 S
C414   N438    1.367   .     A
C414   H428    1.082   .     S
C414   C481    1.416   .     S
C415   H429    1.082   .     S
C415   N437    1.366   .     A
C415   C546    1.416   1_455 S
C416   H430    1.082   .     S
C416   N437    1.366   .     A
C416   C549    1.416   1_455 S
C417   H431    1.079   .     S
C417   N438    1.366   .     A
C417   C482    1.416   .     S
C418   O444    1.283   .     A
C418   O443    1.283   .     A
C419   O445    1.295   .     A
C419   C421    1.462   .     S
C419   O446    1.291   .     A
C420   C995    1.424   1_554 S
C420   Br1055  1.937   1_554 S
C422   H433    1.083   .     S
C422   C423    1.387   .     A
C423   C1018   1.392   .     S
C423   H1029   1.083   .     S
C424   H434    1.077   .     S
C424   C992    1.422   1_554 S
C424   C1017   1.392   1_554 S
H435   C1017   1.083   1_554 S
N437   Zn447   2.009   .     S
N438   Zn448   2.009   .     S
O439   Zn447   1.999   .     S
O440   Zn448   1.999   .     S
O441   Zn447   1.956   .     S
O442   Zn448   1.897   .     S
O443   Zn447   1.999   .     S
O444   Zn448   1.999   .     S
O445   Zn447   1.897   .     S
O446   Zn448   1.956   .     S
N449   C451    1.447   .     S
N449   H450    1.031   .     S
C451   H452    1.110   .     S
C451   H453    1.111   .     S
C451   H454    1.109   .     S
N455   H456    1.031   .     S
N455   C457    1.448   .     S
C457   H460    1.111   .     S
C457   H458    1.110   .     S
C457   H459    1.111   .     S
Br461  C1014   1.937   .     S
C463   O506    1.284   .     A
C463   C479    1.419   .     S
C463   O505    1.282   .     A
C464   C465    1.406   .     A
C464   C1060   1.419   .     S
C464   C1084   1.422   .     S
C465   C472    1.411   .     A
C465   C469    1.411   .     A
C466   C470    1.392   .     A
C466   C1058   1.419   1_554 S
C466   C1061   1.427   1_554 S
C467   C468    1.415   .     A
C467   C1060   1.427   .     S
C467   C1080   1.424   .     S
C468   C469    1.404   .     A
C468   N521    1.425   .     S
C469   Br528   1.929   .     S
C470   C487    1.386   .     A
C470   H498    1.076   .     S
C471   C487    1.406   .     A
C471   C486    1.409   .     A
C471   N515    1.423   .     S
C472   C488    1.400   .     A
C472   C474    1.461   .     S
C473   H502    1.084   .     S
C473   C479    1.397   .     A
C473   C79     1.370   1_565 S
C474   O507    1.290   .     A
C474   O508    1.295   .     A
C475   C476    1.397   .     A
C475   H491    1.084   .     S
C476   C484    1.419   .     S
C476   C477    1.397   .     A
C477   H492    1.084   .     S
C478   H493    1.084   .     S
C478   C479    1.397   .     A
C478   C81     1.369   1_565 S
C480   N504    1.367   .     A
C480   H494    1.082   .     S
C480   C547    1.416   .     S
C481   H495    1.082   .     S
C481   N503    1.366   .     A
C482   H496    1.082   .     S
C482   N503    1.366   .     A
C483   H497    1.079   .     S
C483   N504    1.366   .     A
C483   C548    1.416   .     S
C484   O510    1.283   .     A
C484   O509    1.283   .     A
C485   O511    1.295   .     A
C485   C487    1.462   .     S
C485   O512    1.291   .     A
C486   C1061   1.424   1_554 S
C486   Br1121  1.937   1_554 S
C488   H499    1.083   .     S
C488   C489    1.387   .     A
C489   C1084   1.392   .     S
C489   H1095   1.083   .     S
C490   H500    1.077   .     S
C490   C1058   1.422   1_554 S
C490   C1083   1.392   1_554 S
H501   C1083   1.083   1_554 S
N503   Zn513   2.009   .     S
N504   Zn514   2.009   .     S
O505   Zn513   1.999   .     S
O506   Zn514   1.999   .     S
O507   Zn513   1.956   .     S
O508   Zn514   1.897   .     S
O509   Zn513   1.999   .     S
O510   Zn514   1.999   .     S
O511   Zn513   1.897   .     S
O512   Zn514   1.956   .     S
N515   C517    1.447   .     S
N515   H516    1.031   .     S
C517   H518    1.110   .     S
C517   H519    1.111   .     S
C517   H520    1.109   .     S
N521   H522    1.031   .     S
N521   C523    1.448   .     S
C523   H526    1.111   .     S
C523   H524    1.110   .     S
C523   H525    1.111   .     S
Br527  C1080   1.937   .     S
C529   O572    1.284   .     A
C529   C545    1.419   .     S
C529   O571    1.282   .     A
C530   C531    1.406   .     A
C530   C1126   1.419   .     S
C530   C1150   1.422   .     S
C531   C538    1.411   .     A
C531   C535    1.411   .     A
C532   C536    1.392   .     A
C532   C1124   1.419   1_554 S
C532   C1127   1.427   1_554 S
C533   C534    1.415   .     A
C533   C1126   1.427   .     S
C533   C1146   1.424   .     S
C534   C535    1.404   .     A
C534   N587    1.425   .     S
C535   Br594   1.929   .     S
C536   C553    1.386   .     A
C536   H564    1.076   .     S
C537   C553    1.406   .     A
C537   C552    1.409   .     A
C537   N581    1.423   .     S
C538   C554    1.400   .     A
C538   C540    1.461   .     S
C539   H568    1.084   .     S
C539   C545    1.397   .     A
C539   C145    1.370   1_565 S
C540   O573    1.290   .     A
C540   O574    1.295   .     A
C541   C542    1.397   .     A
C541   H557    1.084   .     S
C542   C550    1.419   .     S
C542   C543    1.397   .     A
C543   H558    1.084   .     S
C544   H559    1.084   .     S
C544   C545    1.397   .     A
C544   C147    1.369   1_565 S
C546   N570    1.367   .     A
C546   H560    1.082   .     S
C546   C415    1.416   1_655 S
C547   H561    1.082   .     S
C547   N569    1.366   .     A
C548   H562    1.082   .     S
C548   N569    1.366   .     A
C549   H563    1.079   .     S
C549   N570    1.366   .     A
C549   C416    1.416   1_655 S
C550   O576    1.283   .     A
C550   O575    1.283   .     A
C551   O577    1.295   .     A
C551   C553    1.462   .     S
C551   O578    1.291   .     A
C552   C1127   1.424   1_554 S
C552   Br1187  1.937   1_554 S
C554   H565    1.083   .     S
C554   C555    1.387   .     A
C555   C1150   1.392   .     S
C555   H1161   1.083   .     S
C556   H566    1.077   .     S
C556   C1124   1.422   1_554 S
C556   C1149   1.392   1_554 S
H567   C1149   1.083   1_554 S
N569   Zn579   2.009   .     S
N570   Zn580   2.009   .     S
O571   Zn579   1.999   .     S
O572   Zn580   1.999   .     S
O573   Zn579   1.956   .     S
O574   Zn580   1.897   .     S
O575   Zn579   1.999   .     S
O576   Zn580   1.999   .     S
O577   Zn579   1.897   .     S
O578   Zn580   1.956   .     S
N581   C583    1.447   .     S
N581   H582    1.031   .     S
C583   H584    1.110   .     S
C583   H585    1.111   .     S
C583   H586    1.109   .     S
N587   H588    1.031   .     S
N587   C589    1.448   .     S
C589   H592    1.111   .     S
C589   H590    1.110   .     S
C589   H591    1.111   .     S
Br593  C1146   1.937   .     S
C595   O638    1.284   .     A
C595   C611    1.419   .     S
C595   O637    1.282   .     A
C596   C597    1.406   .     A
C596   C4      1.419   1_556 S
C596   C28     1.422   1_556 S
C597   C604    1.411   .     A
C597   C601    1.411   .     A
C598   C602    1.392   .     A
C599   C600    1.415   .     A
C599   C4      1.427   1_556 S
C599   C24     1.424   1_556 S
C600   C601    1.404   .     A
C600   N653    1.425   .     S
C601   Br660   1.929   .     S
C602   C619    1.386   .     A
C602   H630    1.076   .     S
C603   C619    1.406   .     A
C603   C618    1.409   .     A
C603   N647    1.423   .     S
C604   C620    1.400   .     A
C604   C606    1.461   .     S
C605   H634    1.084   .     S
C605   C611    1.397   .     A
C605   C805    1.370   .     S
C606   O639    1.290   .     A
C606   O640    1.295   .     A
C607   C608    1.397   .     A
C607   H623    1.084   .     S
C607   C1001   1.370   1_545 S
C608   C616    1.419   .     S
C608   C609    1.397   .     A
C609   H624    1.084   .     S
C609   C1006   1.369   1_545 S
C610   H625    1.084   .     S
C610   C611    1.397   .     A
C610   C807    1.369   .     S
C612   N636    1.367   .     A
C612   H626    1.082   .     S
C612   C679    1.416   .     S
C613   H627    1.082   .     S
C613   N635    1.366   .     A
C613   C744    1.416   1_455 S
C614   H628    1.082   .     S
C614   N635    1.366   .     A
C614   C747    1.416   1_455 S
C615   H629    1.079   .     S
C615   N636    1.366   .     A
C615   C680    1.416   .     S
C616   O642    1.283   .     A
C616   O641    1.283   .     A
C617   O643    1.295   .     A
C617   C619    1.462   .     S
C617   O644    1.291   .     A
C620   H631    1.083   .     S
C620   C621    1.387   .     A
C621   C28     1.392   1_556 S
C621   H39     1.083   1_556 S
C622   H632    1.077   .     S
N635   Zn645   2.009   .     S
N636   Zn646   2.009   .     S
O637   Zn645   1.999   .     S
O638   Zn646   1.999   .     S
O639   Zn645   1.956   .     S
O640   Zn646   1.897   .     S
O641   Zn645   1.999   .     S
O642   Zn646   1.999   .     S
O643   Zn645   1.897   .     S
O644   Zn646   1.956   .     S
N647   C649    1.447   .     S
N647   H648    1.031   .     S
C649   H650    1.110   .     S
C649   H651    1.111   .     S
C649   H652    1.109   .     S
N653   H654    1.031   .     S
N653   C655    1.448   .     S
C655   H658    1.111   .     S
C655   H656    1.110   .     S
C655   H657    1.111   .     S
Br659  C24     1.937   1_556 S
C661   O704    1.284   .     A
C661   C677    1.419   .     S
C661   O703    1.282   .     A
C662   C663    1.406   .     A
C662   C70     1.419   1_556 S
C662   C94     1.422   1_556 S
C663   C670    1.411   .     A
C663   C667    1.411   .     A
C664   C668    1.392   .     A
C665   C666    1.415   .     A
C665   C70     1.427   1_556 S
C665   C90     1.424   1_556 S
C666   C667    1.404   .     A
C666   N719    1.425   .     S
C667   Br726   1.929   .     S
C668   C685    1.386   .     A
C668   H696    1.076   .     S
C669   C685    1.406   .     A
C669   C684    1.409   .     A
C669   N713    1.423   .     S
C670   C686    1.400   .     A
C670   C672    1.461   .     S
C671   H700    1.084   .     S
C671   C677    1.397   .     A
C671   C871    1.370   .     S
C672   O705    1.290   .     A
C672   O706    1.295   .     A
C673   C674    1.397   .     A
C673   H689    1.084   .     S
C673   C1067   1.370   1_545 S
C674   C682    1.419   .     S
C674   C675    1.397   .     A
C675   H690    1.084   .     S
C675   C1072   1.369   1_545 S
C676   H691    1.084   .     S
C676   C677    1.397   .     A
C676   C873    1.369   .     S
C678   N702    1.367   .     A
C678   H692    1.082   .     S
C678   C745    1.416   .     S
C679   H693    1.082   .     S
C679   N701    1.366   .     A
C680   H694    1.082   .     S
C680   N701    1.366   .     A
C681   H695    1.079   .     S
C681   N702    1.366   .     A
C681   C746    1.416   .     S
C682   O708    1.283   .     A
C682   O707    1.283   .     A
C683   O709    1.295   .     A
C683   C685    1.462   .     S
C683   O710    1.291   .     A
C686   H697    1.083   .     S
C686   C687    1.387   .     A
C687   C94     1.392   1_556 S
C687   H105    1.083   1_556 S
C688   H698    1.077   .     S
N701   Zn711   2.009   .     S
N702   Zn712   2.009   .     S
O703   Zn711   1.999   .     S
O704   Zn712   1.999   .     S
O705   Zn711   1.956   .     S
O706   Zn712   1.897   .     S
O707   Zn711   1.999   .     S
O708   Zn712   1.999   .     S
O709   Zn711   1.897   .     S
O710   Zn712   1.956   .     S
N713   C715    1.447   .     S
N713   H714    1.031   .     S
C715   H716    1.110   .     S
C715   H717    1.111   .     S
C715   H718    1.109   .     S
N719   H720    1.031   .     S
N719   C721    1.448   .     S
C721   H724    1.111   .     S
C721   H722    1.110   .     S
C721   H723    1.111   .     S
Br725  C90     1.937   1_556 S
C727   O770    1.284   .     A
C727   C743    1.419   .     S
C727   O769    1.282   .     A
C728   C729    1.406   .     A
C728   C136    1.419   1_556 S
C728   C160    1.422   1_556 S
C729   C736    1.411   .     A
C729   C733    1.411   .     A
C730   C734    1.392   .     A
C731   C732    1.415   .     A
C731   C136    1.427   1_556 S
C731   C156    1.424   1_556 S
C732   C733    1.404   .     A
C732   N785    1.425   .     S
C733   Br792   1.929   .     S
C734   C751    1.386   .     A
C734   H762    1.076   .     S
C735   C751    1.406   .     A
C735   C750    1.409   .     A
C735   N779    1.423   .     S
C736   C752    1.400   .     A
C736   C738    1.461   .     S
C737   H766    1.084   .     S
C737   C743    1.397   .     A
C737   C937    1.370   .     S
C738   O771    1.290   .     A
C738   O772    1.295   .     A
C739   C740    1.397   .     A
C739   H755    1.084   .     S
C739   C1133   1.370   1_545 S
C740   C748    1.419   .     S
C740   C741    1.397   .     A
C741   H756    1.084   .     S
C741   C1138   1.369   1_545 S
C742   H757    1.084   .     S
C742   C743    1.397   .     A
C742   C939    1.369   .     S
C744   N768    1.367   .     A
C744   H758    1.082   .     S
C744   C613    1.416   1_655 S
C745   H759    1.082   .     S
C745   N767    1.366   .     A
C746   H760    1.082   .     S
C746   N767    1.366   .     A
C747   H761    1.079   .     S
C747   N768    1.366   .     A
C747   C614    1.416   1_655 S
C748   O774    1.283   .     A
C748   O773    1.283   .     A
C749   O775    1.295   .     A
C749   C751    1.462   .     S
C749   O776    1.291   .     A
C752   H763    1.083   .     S
C752   C753    1.387   .     A
C753   C160    1.392   1_556 S
C753   H171    1.083   1_556 S
C754   H764    1.077   .     S
N767   Zn777   2.009   .     S
N768   Zn778   2.009   .     S
O769   Zn777   1.999   .     S
O770   Zn778   1.999   .     S
O771   Zn777   1.956   .     S
O772   Zn778   1.897   .     S
O773   Zn777   1.999   .     S
O774   Zn778   1.999   .     S
O775   Zn777   1.897   .     S
O776   Zn778   1.956   .     S
N779   C781    1.447   .     S
N779   H780    1.031   .     S
C781   H782    1.110   .     S
C781   H783    1.111   .     S
C781   H784    1.109   .     S
N785   H786    1.031   .     S
N785   C787    1.448   .     S
C787   H790    1.111   .     S
C787   H788    1.110   .     S
C787   H789    1.111   .     S
Br791  C156    1.937   1_556 S
C793   O836    1.284   .     A
C793   C809    1.419   .     S
C793   O835    1.282   .     A
C794   C795    1.406   .     A
C794   C202    1.419   1_556 S
C794   C226    1.422   1_556 S
C795   C802    1.411   .     A
C795   C799    1.411   .     A
C796   C800    1.392   .     A
C797   C798    1.415   .     A
C797   C202    1.427   1_556 S
C797   C222    1.424   1_556 S
C798   C799    1.404   .     A
C798   N851    1.425   .     S
C799   Br858   1.929   .     S
C800   C817    1.386   .     A
C800   H828    1.076   .     S
C801   C817    1.406   .     A
C801   C816    1.409   .     A
C801   N845    1.423   .     S
C802   C818    1.400   .     A
C802   C804    1.461   .     S
C803   H832    1.084   .     S
C803   C809    1.397   .     A
C803   C1003   1.370   .     S
C804   O837    1.290   .     A
C804   O838    1.295   .     A
C805   C806    1.397   .     A
C805   H821    1.084   .     S
C806   C814    1.419   .     S
C806   C807    1.397   .     A
C807   H822    1.084   .     S
C808   H823    1.084   .     S
C808   C809    1.397   .     A
C808   C1005   1.369   .     S
C810   N834    1.367   .     A
C810   H824    1.082   .     S
C810   C877    1.416   .     S
C811   H825    1.082   .     S
C811   N833    1.366   .     A
C811   C942    1.416   1_455 S
C812   H826    1.082   .     S
C812   N833    1.366   .     A
C812   C945    1.416   1_455 S
C813   H827    1.079   .     S
C813   N834    1.366   .     A
C813   C878    1.416   .     S
C814   O840    1.283   .     A
C814   O839    1.283   .     A
C815   O841    1.295   .     A
C815   C817    1.462   .     S
C815   O842    1.291   .     A
C818   H829    1.083   .     S
C818   C819    1.387   .     A
C819   C226    1.392   1_556 S
C819   H237    1.083   1_556 S
C820   H830    1.077   .     S
N833   Zn843   2.009   .     S
N834   Zn844   2.009   .     S
O835   Zn843   1.999   .     S
O836   Zn844   1.999   .     S
O837   Zn843   1.956   .     S
O838   Zn844   1.897   .     S
O839   Zn843   1.999   .     S
O840   Zn844   1.999   .     S
O841   Zn843   1.897   .     S
O842   Zn844   1.956   .     S
N845   C847    1.447   .     S
N845   H846    1.031   .     S
C847   H848    1.110   .     S
C847   H849    1.111   .     S
C847   H850    1.109   .     S
N851   H852    1.031   .     S
N851   C853    1.448   .     S
C853   H856    1.111   .     S
C853   H854    1.110   .     S
C853   H855    1.111   .     S
Br857  C222    1.937   1_556 S
C859   O902    1.284   .     A
C859   C875    1.419   .     S
C859   O901    1.282   .     A
C860   C861    1.406   .     A
C860   C268    1.419   1_556 S
C860   C292    1.422   1_556 S
C861   C868    1.411   .     A
C861   C865    1.411   .     A
C862   C866    1.392   .     A
C863   C864    1.415   .     A
C863   C268    1.427   1_556 S
C863   C288    1.424   1_556 S
C864   C865    1.404   .     A
C864   N917    1.425   .     S
C865   Br924   1.929   .     S
C866   C883    1.386   .     A
C866   H894    1.076   .     S
C867   C883    1.406   .     A
C867   C882    1.409   .     A
C867   N911    1.423   .     S
C868   C884    1.400   .     A
C868   C870    1.461   .     S
C869   H898    1.084   .     S
C869   C875    1.397   .     A
C869   C1069   1.370   .     S
C870   O903    1.290   .     A
C870   O904    1.295   .     A
C871   C872    1.397   .     A
C871   H887    1.084   .     S
C872   C880    1.419   .     S
C872   C873    1.397   .     A
C873   H888    1.084   .     S
C874   H889    1.084   .     S
C874   C875    1.397   .     A
C874   C1071   1.369   .     S
C876   N900    1.367   .     A
C876   H890    1.082   .     S
C876   C943    1.416   .     S
C877   H891    1.082   .     S
C877   N899    1.366   .     A
C878   H892    1.082   .     S
C878   N899    1.366   .     A
C879   H893    1.079   .     S
C879   N900    1.366   .     A
C879   C944    1.416   .     S
C880   O906    1.283   .     A
C880   O905    1.283   .     A
C881   O907    1.295   .     A
C881   C883    1.462   .     S
C881   O908    1.291   .     A
C884   H895    1.083   .     S
C884   C885    1.387   .     A
C885   C292    1.392   1_556 S
C885   H303    1.083   1_556 S
C886   H896    1.077   .     S
N899   Zn909   2.009   .     S
N900   Zn910   2.009   .     S
O901   Zn909   1.999   .     S
O902   Zn910   1.999   .     S
O903   Zn909   1.956   .     S
O904   Zn910   1.897   .     S
O905   Zn909   1.999   .     S
O906   Zn910   1.999   .     S
O907   Zn909   1.897   .     S
O908   Zn910   1.956   .     S
N911   C913    1.447   .     S
N911   H912    1.031   .     S
C913   H914    1.110   .     S
C913   H915    1.111   .     S
C913   H916    1.109   .     S
N917   H918    1.031   .     S
N917   C919    1.448   .     S
C919   H922    1.111   .     S
C919   H920    1.110   .     S
C919   H921    1.111   .     S
Br923  C288    1.937   1_556 S
C925   O968    1.284   .     A
C925   C941    1.419   .     S
C925   O967    1.282   .     A
C926   C927    1.406   .     A
C926   C334    1.419   1_556 S
C926   C358    1.422   1_556 S
C927   C934    1.411   .     A
C927   C931    1.411   .     A
C928   C932    1.392   .     A
C929   C930    1.415   .     A
C929   C334    1.427   1_556 S
C929   C354    1.424   1_556 S
C930   C931    1.404   .     A
C930   N983    1.425   .     S
C931   Br990   1.929   .     S
C932   C949    1.386   .     A
C932   H960    1.076   .     S
C933   C949    1.406   .     A
C933   C948    1.409   .     A
C933   N977    1.423   .     S
C934   C950    1.400   .     A
C934   C936    1.461   .     S
C935   H964    1.084   .     S
C935   C941    1.397   .     A
C935   C1135   1.370   .     S
C936   O969    1.290   .     A
C936   O970    1.295   .     A
C937   C938    1.397   .     A
C937   H953    1.084   .     S
C938   C946    1.419   .     S
C938   C939    1.397   .     A
C939   H954    1.084   .     S
C940   H955    1.084   .     S
C940   C941    1.397   .     A
C940   C1137   1.369   .     S
C942   N966    1.367   .     A
C942   H956    1.082   .     S
C942   C811    1.416   1_655 S
C943   H957    1.082   .     S
C943   N965    1.366   .     A
C944   H958    1.082   .     S
C944   N965    1.366   .     A
C945   H959    1.079   .     S
C945   N966    1.366   .     A
C945   C812    1.416   1_655 S
C946   O972    1.283   .     A
C946   O971    1.283   .     A
C947   O973    1.295   .     A
C947   C949    1.462   .     S
C947   O974    1.291   .     A
C950   H961    1.083   .     S
C950   C951    1.387   .     A
C951   C358    1.392   1_556 S
C951   H369    1.083   1_556 S
C952   H962    1.077   .     S
N965   Zn975   2.009   .     S
N966   Zn976   2.009   .     S
O967   Zn975   1.999   .     S
O968   Zn976   1.999   .     S
O969   Zn975   1.956   .     S
O970   Zn976   1.897   .     S
O971   Zn975   1.999   .     S
O972   Zn976   1.999   .     S
O973   Zn975   1.897   .     S
O974   Zn976   1.956   .     S
N977   C979    1.447   .     S
N977   H978    1.031   .     S
C979   H980    1.110   .     S
C979   H981    1.111   .     S
C979   H982    1.109   .     S
N983   H984    1.031   .     S
N983   C985    1.448   .     S
C985   H988    1.111   .     S
C985   H986    1.110   .     S
C985   H987    1.111   .     S
Br989  C354    1.937   1_556 S
C991   O1034   1.284   .     A
C991   C1007   1.419   .     S
C991   O1033   1.282   .     A
C992   C993    1.406   .     A
C992   C400    1.419   1_556 S
C992   C424    1.422   1_556 S
C993   C1000   1.411   .     A
C993   C997    1.411   .     A
C994   C998    1.392   .     A
C995   C996    1.415   .     A
C995   C400    1.427   1_556 S
C995   C420    1.424   1_556 S
C996   C997    1.404   .     A
C996   N1049   1.425   .     S
C997   Br1056  1.929   .     S
C998   C1015   1.386   .     A
C998   H1026   1.076   .     S
C999   C1015   1.406   .     A
C999   C1014   1.409   .     A
C999   N1043   1.423   .     S
C1000  C1016   1.400   .     A
C1000  C1002   1.461   .     S
C1001  H1030   1.084   .     S
C1001  C1007   1.397   .     A
C1001  C607    1.370   1_565 S
C1002  O1035   1.290   .     A
C1002  O1036   1.295   .     A
C1003  C1004   1.397   .     A
C1003  H1019   1.084   .     S
C1004  C1012   1.419   .     S
C1004  C1005   1.397   .     A
C1005  H1020   1.084   .     S
C1006  H1021   1.084   .     S
C1006  C1007   1.397   .     A
C1006  C609    1.369   1_565 S
C1008  N1032   1.367   .     A
C1008  H1022   1.082   .     S
C1008  C1075   1.416   .     S
C1009  H1023   1.082   .     S
C1009  N1031   1.366   .     A
C1009  C1140   1.416   1_455 S
C1010  H1024   1.082   .     S
C1010  N1031   1.366   .     A
C1010  C1143   1.416   1_455 S
C1011  H1025   1.079   .     S
C1011  N1032   1.366   .     A
C1011  C1076   1.416   .     S
C1012  O1038   1.283   .     A
C1012  O1037   1.283   .     A
C1013  O1039   1.295   .     A
C1013  C1015   1.462   .     S
C1013  O1040   1.291   .     A
C1016  H1027   1.083   .     S
C1016  C1017   1.387   .     A
C1017  C424    1.392   1_556 S
C1017  H435    1.083   1_556 S
C1018  H1028   1.077   .     S
N1031  Zn1041  2.009   .     S
N1032  Zn1042  2.009   .     S
O1033  Zn1041  1.999   .     S
O1034  Zn1042  1.999   .     S
O1035  Zn1041  1.956   .     S
O1036  Zn1042  1.897   .     S
O1037  Zn1041  1.999   .     S
O1038  Zn1042  1.999   .     S
O1039  Zn1041  1.897   .     S
O1040  Zn1042  1.956   .     S
N1043  C1045   1.447   .     S
N1043  H1044   1.031   .     S
C1045  H1046   1.110   .     S
C1045  H1047   1.111   .     S
C1045  H1048   1.109   .     S
N1049  H1050   1.031   .     S
N1049  C1051   1.448   .     S
C1051  H1054   1.111   .     S
C1051  H1052   1.110   .     S
C1051  H1053   1.111   .     S
Br1055 C420    1.937   1_556 S
C1057  O1100   1.284   .     A
C1057  C1073   1.419   .     S
C1057  O1099   1.282   .     A
C1058  C1059   1.406   .     A
C1058  C466    1.419   1_556 S
C1058  C490    1.422   1_556 S
C1059  C1066   1.411   .     A
C1059  C1063   1.411   .     A
C1060  C1064   1.392   .     A
C1061  C1062   1.415   .     A
C1061  C466    1.427   1_556 S
C1061  C486    1.424   1_556 S
C1062  C1063   1.404   .     A
C1062  N1115   1.425   .     S
C1063  Br1122  1.929   .     S
C1064  C1081   1.386   .     A
C1064  H1092   1.076   .     S
C1065  C1081   1.406   .     A
C1065  C1080   1.409   .     A
C1065  N1109   1.423   .     S
C1066  C1082   1.400   .     A
C1066  C1068   1.461   .     S
C1067  H1096   1.084   .     S
C1067  C1073   1.397   .     A
C1067  C673    1.370   1_565 S
C1068  O1101   1.290   .     A
C1068  O1102   1.295   .     A
C1069  C1070   1.397   .     A
C1069  H1085   1.084   .     S
C1070  C1078   1.419   .     S
C1070  C1071   1.397   .     A
C1071  H1086   1.084   .     S
C1072  H1087   1.084   .     S
C1072  C1073   1.397   .     A
C1072  C675    1.369   1_565 S
C1074  N1098   1.367   .     A
C1074  H1088   1.082   .     S
C1074  C1141   1.416   .     S
C1075  H1089   1.082   .     S
C1075  N1097   1.366   .     A
C1076  H1090   1.082   .     S
C1076  N1097   1.366   .     A
C1077  H1091   1.079   .     S
C1077  N1098   1.366   .     A
C1077  C1142   1.416   .     S
C1078  O1104   1.283   .     A
C1078  O1103   1.283   .     A
C1079  O1105   1.295   .     A
C1079  C1081   1.462   .     S
C1079  O1106   1.291   .     A
C1082  H1093   1.083   .     S
C1082  C1083   1.387   .     A
C1083  C490    1.392   1_556 S
C1083  H501    1.083   1_556 S
C1084  H1094   1.077   .     S
N1097  Zn1107  2.009   .     S
N1098  Zn1108  2.009   .     S
O1099  Zn1107  1.999   .     S
O1100  Zn1108  1.999   .     S
O1101  Zn1107  1.956   .     S
O1102  Zn1108  1.897   .     S
O1103  Zn1107  1.999   .     S
O1104  Zn1108  1.999   .     S
O1105  Zn1107  1.897   .     S
O1106  Zn1108  1.956   .     S
N1109  C1111   1.447   .     S
N1109  H1110   1.031   .     S
C1111  H1112   1.110   .     S
C1111  H1113   1.111   .     S
C1111  H1114   1.109   .     S
N1115  H1116   1.031   .     S
N1115  C1117   1.448   .     S
C1117  H1120   1.111   .     S
C1117  H1118   1.110   .     S
C1117  H1119   1.111   .     S
Br1121 C486    1.937   1_556 S
C1123  O1166   1.284   .     A
C1123  C1139   1.419   .     S
C1123  O1165   1.282   .     A
C1124  C1125   1.406   .     A
C1124  C532    1.419   1_556 S
C1124  C556    1.422   1_556 S
C1125  C1132   1.411   .     A
C1125  C1129   1.411   .     A
C1126  C1130   1.392   .     A
C1127  C1128   1.415   .     A
C1127  C532    1.427   1_556 S
C1127  C552    1.424   1_556 S
C1128  C1129   1.404   .     A
C1128  N1181   1.425   .     S
C1129  Br1188  1.929   .     S
C1130  C1147   1.386   .     A
C1130  H1158   1.076   .     S
C1131  C1147   1.406   .     A
C1131  C1146   1.409   .     A
C1131  N1175   1.423   .     S
C1132  C1148   1.400   .     A
C1132  C1134   1.461   .     S
C1133  H1162   1.084   .     S
C1133  C1139   1.397   .     A
C1133  C739    1.370   1_565 S
C1134  O1167   1.290   .     A
C1134  O1168   1.295   .     A
C1135  C1136   1.397   .     A
C1135  H1151   1.084   .     S
C1136  C1144   1.419   .     S
C1136  C1137   1.397   .     A
C1137  H1152   1.084   .     S
C1138  H1153   1.084   .     S
C1138  C1139   1.397   .     A
C1138  C741    1.369   1_565 S
C1140  N1164   1.367   .     A
C1140  H1154   1.082   .     S
C1140  C1009   1.416   1_655 S
C1141  H1155   1.082   .     S
C1141  N1163   1.366   .     A
C1142  H1156   1.082   .     S
C1142  N1163   1.366   .     A
C1143  H1157   1.079   .     S
C1143  N1164   1.366   .     A
C1143  C1010   1.416   1_655 S
C1144  O1170   1.283   .     A
C1144  O1169   1.283   .     A
C1145  O1171   1.295   .     A
C1145  C1147   1.462   .     S
C1145  O1172   1.291   .     A
C1148  H1159   1.083   .     S
C1148  C1149   1.387   .     A
C1149  C556    1.392   1_556 S
C1149  H567    1.083   1_556 S
C1150  H1160   1.077   .     S
N1163  Zn1173  2.009   .     S
N1164  Zn1174  2.009   .     S
O1165  Zn1173  1.999   .     S
O1166  Zn1174  1.999   .     S
O1167  Zn1173  1.956   .     S
O1168  Zn1174  1.897   .     S
O1169  Zn1173  1.999   .     S
O1170  Zn1174  1.999   .     S
O1171  Zn1173  1.897   .     S
O1172  Zn1174  1.956   .     S
N1175  C1177   1.447   .     S
N1175  H1176   1.031   .     S
C1177  H1178   1.110   .     S
C1177  H1179   1.111   .     S
C1177  H1180   1.109   .     S
N1181  H1182   1.031   .     S
N1181  C1183   1.448   .     S
C1183  H1186   1.111   .     S
C1183  H1184   1.110   .     S
C1183  H1185   1.111   .     S
Br1187 C552    1.937   1_556 S
