data_str_m3_o2_o10_pcu_sym.3
_audit_creation_date              2020-01-03
_audit_creation_method            'Materials Studio'
_symmetry_space_group_name_H-M    'P1'
_symmetry_Int_Tables_number       1
_symmetry_cell_setting            triclinic
loop_
_symmetry_equiv_pos_as_xyz
  x,y,z
_cell_length_a                    25.9302
_cell_length_b                    29.9680
_cell_length_c                    28.5317
_cell_angle_alpha                 91.0988
_cell_angle_beta                  99.6893
_cell_angle_gamma                 93.2316
loop_
_atom_site_label
_atom_site_type_symbol
_atom_site_fract_x
_atom_site_fract_y
_atom_site_fract_z
_atom_site_U_iso_or_equiv
_atom_site_adp_type
_atom_site_occupancy
O1     O     0.16667   0.18453   0.28974   0.00000  Uiso   1.00
O2     O     0.16666   0.31546   0.21026   0.00000  Uiso   1.00
O3     O     0.16667   0.18453   0.21026   0.00000  Uiso   1.00
O4     O     0.16666   0.31547   0.28974   0.00000  Uiso   1.00
C5     C     0.17007   0.16382   0.24999   0.00000  Uiso   1.00
C6     C     0.16680   0.33584   0.25032   0.00000  Uiso   1.00
O7     O     0.09058   0.25000   0.28044   0.00000  Uiso   1.00
O8     O     0.24275   0.25000   0.21955   0.00000  Uiso   1.00
O9     O     0.09058   0.24999   0.20096   0.00000  Uiso   1.00
O10    O     0.24275   0.25000   0.29903   0.00000  Uiso   1.00
C11    C     0.06695   0.24922   0.23767   0.00000  Uiso   1.00
C12    C     0.26626   0.24993   0.26255   0.00000  Uiso   1.00
Zn13   Zn    0.16667   0.25000   0.30307   0.00000  Uiso   1.00
Zn14   Zn    0.16667   0.24999   0.19693   0.00000  Uiso   1.00
C15    C     0.01202   0.24152   0.23300   0.00000  Uiso   1.00
C16    C     0.32122   0.25607   0.26857   0.00000  Uiso   1.00
C17    C     0.16589   0.04799   0.29401   0.00000  Uiso   1.00
C18    C     0.11386   0.44781   0.23111   0.00000  Uiso   1.00
C19    C     0.18024   0.09323   0.29343   0.00000  Uiso   1.00
C20    C     0.11660   0.40155   0.23114   0.00000  Uiso   1.00
C21    C     0.17386   0.11523   0.24970   0.00000  Uiso   1.00
C22    C     0.16398   0.38331   0.25037   0.00000  Uiso   1.00
C23    C     0.16737   0.08962   0.20654   0.00000  Uiso   1.00
C24    C     0.20850   0.41036   0.26958   0.00000  Uiso   1.00
C25    C     0.16024   0.04327   0.20768   0.00000  Uiso   1.00
C26    C     0.20518   0.45626   0.27221   0.00000  Uiso   1.00
C27    C     0.15715   0.02298   0.25119   0.00000  Uiso   1.00
C28    C     0.15775   0.47484   0.25276   0.00000  Uiso   1.00
C29    C     0.12574   0.22716   0.04569   0.00000  Uiso   1.00
C30    C     0.17526   0.28908   0.45039   0.00000  Uiso   1.00
C31    C     0.12811   0.22596   0.09550   0.00000  Uiso   1.00
C32    C     0.18189   0.28768   0.40228   0.00000  Uiso   1.00
N33    N     0.16667   0.24999   0.12623   0.00000  Uiso   1.00
N34    N     0.16667   0.25001   0.37376   0.00000  Uiso   1.00
C35    C     0.20555   0.27356   0.10848   0.00000  Uiso   1.00
C36    C     0.15075   0.21201   0.39467   0.00000  Uiso   1.00
C37    C     0.20922   0.26970   0.05936   0.00000  Uiso   1.00
C38    C     0.15848   0.20922   0.44491   0.00000  Uiso   1.00
C39    C     0.16721   0.24856   0.02683   0.00000  Uiso   1.00
C40    C     0.16705   0.24893   0.47362   0.00000  Uiso   1.00
Br41   Br    0.31364   0.19770   0.18416   0.00000  Uiso   1.00
Br42   Br    0.01913   0.29458   0.32280   0.00000  Uiso   1.00
Br43   Br    0.15964   0.02014   0.35352   0.00000  Uiso   1.00
Br44   Br    0.05063   0.47385   0.20135   0.00000  Uiso   1.00
Br45   Br    0.22102   0.12064   0.35071   0.00000  Uiso   1.00
Br46   Br    0.05571   0.36324   0.20537   0.00000  Uiso   1.00
Br47   Br    0.17456   0.11413   0.14564   0.00000  Uiso   1.00
Br48   Br    0.27544   0.38596   0.28925   0.00000  Uiso   1.00
O49    O     0.15190   0.01806   0.16550   0.00000  Uiso   1.00
C50    C     0.20020   0.00440   0.15521   0.00000  Uiso   1.00
H51    H     0.21235   0.47484   0.17626   0.00000  Uiso   1.00
H52    H     0.23208   0.03145   0.16251   0.00000  Uiso   1.00
C53    C     0.19334   0.49098   0.10275   0.00000  Uiso   1.00
H54    H     0.17949   0.01943   0.08060   0.00000  Uiso   1.00
H55    H     0.23136   0.48156   0.09373   0.00000  Uiso   1.00
H56    H     0.16428   0.46202   0.09470   0.00000  Uiso   1.00
O57    O     0.24616   0.48219   0.29888   0.00000  Uiso   1.00
C58    C     0.27984   0.00030   0.26918   0.00000  Uiso   1.00
H59    H     0.26193   0.02851   0.24921   0.00000  Uiso   1.00
H60    H     0.28943   0.47475   0.24369   0.00000  Uiso   1.00
C61    C     0.33050   0.01865   0.30006   0.00000  Uiso   1.00
H62    H     0.01815   0.49094   0.31850   0.00000  Uiso   1.00
H63    H     0.02285   0.03586   0.27773   0.00000  Uiso   1.00
H64    H     0.32170   0.04304   0.32700   0.00000  Uiso   1.00
Br65   Br    0.06329   0.20248   0.00422   0.00000  Uiso   1.00
Br66   Br    0.17229   0.34639   0.48176   0.00000  Uiso   1.00
Br67   Br    0.07696   0.18852   0.11922   0.00000  Uiso   1.00
Br68   Br    0.22048   0.33757   0.38159   0.00000  Uiso   1.00
O69    O     0.24355   0.29890   0.13915   0.00000  Uiso   1.00
C70    C     0.23005   0.34404   0.14068   0.00000  Uiso   1.00
H71    H     0.23966   0.35613   0.17830   0.00000  Uiso   1.00
H72    H     0.18758   0.34905   0.12842   0.00000  Uiso   1.00
C73    C     0.26315   0.37362   0.11293   0.00000  Uiso   1.00
H74    H     0.24834   0.36990   0.07425   0.00000  Uiso   1.00
H75    H     0.26109   0.40915   0.12374   0.00000  Uiso   1.00
H76    H     0.30466   0.36495   0.12048   0.00000  Uiso   1.00
O77    O     0.13043   0.17507   0.36680   0.00000  Uiso   1.00
C78    C     0.07545   0.17195   0.36365   0.00000  Uiso   1.00
H79    H     0.05797   0.20432   0.35386   0.00000  Uiso   1.00
H80    H     0.06461   0.16127   0.39804   0.00000  Uiso   1.00
C81    C     0.05207   0.13714   0.32531   0.00000  Uiso   1.00
H82    H     0.06854   0.10430   0.33407   0.00000  Uiso   1.00
H83    H     0.00883   0.13374   0.32294   0.00000  Uiso   1.00
H84    H     0.06127   0.14741   0.29027   0.00000  Uiso   1.00
O85    O     0.25037   0.29138   0.04208   0.00000  Uiso   1.00
C86    C     0.29707   0.26963   0.05612   0.00000  Uiso   1.00
H87    H     0.29471   0.23640   0.03757   0.00000  Uiso   1.00
H88    H     0.30579   0.26500   0.09516   0.00000  Uiso   1.00
C89    C     0.00891   0.29836   0.04250   0.00000  Uiso   1.00
H90    H     0.00812   0.33331   0.05579   0.00000  Uiso   1.00
H91    H     0.04681   0.28538   0.05861   0.00000  Uiso   1.00
H92    H     0.00588   0.29825   0.00320   0.00000  Uiso   1.00
O93    O     0.15332   0.16776   0.46464   0.00000  Uiso   1.00
C94    C     0.20371   0.15375   0.48268   0.00000  Uiso   1.00
H95    H     0.22283   0.17524   0.01367   0.00000  Uiso   1.00
H96    H     0.22922   0.15442   0.45489   0.00000  Uiso   1.00
C97    C     0.19863   0.10604   0.49930   0.00000  Uiso   1.00
H98    H     0.18052   0.08346   0.46893   0.00000  Uiso   1.00
H99    H     0.23798   0.09470   0.01400   0.00000  Uiso   1.00
H100   H     0.17378   0.10435   0.02743   0.00000  Uiso   1.00
O101   O     0.50000   0.18453   0.28974   0.00000  Uiso   1.00
O102   O     0.50000   0.31546   0.21026   0.00000  Uiso   1.00
O103   O     0.50000   0.18453   0.21026   0.00000  Uiso   1.00
O104   O     0.50000   0.31547   0.28974   0.00000  Uiso   1.00
C105   C     0.50340   0.16382   0.24999   0.00000  Uiso   1.00
C106   C     0.50013   0.33584   0.25032   0.00000  Uiso   1.00
O107   O     0.42392   0.25000   0.28044   0.00000  Uiso   1.00
O108   O     0.57608   0.25000   0.21955   0.00000  Uiso   1.00
O109   O     0.42392   0.24999   0.20096   0.00000  Uiso   1.00
O110   O     0.57608   0.25000   0.29903   0.00000  Uiso   1.00
C111   C     0.40029   0.24922   0.23767   0.00000  Uiso   1.00
C112   C     0.59959   0.24993   0.26255   0.00000  Uiso   1.00
Zn113  Zn    0.50000   0.25000   0.30307   0.00000  Uiso   1.00
Zn114  Zn    0.50000   0.24999   0.19693   0.00000  Uiso   1.00
C115   C     0.34536   0.24152   0.23300   0.00000  Uiso   1.00
C116   C     0.65455   0.25607   0.26857   0.00000  Uiso   1.00
C117   C     0.49922   0.04799   0.29401   0.00000  Uiso   1.00
C118   C     0.44719   0.44781   0.23111   0.00000  Uiso   1.00
C119   C     0.51358   0.09323   0.29343   0.00000  Uiso   1.00
C120   C     0.44993   0.40155   0.23114   0.00000  Uiso   1.00
C121   C     0.50719   0.11523   0.24970   0.00000  Uiso   1.00
C122   C     0.49731   0.38331   0.25037   0.00000  Uiso   1.00
C123   C     0.50070   0.08962   0.20654   0.00000  Uiso   1.00
C124   C     0.54183   0.41036   0.26958   0.00000  Uiso   1.00
C125   C     0.49357   0.04327   0.20768   0.00000  Uiso   1.00
C126   C     0.53851   0.45626   0.27221   0.00000  Uiso   1.00
C127   C     0.49048   0.02298   0.25119   0.00000  Uiso   1.00
C128   C     0.49108   0.47484   0.25276   0.00000  Uiso   1.00
C129   C     0.45907   0.22716   0.04569   0.00000  Uiso   1.00
C130   C     0.50859   0.28908   0.45039   0.00000  Uiso   1.00
C131   C     0.46144   0.22596   0.09550   0.00000  Uiso   1.00
C132   C     0.51522   0.28768   0.40228   0.00000  Uiso   1.00
N133   N     0.50000   0.24999   0.12623   0.00000  Uiso   1.00
N134   N     0.50000   0.25001   0.37376   0.00000  Uiso   1.00
C135   C     0.53888   0.27356   0.10848   0.00000  Uiso   1.00
C136   C     0.48408   0.21201   0.39467   0.00000  Uiso   1.00
C137   C     0.54255   0.26970   0.05936   0.00000  Uiso   1.00
C138   C     0.49181   0.20922   0.44491   0.00000  Uiso   1.00
C139   C     0.50055   0.24856   0.02683   0.00000  Uiso   1.00
C140   C     0.50039   0.24893   0.47362   0.00000  Uiso   1.00
Br141  Br    0.64697   0.19770   0.18416   0.00000  Uiso   1.00
Br142  Br    0.35246   0.29458   0.32280   0.00000  Uiso   1.00
Br143  Br    0.49298   0.02014   0.35352   0.00000  Uiso   1.00
Br144  Br    0.38396   0.47385   0.20135   0.00000  Uiso   1.00
Br145  Br    0.55435   0.12064   0.35071   0.00000  Uiso   1.00
Br146  Br    0.38904   0.36324   0.20537   0.00000  Uiso   1.00
Br147  Br    0.50789   0.11413   0.14564   0.00000  Uiso   1.00
Br148  Br    0.60878   0.38596   0.28925   0.00000  Uiso   1.00
O149   O     0.48524   0.01806   0.16550   0.00000  Uiso   1.00
C150   C     0.53354   0.00440   0.15521   0.00000  Uiso   1.00
H151   H     0.54568   0.47484   0.17626   0.00000  Uiso   1.00
H152   H     0.56541   0.03145   0.16251   0.00000  Uiso   1.00
C153   C     0.52667   0.49098   0.10275   0.00000  Uiso   1.00
H154   H     0.51282   0.01943   0.08060   0.00000  Uiso   1.00
H155   H     0.56469   0.48156   0.09373   0.00000  Uiso   1.00
H156   H     0.49762   0.46202   0.09470   0.00000  Uiso   1.00
O157   O     0.57949   0.48219   0.29888   0.00000  Uiso   1.00
C158   C     0.61317   0.00030   0.26918   0.00000  Uiso   1.00
H159   H     0.59527   0.02851   0.24921   0.00000  Uiso   1.00
H160   H     0.62276   0.47475   0.24369   0.00000  Uiso   1.00
C161   C     0.66383   0.01865   0.30006   0.00000  Uiso   1.00
H162   H     0.35149   0.49094   0.31850   0.00000  Uiso   1.00
H163   H     0.35619   0.03586   0.27773   0.00000  Uiso   1.00
H164   H     0.65503   0.04304   0.32700   0.00000  Uiso   1.00
Br165  Br    0.39663   0.20248   0.00422   0.00000  Uiso   1.00
Br166  Br    0.50562   0.34639   0.48176   0.00000  Uiso   1.00
Br167  Br    0.41029   0.18852   0.11922   0.00000  Uiso   1.00
Br168  Br    0.55382   0.33757   0.38159   0.00000  Uiso   1.00
O169   O     0.57688   0.29890   0.13915   0.00000  Uiso   1.00
C170   C     0.56339   0.34404   0.14068   0.00000  Uiso   1.00
H171   H     0.57299   0.35613   0.17830   0.00000  Uiso   1.00
H172   H     0.52091   0.34905   0.12842   0.00000  Uiso   1.00
C173   C     0.59649   0.37362   0.11293   0.00000  Uiso   1.00
H174   H     0.58167   0.36990   0.07425   0.00000  Uiso   1.00
H175   H     0.59442   0.40915   0.12374   0.00000  Uiso   1.00
H176   H     0.63799   0.36495   0.12048   0.00000  Uiso   1.00
O177   O     0.46376   0.17507   0.36680   0.00000  Uiso   1.00
C178   C     0.40878   0.17195   0.36365   0.00000  Uiso   1.00
H179   H     0.39130   0.20432   0.35386   0.00000  Uiso   1.00
H180   H     0.39794   0.16127   0.39804   0.00000  Uiso   1.00
C181   C     0.38540   0.13714   0.32531   0.00000  Uiso   1.00
H182   H     0.40187   0.10430   0.33407   0.00000  Uiso   1.00
H183   H     0.34217   0.13374   0.32294   0.00000  Uiso   1.00
H184   H     0.39461   0.14741   0.29027   0.00000  Uiso   1.00
O185   O     0.58370   0.29138   0.04208   0.00000  Uiso   1.00
C186   C     0.63040   0.26963   0.05612   0.00000  Uiso   1.00
H187   H     0.62804   0.23640   0.03757   0.00000  Uiso   1.00
H188   H     0.63912   0.26500   0.09516   0.00000  Uiso   1.00
C189   C     0.34225   0.29836   0.04250   0.00000  Uiso   1.00
H190   H     0.34145   0.33331   0.05579   0.00000  Uiso   1.00
H191   H     0.38014   0.28538   0.05861   0.00000  Uiso   1.00
H192   H     0.33922   0.29825   0.00320   0.00000  Uiso   1.00
O193   O     0.48666   0.16776   0.46464   0.00000  Uiso   1.00
C194   C     0.53704   0.15375   0.48268   0.00000  Uiso   1.00
H195   H     0.55616   0.17524   0.01367   0.00000  Uiso   1.00
H196   H     0.56255   0.15442   0.45489   0.00000  Uiso   1.00
C197   C     0.53196   0.10604   0.49930   0.00000  Uiso   1.00
H198   H     0.51386   0.08346   0.46893   0.00000  Uiso   1.00
H199   H     0.57132   0.09470   0.01400   0.00000  Uiso   1.00
H200   H     0.50711   0.10435   0.02743   0.00000  Uiso   1.00
O201   O     0.83334   0.18453   0.28974   0.00000  Uiso   1.00
O202   O     0.83333   0.31546   0.21026   0.00000  Uiso   1.00
O203   O     0.83334   0.18453   0.21026   0.00000  Uiso   1.00
O204   O     0.83333   0.31547   0.28974   0.00000  Uiso   1.00
C205   C     0.83673   0.16382   0.24999   0.00000  Uiso   1.00
C206   C     0.83346   0.33584   0.25032   0.00000  Uiso   1.00
O207   O     0.75725   0.25000   0.28044   0.00000  Uiso   1.00
O208   O     0.90942   0.25000   0.21955   0.00000  Uiso   1.00
O209   O     0.75725   0.24999   0.20096   0.00000  Uiso   1.00
O210   O     0.90942   0.25000   0.29903   0.00000  Uiso   1.00
C211   C     0.73362   0.24922   0.23767   0.00000  Uiso   1.00
C212   C     0.93293   0.24993   0.26255   0.00000  Uiso   1.00
Zn213  Zn    0.83333   0.25000   0.30307   0.00000  Uiso   1.00
Zn214  Zn    0.83333   0.24999   0.19693   0.00000  Uiso   1.00
C215   C     0.67869   0.24152   0.23300   0.00000  Uiso   1.00
C216   C     0.98789   0.25607   0.26857   0.00000  Uiso   1.00
C217   C     0.83256   0.04799   0.29401   0.00000  Uiso   1.00
C218   C     0.78052   0.44781   0.23111   0.00000  Uiso   1.00
C219   C     0.84691   0.09323   0.29343   0.00000  Uiso   1.00
C220   C     0.78327   0.40155   0.23114   0.00000  Uiso   1.00
C221   C     0.84053   0.11523   0.24970   0.00000  Uiso   1.00
C222   C     0.83065   0.38331   0.25037   0.00000  Uiso   1.00
C223   C     0.83403   0.08962   0.20654   0.00000  Uiso   1.00
C224   C     0.87517   0.41036   0.26958   0.00000  Uiso   1.00
C225   C     0.82690   0.04327   0.20768   0.00000  Uiso   1.00
C226   C     0.87184   0.45626   0.27221   0.00000  Uiso   1.00
C227   C     0.82381   0.02298   0.25119   0.00000  Uiso   1.00
C228   C     0.82441   0.47484   0.25276   0.00000  Uiso   1.00
C229   C     0.79241   0.22716   0.04569   0.00000  Uiso   1.00
C230   C     0.84192   0.28908   0.45039   0.00000  Uiso   1.00
C231   C     0.79478   0.22596   0.09550   0.00000  Uiso   1.00
C232   C     0.84856   0.28768   0.40228   0.00000  Uiso   1.00
N233   N     0.83333   0.24999   0.12623   0.00000  Uiso   1.00
N234   N     0.83333   0.25001   0.37376   0.00000  Uiso   1.00
C235   C     0.87221   0.27356   0.10848   0.00000  Uiso   1.00
C236   C     0.81741   0.21201   0.39467   0.00000  Uiso   1.00
C237   C     0.87589   0.26970   0.05936   0.00000  Uiso   1.00
C238   C     0.82515   0.20922   0.44491   0.00000  Uiso   1.00
C239   C     0.83388   0.24856   0.02683   0.00000  Uiso   1.00
C240   C     0.83372   0.24893   0.47362   0.00000  Uiso   1.00
Br241  Br    0.98031   0.19770   0.18416   0.00000  Uiso   1.00
Br242  Br    0.68580   0.29458   0.32280   0.00000  Uiso   1.00
Br243  Br    0.82631   0.02014   0.35352   0.00000  Uiso   1.00
Br244  Br    0.71730   0.47385   0.20135   0.00000  Uiso   1.00
Br245  Br    0.88769   0.12064   0.35071   0.00000  Uiso   1.00
Br246  Br    0.72238   0.36324   0.20537   0.00000  Uiso   1.00
Br247  Br    0.84122   0.11413   0.14564   0.00000  Uiso   1.00
Br248  Br    0.94211   0.38596   0.28925   0.00000  Uiso   1.00
O249   O     0.81857   0.01806   0.16550   0.00000  Uiso   1.00
C250   C     0.86687   0.00440   0.15521   0.00000  Uiso   1.00
H251   H     0.87901   0.47484   0.17626   0.00000  Uiso   1.00
H252   H     0.89875   0.03145   0.16251   0.00000  Uiso   1.00
C253   C     0.86000   0.49098   0.10275   0.00000  Uiso   1.00
H254   H     0.84615   0.01943   0.08060   0.00000  Uiso   1.00
H255   H     0.89803   0.48156   0.09373   0.00000  Uiso   1.00
H256   H     0.83095   0.46202   0.09470   0.00000  Uiso   1.00
O257   O     0.91282   0.48219   0.29888   0.00000  Uiso   1.00
C258   C     0.94650   0.00030   0.26918   0.00000  Uiso   1.00
H259   H     0.92860   0.02851   0.24921   0.00000  Uiso   1.00
H260   H     0.95610   0.47475   0.24369   0.00000  Uiso   1.00
C261   C     0.99717   0.01865   0.30006   0.00000  Uiso   1.00
H262   H     0.68482   0.49094   0.31850   0.00000  Uiso   1.00
H263   H     0.68952   0.03586   0.27773   0.00000  Uiso   1.00
H264   H     0.98837   0.04304   0.32700   0.00000  Uiso   1.00
Br265  Br    0.72996   0.20248   0.00422   0.00000  Uiso   1.00
Br266  Br    0.83896   0.34639   0.48176   0.00000  Uiso   1.00
Br267  Br    0.74363   0.18852   0.11922   0.00000  Uiso   1.00
Br268  Br    0.88715   0.33757   0.38159   0.00000  Uiso   1.00
O269   O     0.91022   0.29890   0.13915   0.00000  Uiso   1.00
C270   C     0.89672   0.34404   0.14068   0.00000  Uiso   1.00
H271   H     0.90632   0.35613   0.17830   0.00000  Uiso   1.00
H272   H     0.85425   0.34905   0.12842   0.00000  Uiso   1.00
C273   C     0.92982   0.37362   0.11293   0.00000  Uiso   1.00
H274   H     0.91500   0.36990   0.07425   0.00000  Uiso   1.00
H275   H     0.92775   0.40915   0.12374   0.00000  Uiso   1.00
H276   H     0.97133   0.36495   0.12048   0.00000  Uiso   1.00
O277   O     0.79710   0.17507   0.36680   0.00000  Uiso   1.00
C278   C     0.74211   0.17195   0.36365   0.00000  Uiso   1.00
H279   H     0.72464   0.20432   0.35386   0.00000  Uiso   1.00
H280   H     0.73128   0.16127   0.39804   0.00000  Uiso   1.00
C281   C     0.71874   0.13714   0.32531   0.00000  Uiso   1.00
H282   H     0.73521   0.10430   0.33407   0.00000  Uiso   1.00
H283   H     0.67550   0.13374   0.32294   0.00000  Uiso   1.00
H284   H     0.72794   0.14741   0.29027   0.00000  Uiso   1.00
O285   O     0.91704   0.29138   0.04208   0.00000  Uiso   1.00
C286   C     0.96374   0.26963   0.05612   0.00000  Uiso   1.00
H287   H     0.96137   0.23640   0.03757   0.00000  Uiso   1.00
H288   H     0.97246   0.26500   0.09516   0.00000  Uiso   1.00
C289   C     0.67558   0.29836   0.04250   0.00000  Uiso   1.00
H290   H     0.67478   0.33331   0.05579   0.00000  Uiso   1.00
H291   H     0.71348   0.28538   0.05861   0.00000  Uiso   1.00
H292   H     0.67255   0.29825   0.00320   0.00000  Uiso   1.00
O293   O     0.81999   0.16776   0.46464   0.00000  Uiso   1.00
C294   C     0.87038   0.15375   0.48268   0.00000  Uiso   1.00
H295   H     0.88949   0.17524   0.01367   0.00000  Uiso   1.00
H296   H     0.89589   0.15442   0.45489   0.00000  Uiso   1.00
C297   C     0.86530   0.10604   0.49930   0.00000  Uiso   1.00
H298   H     0.84719   0.08346   0.46893   0.00000  Uiso   1.00
H299   H     0.90465   0.09470   0.01400   0.00000  Uiso   1.00
H300   H     0.84045   0.10435   0.02743   0.00000  Uiso   1.00
O301   O     0.16667   0.68453   0.28974   0.00000  Uiso   1.00
O302   O     0.16666   0.81546   0.21026   0.00000  Uiso   1.00
O303   O     0.16667   0.68453   0.21026   0.00000  Uiso   1.00
O304   O     0.16666   0.81547   0.28974   0.00000  Uiso   1.00
C305   C     0.17007   0.66382   0.24999   0.00000  Uiso   1.00
C306   C     0.16680   0.83584   0.25032   0.00000  Uiso   1.00
O307   O     0.09058   0.75000   0.28044   0.00000  Uiso   1.00
O308   O     0.24275   0.75000   0.21955   0.00000  Uiso   1.00
O309   O     0.09058   0.74999   0.20096   0.00000  Uiso   1.00
O310   O     0.24275   0.75000   0.29903   0.00000  Uiso   1.00
C311   C     0.06695   0.74922   0.23767   0.00000  Uiso   1.00
C312   C     0.26626   0.74993   0.26255   0.00000  Uiso   1.00
Zn313  Zn    0.16667   0.75000   0.30307   0.00000  Uiso   1.00
Zn314  Zn    0.16667   0.74999   0.19693   0.00000  Uiso   1.00
C315   C     0.01202   0.74152   0.23300   0.00000  Uiso   1.00
C316   C     0.32122   0.75607   0.26857   0.00000  Uiso   1.00
C317   C     0.16589   0.54799   0.29401   0.00000  Uiso   1.00
C318   C     0.11386   0.94781   0.23111   0.00000  Uiso   1.00
C319   C     0.18024   0.59323   0.29343   0.00000  Uiso   1.00
C320   C     0.11660   0.90155   0.23114   0.00000  Uiso   1.00
C321   C     0.17386   0.61523   0.24970   0.00000  Uiso   1.00
C322   C     0.16398   0.88331   0.25037   0.00000  Uiso   1.00
C323   C     0.16737   0.58962   0.20654   0.00000  Uiso   1.00
C324   C     0.20850   0.91036   0.26958   0.00000  Uiso   1.00
C325   C     0.16024   0.54327   0.20768   0.00000  Uiso   1.00
C326   C     0.20518   0.95626   0.27221   0.00000  Uiso   1.00
C327   C     0.15715   0.52298   0.25119   0.00000  Uiso   1.00
C328   C     0.15775   0.97484   0.25276   0.00000  Uiso   1.00
C329   C     0.12574   0.72716   0.04569   0.00000  Uiso   1.00
C330   C     0.17526   0.78908   0.45039   0.00000  Uiso   1.00
C331   C     0.12811   0.72596   0.09550   0.00000  Uiso   1.00
C332   C     0.18189   0.78768   0.40228   0.00000  Uiso   1.00
N333   N     0.16667   0.74999   0.12623   0.00000  Uiso   1.00
N334   N     0.16667   0.75001   0.37376   0.00000  Uiso   1.00
C335   C     0.20555   0.77356   0.10848   0.00000  Uiso   1.00
C336   C     0.15075   0.71201   0.39467   0.00000  Uiso   1.00
C337   C     0.20922   0.76970   0.05936   0.00000  Uiso   1.00
C338   C     0.15848   0.70922   0.44491   0.00000  Uiso   1.00
C339   C     0.16721   0.74856   0.02683   0.00000  Uiso   1.00
C340   C     0.16705   0.74893   0.47362   0.00000  Uiso   1.00
Br341  Br    0.31364   0.69770   0.18416   0.00000  Uiso   1.00
Br342  Br    0.01913   0.79458   0.32280   0.00000  Uiso   1.00
Br343  Br    0.15964   0.52014   0.35352   0.00000  Uiso   1.00
Br344  Br    0.05063   0.97385   0.20135   0.00000  Uiso   1.00
Br345  Br    0.22102   0.62064   0.35071   0.00000  Uiso   1.00
Br346  Br    0.05571   0.86324   0.20537   0.00000  Uiso   1.00
Br347  Br    0.17456   0.61413   0.14564   0.00000  Uiso   1.00
Br348  Br    0.27544   0.88596   0.28925   0.00000  Uiso   1.00
O349   O     0.15190   0.51806   0.16550   0.00000  Uiso   1.00
C350   C     0.20020   0.50440   0.15521   0.00000  Uiso   1.00
H351   H     0.21235   0.97484   0.17626   0.00000  Uiso   1.00
H352   H     0.23208   0.53145   0.16251   0.00000  Uiso   1.00
C353   C     0.19334   0.99098   0.10275   0.00000  Uiso   1.00
H354   H     0.17949   0.51943   0.08060   0.00000  Uiso   1.00
H355   H     0.23136   0.98156   0.09373   0.00000  Uiso   1.00
H356   H     0.16428   0.96202   0.09470   0.00000  Uiso   1.00
O357   O     0.24616   0.98219   0.29888   0.00000  Uiso   1.00
C358   C     0.27984   0.50030   0.26918   0.00000  Uiso   1.00
H359   H     0.26193   0.52851   0.24921   0.00000  Uiso   1.00
H360   H     0.28943   0.97475   0.24369   0.00000  Uiso   1.00
C361   C     0.33050   0.51865   0.30006   0.00000  Uiso   1.00
H362   H     0.01815   0.99094   0.31850   0.00000  Uiso   1.00
H363   H     0.02285   0.53586   0.27773   0.00000  Uiso   1.00
H364   H     0.32170   0.54304   0.32700   0.00000  Uiso   1.00
Br365  Br    0.06329   0.70248   0.00422   0.00000  Uiso   1.00
Br366  Br    0.17229   0.84639   0.48176   0.00000  Uiso   1.00
Br367  Br    0.07696   0.68852   0.11922   0.00000  Uiso   1.00
Br368  Br    0.22048   0.83757   0.38159   0.00000  Uiso   1.00
O369   O     0.24355   0.79890   0.13915   0.00000  Uiso   1.00
C370   C     0.23005   0.84404   0.14068   0.00000  Uiso   1.00
H371   H     0.23966   0.85613   0.17830   0.00000  Uiso   1.00
H372   H     0.18758   0.84905   0.12842   0.00000  Uiso   1.00
C373   C     0.26315   0.87362   0.11293   0.00000  Uiso   1.00
H374   H     0.24834   0.86990   0.07425   0.00000  Uiso   1.00
H375   H     0.26109   0.90915   0.12374   0.00000  Uiso   1.00
H376   H     0.30466   0.86495   0.12048   0.00000  Uiso   1.00
O377   O     0.13043   0.67507   0.36680   0.00000  Uiso   1.00
C378   C     0.07545   0.67195   0.36365   0.00000  Uiso   1.00
H379   H     0.05797   0.70432   0.35386   0.00000  Uiso   1.00
H380   H     0.06461   0.66127   0.39804   0.00000  Uiso   1.00
C381   C     0.05207   0.63714   0.32531   0.00000  Uiso   1.00
H382   H     0.06854   0.60430   0.33407   0.00000  Uiso   1.00
H383   H     0.00883   0.63374   0.32294   0.00000  Uiso   1.00
H384   H     0.06127   0.64741   0.29027   0.00000  Uiso   1.00
O385   O     0.25037   0.79138   0.04208   0.00000  Uiso   1.00
C386   C     0.29707   0.76963   0.05612   0.00000  Uiso   1.00
H387   H     0.29471   0.73640   0.03757   0.00000  Uiso   1.00
H388   H     0.30579   0.76500   0.09516   0.00000  Uiso   1.00
C389   C     0.00891   0.79836   0.04250   0.00000  Uiso   1.00
H390   H     0.00812   0.83331   0.05579   0.00000  Uiso   1.00
H391   H     0.04681   0.78538   0.05861   0.00000  Uiso   1.00
H392   H     0.00588   0.79825   0.00320   0.00000  Uiso   1.00
O393   O     0.15332   0.66776   0.46464   0.00000  Uiso   1.00
C394   C     0.20371   0.65375   0.48268   0.00000  Uiso   1.00
H395   H     0.22283   0.67524   0.01367   0.00000  Uiso   1.00
H396   H     0.22922   0.65442   0.45489   0.00000  Uiso   1.00
C397   C     0.19863   0.60604   0.49930   0.00000  Uiso   1.00
H398   H     0.18052   0.58346   0.46893   0.00000  Uiso   1.00
H399   H     0.23798   0.59470   0.01400   0.00000  Uiso   1.00
H400   H     0.17378   0.60435   0.02743   0.00000  Uiso   1.00
O401   O     0.50000   0.68453   0.28974   0.00000  Uiso   1.00
O402   O     0.50000   0.81546   0.21026   0.00000  Uiso   1.00
O403   O     0.50000   0.68453   0.21026   0.00000  Uiso   1.00
O404   O     0.50000   0.81547   0.28974   0.00000  Uiso   1.00
C405   C     0.50340   0.66382   0.24999   0.00000  Uiso   1.00
C406   C     0.50013   0.83584   0.25032   0.00000  Uiso   1.00
O407   O     0.42392   0.75000   0.28044   0.00000  Uiso   1.00
O408   O     0.57608   0.75000   0.21955   0.00000  Uiso   1.00
O409   O     0.42392   0.74999   0.20096   0.00000  Uiso   1.00
O410   O     0.57608   0.75000   0.29903   0.00000  Uiso   1.00
C411   C     0.40029   0.74922   0.23767   0.00000  Uiso   1.00
C412   C     0.59959   0.74993   0.26255   0.00000  Uiso   1.00
Zn413  Zn    0.50000   0.75000   0.30307   0.00000  Uiso   1.00
Zn414  Zn    0.50000   0.74999   0.19693   0.00000  Uiso   1.00
C415   C     0.34536   0.74152   0.23300   0.00000  Uiso   1.00
C416   C     0.65455   0.75607   0.26857   0.00000  Uiso   1.00
C417   C     0.49922   0.54799   0.29401   0.00000  Uiso   1.00
C418   C     0.44719   0.94781   0.23111   0.00000  Uiso   1.00
C419   C     0.51358   0.59323   0.29343   0.00000  Uiso   1.00
C420   C     0.44993   0.90155   0.23114   0.00000  Uiso   1.00
C421   C     0.50719   0.61523   0.24970   0.00000  Uiso   1.00
C422   C     0.49731   0.88331   0.25037   0.00000  Uiso   1.00
C423   C     0.50070   0.58962   0.20654   0.00000  Uiso   1.00
C424   C     0.54183   0.91036   0.26958   0.00000  Uiso   1.00
C425   C     0.49357   0.54327   0.20768   0.00000  Uiso   1.00
C426   C     0.53851   0.95626   0.27221   0.00000  Uiso   1.00
C427   C     0.49048   0.52298   0.25119   0.00000  Uiso   1.00
C428   C     0.49108   0.97484   0.25276   0.00000  Uiso   1.00
C429   C     0.45907   0.72716   0.04569   0.00000  Uiso   1.00
C430   C     0.50859   0.78908   0.45039   0.00000  Uiso   1.00
C431   C     0.46144   0.72596   0.09550   0.00000  Uiso   1.00
C432   C     0.51522   0.78768   0.40228   0.00000  Uiso   1.00
N433   N     0.50000   0.74999   0.12623   0.00000  Uiso   1.00
N434   N     0.50000   0.75001   0.37376   0.00000  Uiso   1.00
C435   C     0.53888   0.77356   0.10848   0.00000  Uiso   1.00
C436   C     0.48408   0.71201   0.39467   0.00000  Uiso   1.00
C437   C     0.54255   0.76970   0.05936   0.00000  Uiso   1.00
C438   C     0.49181   0.70922   0.44491   0.00000  Uiso   1.00
C439   C     0.50055   0.74856   0.02683   0.00000  Uiso   1.00
C440   C     0.50039   0.74893   0.47362   0.00000  Uiso   1.00
Br441  Br    0.64697   0.69770   0.18416   0.00000  Uiso   1.00
Br442  Br    0.35246   0.79458   0.32280   0.00000  Uiso   1.00
Br443  Br    0.49298   0.52014   0.35352   0.00000  Uiso   1.00
Br444  Br    0.38396   0.97385   0.20135   0.00000  Uiso   1.00
Br445  Br    0.55435   0.62064   0.35071   0.00000  Uiso   1.00
Br446  Br    0.38904   0.86324   0.20537   0.00000  Uiso   1.00
Br447  Br    0.50789   0.61413   0.14564   0.00000  Uiso   1.00
Br448  Br    0.60878   0.88596   0.28925   0.00000  Uiso   1.00
O449   O     0.48524   0.51806   0.16550   0.00000  Uiso   1.00
C450   C     0.53354   0.50440   0.15521   0.00000  Uiso   1.00
H451   H     0.54568   0.97484   0.17626   0.00000  Uiso   1.00
H452   H     0.56541   0.53145   0.16251   0.00000  Uiso   1.00
C453   C     0.52667   0.99098   0.10275   0.00000  Uiso   1.00
H454   H     0.51282   0.51943   0.08060   0.00000  Uiso   1.00
H455   H     0.56469   0.98156   0.09373   0.00000  Uiso   1.00
H456   H     0.49762   0.96202   0.09470   0.00000  Uiso   1.00
O457   O     0.57949   0.98219   0.29888   0.00000  Uiso   1.00
C458   C     0.61317   0.50030   0.26918   0.00000  Uiso   1.00
H459   H     0.59527   0.52851   0.24921   0.00000  Uiso   1.00
H460   H     0.62276   0.97475   0.24369   0.00000  Uiso   1.00
C461   C     0.66383   0.51865   0.30006   0.00000  Uiso   1.00
H462   H     0.35149   0.99094   0.31850   0.00000  Uiso   1.00
H463   H     0.35619   0.53586   0.27773   0.00000  Uiso   1.00
H464   H     0.65503   0.54304   0.32700   0.00000  Uiso   1.00
Br465  Br    0.39663   0.70248   0.00422   0.00000  Uiso   1.00
Br466  Br    0.50562   0.84639   0.48176   0.00000  Uiso   1.00
Br467  Br    0.41029   0.68852   0.11922   0.00000  Uiso   1.00
Br468  Br    0.55382   0.83757   0.38159   0.00000  Uiso   1.00
O469   O     0.57688   0.79890   0.13915   0.00000  Uiso   1.00
C470   C     0.56339   0.84404   0.14068   0.00000  Uiso   1.00
H471   H     0.57299   0.85613   0.17830   0.00000  Uiso   1.00
H472   H     0.52091   0.84905   0.12842   0.00000  Uiso   1.00
C473   C     0.59649   0.87362   0.11293   0.00000  Uiso   1.00
H474   H     0.58167   0.86990   0.07425   0.00000  Uiso   1.00
H475   H     0.59442   0.90915   0.12374   0.00000  Uiso   1.00
H476   H     0.63799   0.86495   0.12048   0.00000  Uiso   1.00
O477   O     0.46376   0.67507   0.36680   0.00000  Uiso   1.00
C478   C     0.40878   0.67195   0.36365   0.00000  Uiso   1.00
H479   H     0.39130   0.70432   0.35386   0.00000  Uiso   1.00
H480   H     0.39794   0.66127   0.39804   0.00000  Uiso   1.00
C481   C     0.38540   0.63714   0.32531   0.00000  Uiso   1.00
H482   H     0.40187   0.60430   0.33407   0.00000  Uiso   1.00
H483   H     0.34217   0.63374   0.32294   0.00000  Uiso   1.00
H484   H     0.39461   0.64741   0.29027   0.00000  Uiso   1.00
O485   O     0.58370   0.79138   0.04208   0.00000  Uiso   1.00
C486   C     0.63040   0.76963   0.05612   0.00000  Uiso   1.00
H487   H     0.62804   0.73640   0.03757   0.00000  Uiso   1.00
H488   H     0.63912   0.76500   0.09516   0.00000  Uiso   1.00
C489   C     0.34225   0.79836   0.04250   0.00000  Uiso   1.00
H490   H     0.34145   0.83331   0.05579   0.00000  Uiso   1.00
H491   H     0.38014   0.78538   0.05861   0.00000  Uiso   1.00
H492   H     0.33922   0.79825   0.00320   0.00000  Uiso   1.00
O493   O     0.48666   0.66776   0.46464   0.00000  Uiso   1.00
C494   C     0.53704   0.65375   0.48268   0.00000  Uiso   1.00
H495   H     0.55616   0.67524   0.01367   0.00000  Uiso   1.00
H496   H     0.56255   0.65442   0.45489   0.00000  Uiso   1.00
C497   C     0.53196   0.60604   0.49930   0.00000  Uiso   1.00
H498   H     0.51386   0.58346   0.46893   0.00000  Uiso   1.00
H499   H     0.57132   0.59470   0.01400   0.00000  Uiso   1.00
H500   H     0.50711   0.60435   0.02743   0.00000  Uiso   1.00
O501   O     0.83334   0.68453   0.28974   0.00000  Uiso   1.00
O502   O     0.83333   0.81546   0.21026   0.00000  Uiso   1.00
O503   O     0.83334   0.68453   0.21026   0.00000  Uiso   1.00
O504   O     0.83333   0.81547   0.28974   0.00000  Uiso   1.00
C505   C     0.83673   0.66382   0.24999   0.00000  Uiso   1.00
C506   C     0.83346   0.83584   0.25032   0.00000  Uiso   1.00
O507   O     0.75725   0.75000   0.28044   0.00000  Uiso   1.00
O508   O     0.90942   0.75000   0.21955   0.00000  Uiso   1.00
O509   O     0.75725   0.74999   0.20096   0.00000  Uiso   1.00
O510   O     0.90942   0.75000   0.29903   0.00000  Uiso   1.00
C511   C     0.73362   0.74922   0.23767   0.00000  Uiso   1.00
C512   C     0.93293   0.74993   0.26255   0.00000  Uiso   1.00
Zn513  Zn    0.83333   0.75000   0.30307   0.00000  Uiso   1.00
Zn514  Zn    0.83333   0.74999   0.19693   0.00000  Uiso   1.00
C515   C     0.67869   0.74152   0.23300   0.00000  Uiso   1.00
C516   C     0.98789   0.75607   0.26857   0.00000  Uiso   1.00
C517   C     0.83256   0.54799   0.29401   0.00000  Uiso   1.00
C518   C     0.78052   0.94781   0.23111   0.00000  Uiso   1.00
C519   C     0.84691   0.59323   0.29343   0.00000  Uiso   1.00
C520   C     0.78327   0.90155   0.23114   0.00000  Uiso   1.00
C521   C     0.84053   0.61523   0.24970   0.00000  Uiso   1.00
C522   C     0.83065   0.88331   0.25037   0.00000  Uiso   1.00
C523   C     0.83403   0.58962   0.20654   0.00000  Uiso   1.00
C524   C     0.87517   0.91036   0.26958   0.00000  Uiso   1.00
C525   C     0.82690   0.54327   0.20768   0.00000  Uiso   1.00
C526   C     0.87184   0.95626   0.27221   0.00000  Uiso   1.00
C527   C     0.82381   0.52298   0.25119   0.00000  Uiso   1.00
C528   C     0.82441   0.97484   0.25276   0.00000  Uiso   1.00
C529   C     0.79241   0.72716   0.04569   0.00000  Uiso   1.00
C530   C     0.84192   0.78908   0.45039   0.00000  Uiso   1.00
C531   C     0.79478   0.72596   0.09550   0.00000  Uiso   1.00
C532   C     0.84856   0.78768   0.40228   0.00000  Uiso   1.00
N533   N     0.83333   0.74999   0.12623   0.00000  Uiso   1.00
N534   N     0.83333   0.75001   0.37376   0.00000  Uiso   1.00
C535   C     0.87221   0.77356   0.10848   0.00000  Uiso   1.00
C536   C     0.81741   0.71201   0.39467   0.00000  Uiso   1.00
C537   C     0.87589   0.76970   0.05936   0.00000  Uiso   1.00
C538   C     0.82515   0.70922   0.44491   0.00000  Uiso   1.00
C539   C     0.83388   0.74856   0.02683   0.00000  Uiso   1.00
C540   C     0.83372   0.74893   0.47362   0.00000  Uiso   1.00
Br541  Br    0.98031   0.69770   0.18416   0.00000  Uiso   1.00
Br542  Br    0.68580   0.79458   0.32280   0.00000  Uiso   1.00
Br543  Br    0.82631   0.52014   0.35352   0.00000  Uiso   1.00
Br544  Br    0.71730   0.97385   0.20135   0.00000  Uiso   1.00
Br545  Br    0.88769   0.62064   0.35071   0.00000  Uiso   1.00
Br546  Br    0.72238   0.86324   0.20537   0.00000  Uiso   1.00
Br547  Br    0.84122   0.61413   0.14564   0.00000  Uiso   1.00
Br548  Br    0.94211   0.88596   0.28925   0.00000  Uiso   1.00
O549   O     0.81857   0.51806   0.16550   0.00000  Uiso   1.00
C550   C     0.86687   0.50440   0.15521   0.00000  Uiso   1.00
H551   H     0.87901   0.97484   0.17626   0.00000  Uiso   1.00
H552   H     0.89875   0.53145   0.16251   0.00000  Uiso   1.00
C553   C     0.86000   0.99098   0.10275   0.00000  Uiso   1.00
H554   H     0.84615   0.51943   0.08060   0.00000  Uiso   1.00
H555   H     0.89803   0.98156   0.09373   0.00000  Uiso   1.00
H556   H     0.83095   0.96202   0.09470   0.00000  Uiso   1.00
O557   O     0.91282   0.98219   0.29888   0.00000  Uiso   1.00
C558   C     0.94650   0.50030   0.26918   0.00000  Uiso   1.00
H559   H     0.92860   0.52851   0.24921   0.00000  Uiso   1.00
H560   H     0.95610   0.97475   0.24369   0.00000  Uiso   1.00
C561   C     0.99717   0.51865   0.30006   0.00000  Uiso   1.00
H562   H     0.68482   0.99094   0.31850   0.00000  Uiso   1.00
H563   H     0.68952   0.53586   0.27773   0.00000  Uiso   1.00
H564   H     0.98837   0.54304   0.32700   0.00000  Uiso   1.00
Br565  Br    0.72996   0.70248   0.00422   0.00000  Uiso   1.00
Br566  Br    0.83896   0.84639   0.48176   0.00000  Uiso   1.00
Br567  Br    0.74363   0.68852   0.11922   0.00000  Uiso   1.00
Br568  Br    0.88715   0.83757   0.38159   0.00000  Uiso   1.00
O569   O     0.91022   0.79890   0.13915   0.00000  Uiso   1.00
C570   C     0.89672   0.84404   0.14068   0.00000  Uiso   1.00
H571   H     0.90632   0.85613   0.17830   0.00000  Uiso   1.00
H572   H     0.85425   0.84905   0.12842   0.00000  Uiso   1.00
C573   C     0.92982   0.87362   0.11293   0.00000  Uiso   1.00
H574   H     0.91500   0.86990   0.07425   0.00000  Uiso   1.00
H575   H     0.92775   0.90915   0.12374   0.00000  Uiso   1.00
H576   H     0.97133   0.86495   0.12048   0.00000  Uiso   1.00
O577   O     0.79710   0.67507   0.36680   0.00000  Uiso   1.00
C578   C     0.74211   0.67195   0.36365   0.00000  Uiso   1.00
H579   H     0.72464   0.70432   0.35386   0.00000  Uiso   1.00
H580   H     0.73128   0.66127   0.39804   0.00000  Uiso   1.00
C581   C     0.71874   0.63714   0.32531   0.00000  Uiso   1.00
H582   H     0.73521   0.60430   0.33407   0.00000  Uiso   1.00
H583   H     0.67550   0.63374   0.32294   0.00000  Uiso   1.00
H584   H     0.72794   0.64741   0.29027   0.00000  Uiso   1.00
O585   O     0.91704   0.79138   0.04208   0.00000  Uiso   1.00
C586   C     0.96374   0.76963   0.05612   0.00000  Uiso   1.00
H587   H     0.96137   0.73640   0.03757   0.00000  Uiso   1.00
H588   H     0.97246   0.76500   0.09516   0.00000  Uiso   1.00
C589   C     0.67558   0.79836   0.04250   0.00000  Uiso   1.00
H590   H     0.67478   0.83331   0.05579   0.00000  Uiso   1.00
H591   H     0.71348   0.78538   0.05861   0.00000  Uiso   1.00
H592   H     0.67255   0.79825   0.00320   0.00000  Uiso   1.00
O593   O     0.81999   0.66776   0.46464   0.00000  Uiso   1.00
C594   C     0.87038   0.65375   0.48268   0.00000  Uiso   1.00
H595   H     0.88949   0.67524   0.01367   0.00000  Uiso   1.00
H596   H     0.89589   0.65442   0.45489   0.00000  Uiso   1.00
C597   C     0.86530   0.60604   0.49930   0.00000  Uiso   1.00
H598   H     0.84719   0.58346   0.46893   0.00000  Uiso   1.00
H599   H     0.90465   0.59470   0.01400   0.00000  Uiso   1.00
H600   H     0.84045   0.60435   0.02743   0.00000  Uiso   1.00
O601   O     0.16667   0.18453   0.78974   0.00000  Uiso   1.00
O602   O     0.16666   0.31546   0.71026   0.00000  Uiso   1.00
O603   O     0.16667   0.18453   0.71026   0.00000  Uiso   1.00
O604   O     0.16666   0.31547   0.78974   0.00000  Uiso   1.00
C605   C     0.17007   0.16382   0.74999   0.00000  Uiso   1.00
C606   C     0.16680   0.33584   0.75032   0.00000  Uiso   1.00
O607   O     0.09058   0.25000   0.78044   0.00000  Uiso   1.00
O608   O     0.24275   0.25000   0.71955   0.00000  Uiso   1.00
O609   O     0.09058   0.24999   0.70096   0.00000  Uiso   1.00
O610   O     0.24275   0.25000   0.79903   0.00000  Uiso   1.00
C611   C     0.06695   0.24922   0.73767   0.00000  Uiso   1.00
C612   C     0.26626   0.24993   0.76255   0.00000  Uiso   1.00
Zn613  Zn    0.16667   0.25000   0.80307   0.00000  Uiso   1.00
Zn614  Zn    0.16667   0.24999   0.69693   0.00000  Uiso   1.00
C615   C     0.01202   0.24152   0.73300   0.00000  Uiso   1.00
C616   C     0.32122   0.25607   0.76857   0.00000  Uiso   1.00
C617   C     0.16589   0.04799   0.79401   0.00000  Uiso   1.00
C618   C     0.11386   0.44781   0.73111   0.00000  Uiso   1.00
C619   C     0.18024   0.09323   0.79343   0.00000  Uiso   1.00
C620   C     0.11660   0.40155   0.73114   0.00000  Uiso   1.00
C621   C     0.17386   0.11523   0.74970   0.00000  Uiso   1.00
C622   C     0.16398   0.38331   0.75037   0.00000  Uiso   1.00
C623   C     0.16737   0.08962   0.70654   0.00000  Uiso   1.00
C624   C     0.20850   0.41036   0.76958   0.00000  Uiso   1.00
C625   C     0.16024   0.04327   0.70768   0.00000  Uiso   1.00
C626   C     0.20518   0.45626   0.77221   0.00000  Uiso   1.00
C627   C     0.15715   0.02298   0.75119   0.00000  Uiso   1.00
C628   C     0.15775   0.47484   0.75276   0.00000  Uiso   1.00
C629   C     0.12574   0.22716   0.54569   0.00000  Uiso   1.00
C630   C     0.17526   0.28908   0.95039   0.00000  Uiso   1.00
C631   C     0.12811   0.22596   0.59550   0.00000  Uiso   1.00
C632   C     0.18189   0.28768   0.90228   0.00000  Uiso   1.00
N633   N     0.16667   0.24999   0.62623   0.00000  Uiso   1.00
N634   N     0.16667   0.25001   0.87376   0.00000  Uiso   1.00
C635   C     0.20555   0.27356   0.60848   0.00000  Uiso   1.00
C636   C     0.15075   0.21201   0.89467   0.00000  Uiso   1.00
C637   C     0.20922   0.26970   0.55936   0.00000  Uiso   1.00
C638   C     0.15848   0.20922   0.94491   0.00000  Uiso   1.00
C639   C     0.16721   0.24856   0.52683   0.00000  Uiso   1.00
C640   C     0.16705   0.24893   0.97362   0.00000  Uiso   1.00
Br641  Br    0.31364   0.19770   0.68416   0.00000  Uiso   1.00
Br642  Br    0.01913   0.29458   0.82280   0.00000  Uiso   1.00
Br643  Br    0.15964   0.02014   0.85352   0.00000  Uiso   1.00
Br644  Br    0.05063   0.47385   0.70135   0.00000  Uiso   1.00
Br645  Br    0.22102   0.12064   0.85071   0.00000  Uiso   1.00
Br646  Br    0.05571   0.36324   0.70537   0.00000  Uiso   1.00
Br647  Br    0.17456   0.11413   0.64564   0.00000  Uiso   1.00
Br648  Br    0.27544   0.38596   0.78925   0.00000  Uiso   1.00
O649   O     0.15190   0.01806   0.66550   0.00000  Uiso   1.00
C650   C     0.20020   0.00440   0.65521   0.00000  Uiso   1.00
H651   H     0.21235   0.47484   0.67626   0.00000  Uiso   1.00
H652   H     0.23208   0.03145   0.66251   0.00000  Uiso   1.00
C653   C     0.19334   0.49098   0.60275   0.00000  Uiso   1.00
H654   H     0.17949   0.01943   0.58060   0.00000  Uiso   1.00
H655   H     0.23136   0.48156   0.59373   0.00000  Uiso   1.00
H656   H     0.16428   0.46202   0.59470   0.00000  Uiso   1.00
O657   O     0.24616   0.48219   0.79888   0.00000  Uiso   1.00
C658   C     0.27984   0.00030   0.76918   0.00000  Uiso   1.00
H659   H     0.26193   0.02851   0.74921   0.00000  Uiso   1.00
H660   H     0.28943   0.47475   0.74369   0.00000  Uiso   1.00
C661   C     0.33050   0.01865   0.80006   0.00000  Uiso   1.00
H662   H     0.01815   0.49094   0.81850   0.00000  Uiso   1.00
H663   H     0.02285   0.03586   0.77773   0.00000  Uiso   1.00
H664   H     0.32170   0.04304   0.82700   0.00000  Uiso   1.00
Br665  Br    0.06329   0.20248   0.50422   0.00000  Uiso   1.00
Br666  Br    0.17229   0.34639   0.98176   0.00000  Uiso   1.00
Br667  Br    0.07696   0.18852   0.61922   0.00000  Uiso   1.00
Br668  Br    0.22048   0.33757   0.88159   0.00000  Uiso   1.00
O669   O     0.24355   0.29890   0.63915   0.00000  Uiso   1.00
C670   C     0.23005   0.34404   0.64068   0.00000  Uiso   1.00
H671   H     0.23966   0.35613   0.67830   0.00000  Uiso   1.00
H672   H     0.18758   0.34905   0.62842   0.00000  Uiso   1.00
C673   C     0.26315   0.37362   0.61293   0.00000  Uiso   1.00
H674   H     0.24834   0.36990   0.57425   0.00000  Uiso   1.00
H675   H     0.26109   0.40915   0.62374   0.00000  Uiso   1.00
H676   H     0.30466   0.36495   0.62048   0.00000  Uiso   1.00
O677   O     0.13043   0.17507   0.86680   0.00000  Uiso   1.00
C678   C     0.07545   0.17195   0.86365   0.00000  Uiso   1.00
H679   H     0.05797   0.20432   0.85386   0.00000  Uiso   1.00
H680   H     0.06461   0.16127   0.89804   0.00000  Uiso   1.00
C681   C     0.05207   0.13714   0.82531   0.00000  Uiso   1.00
H682   H     0.06854   0.10430   0.83407   0.00000  Uiso   1.00
H683   H     0.00883   0.13374   0.82294   0.00000  Uiso   1.00
H684   H     0.06127   0.14741   0.79027   0.00000  Uiso   1.00
O685   O     0.25037   0.29138   0.54208   0.00000  Uiso   1.00
C686   C     0.29707   0.26963   0.55612   0.00000  Uiso   1.00
H687   H     0.29471   0.23640   0.53757   0.00000  Uiso   1.00
H688   H     0.30579   0.26500   0.59516   0.00000  Uiso   1.00
C689   C     0.00891   0.29836   0.54250   0.00000  Uiso   1.00
H690   H     0.00812   0.33331   0.55579   0.00000  Uiso   1.00
H691   H     0.04681   0.28538   0.55861   0.00000  Uiso   1.00
H692   H     0.00588   0.29825   0.50320   0.00000  Uiso   1.00
O693   O     0.15332   0.16776   0.96464   0.00000  Uiso   1.00
C694   C     0.20371   0.15375   0.98268   0.00000  Uiso   1.00
H695   H     0.22283   0.17524   0.51367   0.00000  Uiso   1.00
H696   H     0.22922   0.15442   0.95489   0.00000  Uiso   1.00
C697   C     0.19863   0.10604   0.99930   0.00000  Uiso   1.00
H698   H     0.18052   0.08346   0.96893   0.00000  Uiso   1.00
H699   H     0.23798   0.09470   0.51400   0.00000  Uiso   1.00
H700   H     0.17378   0.10435   0.52743   0.00000  Uiso   1.00
O701   O     0.50000   0.18453   0.78974   0.00000  Uiso   1.00
O702   O     0.50000   0.31546   0.71026   0.00000  Uiso   1.00
O703   O     0.50000   0.18453   0.71026   0.00000  Uiso   1.00
O704   O     0.50000   0.31547   0.78974   0.00000  Uiso   1.00
C705   C     0.50340   0.16382   0.74999   0.00000  Uiso   1.00
C706   C     0.50013   0.33584   0.75032   0.00000  Uiso   1.00
O707   O     0.42392   0.25000   0.78044   0.00000  Uiso   1.00
O708   O     0.57608   0.25000   0.71955   0.00000  Uiso   1.00
O709   O     0.42392   0.24999   0.70096   0.00000  Uiso   1.00
O710   O     0.57608   0.25000   0.79903   0.00000  Uiso   1.00
C711   C     0.40029   0.24922   0.73767   0.00000  Uiso   1.00
C712   C     0.59959   0.24993   0.76255   0.00000  Uiso   1.00
Zn713  Zn    0.50000   0.25000   0.80307   0.00000  Uiso   1.00
Zn714  Zn    0.50000   0.24999   0.69693   0.00000  Uiso   1.00
C715   C     0.34536   0.24152   0.73300   0.00000  Uiso   1.00
C716   C     0.65455   0.25607   0.76857   0.00000  Uiso   1.00
C717   C     0.49922   0.04799   0.79401   0.00000  Uiso   1.00
C718   C     0.44719   0.44781   0.73111   0.00000  Uiso   1.00
C719   C     0.51358   0.09323   0.79343   0.00000  Uiso   1.00
C720   C     0.44993   0.40155   0.73114   0.00000  Uiso   1.00
C721   C     0.50719   0.11523   0.74970   0.00000  Uiso   1.00
C722   C     0.49731   0.38331   0.75037   0.00000  Uiso   1.00
C723   C     0.50070   0.08962   0.70654   0.00000  Uiso   1.00
C724   C     0.54183   0.41036   0.76958   0.00000  Uiso   1.00
C725   C     0.49357   0.04327   0.70768   0.00000  Uiso   1.00
C726   C     0.53851   0.45626   0.77221   0.00000  Uiso   1.00
C727   C     0.49048   0.02298   0.75119   0.00000  Uiso   1.00
C728   C     0.49108   0.47484   0.75276   0.00000  Uiso   1.00
C729   C     0.45907   0.22716   0.54569   0.00000  Uiso   1.00
C730   C     0.50859   0.28908   0.95039   0.00000  Uiso   1.00
C731   C     0.46144   0.22596   0.59550   0.00000  Uiso   1.00
C732   C     0.51522   0.28768   0.90228   0.00000  Uiso   1.00
N733   N     0.50000   0.24999   0.62623   0.00000  Uiso   1.00
N734   N     0.50000   0.25001   0.87376   0.00000  Uiso   1.00
C735   C     0.53888   0.27356   0.60848   0.00000  Uiso   1.00
C736   C     0.48408   0.21201   0.89467   0.00000  Uiso   1.00
C737   C     0.54255   0.26970   0.55936   0.00000  Uiso   1.00
C738   C     0.49181   0.20922   0.94491   0.00000  Uiso   1.00
C739   C     0.50055   0.24856   0.52683   0.00000  Uiso   1.00
C740   C     0.50039   0.24893   0.97362   0.00000  Uiso   1.00
Br741  Br    0.64697   0.19770   0.68416   0.00000  Uiso   1.00
Br742  Br    0.35246   0.29458   0.82280   0.00000  Uiso   1.00
Br743  Br    0.49298   0.02014   0.85352   0.00000  Uiso   1.00
Br744  Br    0.38396   0.47385   0.70135   0.00000  Uiso   1.00
Br745  Br    0.55435   0.12064   0.85071   0.00000  Uiso   1.00
Br746  Br    0.38904   0.36324   0.70537   0.00000  Uiso   1.00
Br747  Br    0.50789   0.11413   0.64564   0.00000  Uiso   1.00
Br748  Br    0.60878   0.38596   0.78925   0.00000  Uiso   1.00
O749   O     0.48524   0.01806   0.66550   0.00000  Uiso   1.00
C750   C     0.53354   0.00440   0.65521   0.00000  Uiso   1.00
H751   H     0.54568   0.47484   0.67626   0.00000  Uiso   1.00
H752   H     0.56541   0.03145   0.66251   0.00000  Uiso   1.00
C753   C     0.52667   0.49098   0.60275   0.00000  Uiso   1.00
H754   H     0.51282   0.01943   0.58060   0.00000  Uiso   1.00
H755   H     0.56469   0.48156   0.59373   0.00000  Uiso   1.00
H756   H     0.49762   0.46202   0.59470   0.00000  Uiso   1.00
O757   O     0.57949   0.48219   0.79888   0.00000  Uiso   1.00
C758   C     0.61317   0.00030   0.76918   0.00000  Uiso   1.00
H759   H     0.59527   0.02851   0.74921   0.00000  Uiso   1.00
H760   H     0.62276   0.47475   0.74369   0.00000  Uiso   1.00
C761   C     0.66383   0.01865   0.80006   0.00000  Uiso   1.00
H762   H     0.35149   0.49094   0.81850   0.00000  Uiso   1.00
H763   H     0.35619   0.03586   0.77773   0.00000  Uiso   1.00
H764   H     0.65503   0.04304   0.82700   0.00000  Uiso   1.00
Br765  Br    0.39663   0.20248   0.50422   0.00000  Uiso   1.00
Br766  Br    0.50562   0.34639   0.98176   0.00000  Uiso   1.00
Br767  Br    0.41029   0.18852   0.61922   0.00000  Uiso   1.00
Br768  Br    0.55382   0.33757   0.88159   0.00000  Uiso   1.00
O769   O     0.57688   0.29890   0.63915   0.00000  Uiso   1.00
C770   C     0.56339   0.34404   0.64068   0.00000  Uiso   1.00
H771   H     0.57299   0.35613   0.67830   0.00000  Uiso   1.00
H772   H     0.52091   0.34905   0.62842   0.00000  Uiso   1.00
C773   C     0.59649   0.37362   0.61293   0.00000  Uiso   1.00
H774   H     0.58167   0.36990   0.57425   0.00000  Uiso   1.00
H775   H     0.59442   0.40915   0.62374   0.00000  Uiso   1.00
H776   H     0.63799   0.36495   0.62048   0.00000  Uiso   1.00
O777   O     0.46376   0.17507   0.86680   0.00000  Uiso   1.00
C778   C     0.40878   0.17195   0.86365   0.00000  Uiso   1.00
H779   H     0.39130   0.20432   0.85386   0.00000  Uiso   1.00
H780   H     0.39794   0.16127   0.89804   0.00000  Uiso   1.00
C781   C     0.38540   0.13714   0.82531   0.00000  Uiso   1.00
H782   H     0.40187   0.10430   0.83407   0.00000  Uiso   1.00
H783   H     0.34217   0.13374   0.82294   0.00000  Uiso   1.00
H784   H     0.39461   0.14741   0.79027   0.00000  Uiso   1.00
O785   O     0.58370   0.29138   0.54208   0.00000  Uiso   1.00
C786   C     0.63040   0.26963   0.55612   0.00000  Uiso   1.00
H787   H     0.62804   0.23640   0.53757   0.00000  Uiso   1.00
H788   H     0.63912   0.26500   0.59516   0.00000  Uiso   1.00
C789   C     0.34225   0.29836   0.54250   0.00000  Uiso   1.00
H790   H     0.34145   0.33331   0.55579   0.00000  Uiso   1.00
H791   H     0.38014   0.28538   0.55861   0.00000  Uiso   1.00
H792   H     0.33922   0.29825   0.50320   0.00000  Uiso   1.00
O793   O     0.48666   0.16776   0.96464   0.00000  Uiso   1.00
C794   C     0.53704   0.15375   0.98268   0.00000  Uiso   1.00
H795   H     0.55616   0.17524   0.51367   0.00000  Uiso   1.00
H796   H     0.56255   0.15442   0.95489   0.00000  Uiso   1.00
C797   C     0.53196   0.10604   0.99930   0.00000  Uiso   1.00
H798   H     0.51386   0.08346   0.96893   0.00000  Uiso   1.00
H799   H     0.57132   0.09470   0.51400   0.00000  Uiso   1.00
H800   H     0.50711   0.10435   0.52743   0.00000  Uiso   1.00
O801   O     0.83334   0.18453   0.78974   0.00000  Uiso   1.00
O802   O     0.83333   0.31546   0.71026   0.00000  Uiso   1.00
O803   O     0.83334   0.18453   0.71026   0.00000  Uiso   1.00
O804   O     0.83333   0.31547   0.78974   0.00000  Uiso   1.00
C805   C     0.83673   0.16382   0.74999   0.00000  Uiso   1.00
C806   C     0.83346   0.33584   0.75032   0.00000  Uiso   1.00
O807   O     0.75725   0.25000   0.78044   0.00000  Uiso   1.00
O808   O     0.90942   0.25000   0.71955   0.00000  Uiso   1.00
O809   O     0.75725   0.24999   0.70096   0.00000  Uiso   1.00
O810   O     0.90942   0.25000   0.79903   0.00000  Uiso   1.00
C811   C     0.73362   0.24922   0.73767   0.00000  Uiso   1.00
C812   C     0.93293   0.24993   0.76255   0.00000  Uiso   1.00
Zn813  Zn    0.83333   0.25000   0.80307   0.00000  Uiso   1.00
Zn814  Zn    0.83333   0.24999   0.69693   0.00000  Uiso   1.00
C815   C     0.67869   0.24152   0.73300   0.00000  Uiso   1.00
C816   C     0.98789   0.25607   0.76857   0.00000  Uiso   1.00
C817   C     0.83256   0.04799   0.79401   0.00000  Uiso   1.00
C818   C     0.78052   0.44781   0.73111   0.00000  Uiso   1.00
C819   C     0.84691   0.09323   0.79343   0.00000  Uiso   1.00
C820   C     0.78327   0.40155   0.73114   0.00000  Uiso   1.00
C821   C     0.84053   0.11523   0.74970   0.00000  Uiso   1.00
C822   C     0.83065   0.38331   0.75037   0.00000  Uiso   1.00
C823   C     0.83403   0.08962   0.70654   0.00000  Uiso   1.00
C824   C     0.87517   0.41036   0.76958   0.00000  Uiso   1.00
C825   C     0.82690   0.04327   0.70768   0.00000  Uiso   1.00
C826   C     0.87184   0.45626   0.77221   0.00000  Uiso   1.00
C827   C     0.82381   0.02298   0.75119   0.00000  Uiso   1.00
C828   C     0.82441   0.47484   0.75276   0.00000  Uiso   1.00
C829   C     0.79241   0.22716   0.54569   0.00000  Uiso   1.00
C830   C     0.84192   0.28908   0.95039   0.00000  Uiso   1.00
C831   C     0.79478   0.22596   0.59550   0.00000  Uiso   1.00
C832   C     0.84856   0.28768   0.90228   0.00000  Uiso   1.00
N833   N     0.83333   0.24999   0.62623   0.00000  Uiso   1.00
N834   N     0.83333   0.25001   0.87376   0.00000  Uiso   1.00
C835   C     0.87221   0.27356   0.60848   0.00000  Uiso   1.00
C836   C     0.81741   0.21201   0.89467   0.00000  Uiso   1.00
C837   C     0.87589   0.26970   0.55936   0.00000  Uiso   1.00
C838   C     0.82515   0.20922   0.94491   0.00000  Uiso   1.00
C839   C     0.83388   0.24856   0.52683   0.00000  Uiso   1.00
C840   C     0.83372   0.24893   0.97362   0.00000  Uiso   1.00
Br841  Br    0.98031   0.19770   0.68416   0.00000  Uiso   1.00
Br842  Br    0.68580   0.29458   0.82280   0.00000  Uiso   1.00
Br843  Br    0.82631   0.02014   0.85352   0.00000  Uiso   1.00
Br844  Br    0.71730   0.47385   0.70135   0.00000  Uiso   1.00
Br845  Br    0.88769   0.12064   0.85071   0.00000  Uiso   1.00
Br846  Br    0.72238   0.36324   0.70537   0.00000  Uiso   1.00
Br847  Br    0.84122   0.11413   0.64564   0.00000  Uiso   1.00
Br848  Br    0.94211   0.38596   0.78925   0.00000  Uiso   1.00
O849   O     0.81857   0.01806   0.66550   0.00000  Uiso   1.00
C850   C     0.86687   0.00440   0.65521   0.00000  Uiso   1.00
H851   H     0.87901   0.47484   0.67626   0.00000  Uiso   1.00
H852   H     0.89875   0.03145   0.66251   0.00000  Uiso   1.00
C853   C     0.86000   0.49098   0.60275   0.00000  Uiso   1.00
H854   H     0.84615   0.01943   0.58060   0.00000  Uiso   1.00
H855   H     0.89803   0.48156   0.59373   0.00000  Uiso   1.00
H856   H     0.83095   0.46202   0.59470   0.00000  Uiso   1.00
O857   O     0.91282   0.48219   0.79888   0.00000  Uiso   1.00
C858   C     0.94650   0.00030   0.76918   0.00000  Uiso   1.00
H859   H     0.92860   0.02851   0.74921   0.00000  Uiso   1.00
H860   H     0.95610   0.47475   0.74369   0.00000  Uiso   1.00
C861   C     0.99717   0.01865   0.80006   0.00000  Uiso   1.00
H862   H     0.68482   0.49094   0.81850   0.00000  Uiso   1.00
H863   H     0.68952   0.03586   0.77773   0.00000  Uiso   1.00
H864   H     0.98837   0.04304   0.82700   0.00000  Uiso   1.00
Br865  Br    0.72996   0.20248   0.50422   0.00000  Uiso   1.00
Br866  Br    0.83896   0.34639   0.98176   0.00000  Uiso   1.00
Br867  Br    0.74363   0.18852   0.61922   0.00000  Uiso   1.00
Br868  Br    0.88715   0.33757   0.88159   0.00000  Uiso   1.00
O869   O     0.91022   0.29890   0.63915   0.00000  Uiso   1.00
C870   C     0.89672   0.34404   0.64068   0.00000  Uiso   1.00
H871   H     0.90632   0.35613   0.67830   0.00000  Uiso   1.00
H872   H     0.85425   0.34905   0.62842   0.00000  Uiso   1.00
C873   C     0.92982   0.37362   0.61293   0.00000  Uiso   1.00
H874   H     0.91500   0.36990   0.57425   0.00000  Uiso   1.00
H875   H     0.92775   0.40915   0.62374   0.00000  Uiso   1.00
H876   H     0.97133   0.36495   0.62048   0.00000  Uiso   1.00
O877   O     0.79710   0.17507   0.86680   0.00000  Uiso   1.00
C878   C     0.74211   0.17195   0.86365   0.00000  Uiso   1.00
H879   H     0.72464   0.20432   0.85386   0.00000  Uiso   1.00
H880   H     0.73128   0.16127   0.89804   0.00000  Uiso   1.00
C881   C     0.71874   0.13714   0.82531   0.00000  Uiso   1.00
H882   H     0.73521   0.10430   0.83407   0.00000  Uiso   1.00
H883   H     0.67550   0.13374   0.82294   0.00000  Uiso   1.00
H884   H     0.72794   0.14741   0.79027   0.00000  Uiso   1.00
O885   O     0.91704   0.29138   0.54208   0.00000  Uiso   1.00
C886   C     0.96374   0.26963   0.55612   0.00000  Uiso   1.00
H887   H     0.96137   0.23640   0.53757   0.00000  Uiso   1.00
H888   H     0.97246   0.26500   0.59516   0.00000  Uiso   1.00
C889   C     0.67558   0.29836   0.54250   0.00000  Uiso   1.00
H890   H     0.67478   0.33331   0.55579   0.00000  Uiso   1.00
H891   H     0.71348   0.28538   0.55861   0.00000  Uiso   1.00
H892   H     0.67255   0.29825   0.50320   0.00000  Uiso   1.00
O893   O     0.81999   0.16776   0.96464   0.00000  Uiso   1.00
C894   C     0.87038   0.15375   0.98268   0.00000  Uiso   1.00
H895   H     0.88949   0.17524   0.51367   0.00000  Uiso   1.00
H896   H     0.89589   0.15442   0.95489   0.00000  Uiso   1.00
C897   C     0.86530   0.10604   0.99930   0.00000  Uiso   1.00
H898   H     0.84719   0.08346   0.96893   0.00000  Uiso   1.00
H899   H     0.90465   0.09470   0.51400   0.00000  Uiso   1.00
H900   H     0.84045   0.10435   0.52743   0.00000  Uiso   1.00
O901   O     0.16667   0.68453   0.78974   0.00000  Uiso   1.00
O902   O     0.16666   0.81546   0.71026   0.00000  Uiso   1.00
O903   O     0.16667   0.68453   0.71026   0.00000  Uiso   1.00
O904   O     0.16666   0.81547   0.78974   0.00000  Uiso   1.00
C905   C     0.17007   0.66382   0.74999   0.00000  Uiso   1.00
C906   C     0.16680   0.83584   0.75032   0.00000  Uiso   1.00
O907   O     0.09058   0.75000   0.78044   0.00000  Uiso   1.00
O908   O     0.24275   0.75000   0.71955   0.00000  Uiso   1.00
O909   O     0.09058   0.74999   0.70096   0.00000  Uiso   1.00
O910   O     0.24275   0.75000   0.79903   0.00000  Uiso   1.00
C911   C     0.06695   0.74922   0.73767   0.00000  Uiso   1.00
C912   C     0.26626   0.74993   0.76255   0.00000  Uiso   1.00
Zn913  Zn    0.16667   0.75000   0.80307   0.00000  Uiso   1.00
Zn914  Zn    0.16667   0.74999   0.69693   0.00000  Uiso   1.00
C915   C     0.01202   0.74152   0.73300   0.00000  Uiso   1.00
C916   C     0.32122   0.75607   0.76857   0.00000  Uiso   1.00
C917   C     0.16589   0.54799   0.79401   0.00000  Uiso   1.00
C918   C     0.11386   0.94781   0.73111   0.00000  Uiso   1.00
C919   C     0.18024   0.59323   0.79343   0.00000  Uiso   1.00
C920   C     0.11660   0.90155   0.73114   0.00000  Uiso   1.00
C921   C     0.17386   0.61523   0.74970   0.00000  Uiso   1.00
C922   C     0.16398   0.88331   0.75037   0.00000  Uiso   1.00
C923   C     0.16737   0.58962   0.70654   0.00000  Uiso   1.00
C924   C     0.20850   0.91036   0.76958   0.00000  Uiso   1.00
C925   C     0.16024   0.54327   0.70768   0.00000  Uiso   1.00
C926   C     0.20518   0.95626   0.77221   0.00000  Uiso   1.00
C927   C     0.15715   0.52298   0.75119   0.00000  Uiso   1.00
C928   C     0.15775   0.97484   0.75276   0.00000  Uiso   1.00
C929   C     0.12574   0.72716   0.54569   0.00000  Uiso   1.00
C930   C     0.17526   0.78908   0.95039   0.00000  Uiso   1.00
C931   C     0.12811   0.72596   0.59550   0.00000  Uiso   1.00
C932   C     0.18189   0.78768   0.90228   0.00000  Uiso   1.00
N933   N     0.16667   0.74999   0.62623   0.00000  Uiso   1.00
N934   N     0.16667   0.75001   0.87376   0.00000  Uiso   1.00
C935   C     0.20555   0.77356   0.60848   0.00000  Uiso   1.00
C936   C     0.15075   0.71201   0.89467   0.00000  Uiso   1.00
C937   C     0.20922   0.76970   0.55936   0.00000  Uiso   1.00
C938   C     0.15848   0.70922   0.94491   0.00000  Uiso   1.00
C939   C     0.16721   0.74856   0.52683   0.00000  Uiso   1.00
C940   C     0.16705   0.74893   0.97362   0.00000  Uiso   1.00
Br941  Br    0.31364   0.69770   0.68416   0.00000  Uiso   1.00
Br942  Br    0.01913   0.79458   0.82280   0.00000  Uiso   1.00
Br943  Br    0.15964   0.52014   0.85352   0.00000  Uiso   1.00
Br944  Br    0.05063   0.97385   0.70135   0.00000  Uiso   1.00
Br945  Br    0.22102   0.62064   0.85071   0.00000  Uiso   1.00
Br946  Br    0.05571   0.86324   0.70537   0.00000  Uiso   1.00
Br947  Br    0.17456   0.61413   0.64564   0.00000  Uiso   1.00
Br948  Br    0.27544   0.88596   0.78925   0.00000  Uiso   1.00
O949   O     0.15190   0.51806   0.66550   0.00000  Uiso   1.00
C950   C     0.20020   0.50440   0.65521   0.00000  Uiso   1.00
H951   H     0.21235   0.97484   0.67626   0.00000  Uiso   1.00
H952   H     0.23208   0.53145   0.66251   0.00000  Uiso   1.00
C953   C     0.19334   0.99098   0.60275   0.00000  Uiso   1.00
H954   H     0.17949   0.51943   0.58060   0.00000  Uiso   1.00
H955   H     0.23136   0.98156   0.59373   0.00000  Uiso   1.00
H956   H     0.16428   0.96202   0.59470   0.00000  Uiso   1.00
O957   O     0.24616   0.98219   0.79888   0.00000  Uiso   1.00
C958   C     0.27984   0.50030   0.76918   0.00000  Uiso   1.00
H959   H     0.26193   0.52851   0.74921   0.00000  Uiso   1.00
H960   H     0.28943   0.97475   0.74369   0.00000  Uiso   1.00
C961   C     0.33050   0.51865   0.80006   0.00000  Uiso   1.00
H962   H     0.01815   0.99094   0.81850   0.00000  Uiso   1.00
H963   H     0.02285   0.53586   0.77773   0.00000  Uiso   1.00
H964   H     0.32170   0.54304   0.82700   0.00000  Uiso   1.00
Br965  Br    0.06329   0.70248   0.50422   0.00000  Uiso   1.00
Br966  Br    0.17229   0.84639   0.98176   0.00000  Uiso   1.00
Br967  Br    0.07696   0.68852   0.61922   0.00000  Uiso   1.00
Br968  Br    0.22048   0.83757   0.88159   0.00000  Uiso   1.00
O969   O     0.24355   0.79890   0.63915   0.00000  Uiso   1.00
C970   C     0.23005   0.84404   0.64068   0.00000  Uiso   1.00
H971   H     0.23966   0.85613   0.67830   0.00000  Uiso   1.00
H972   H     0.18758   0.84905   0.62842   0.00000  Uiso   1.00
C973   C     0.26315   0.87362   0.61293   0.00000  Uiso   1.00
H974   H     0.24834   0.86990   0.57425   0.00000  Uiso   1.00
H975   H     0.26109   0.90915   0.62374   0.00000  Uiso   1.00
H976   H     0.30466   0.86495   0.62048   0.00000  Uiso   1.00
O977   O     0.13043   0.67507   0.86680   0.00000  Uiso   1.00
C978   C     0.07545   0.67195   0.86365   0.00000  Uiso   1.00
H979   H     0.05797   0.70432   0.85386   0.00000  Uiso   1.00
H980   H     0.06461   0.66127   0.89804   0.00000  Uiso   1.00
C981   C     0.05207   0.63714   0.82531   0.00000  Uiso   1.00
H982   H     0.06854   0.60430   0.83407   0.00000  Uiso   1.00
H983   H     0.00883   0.63374   0.82294   0.00000  Uiso   1.00
H984   H     0.06127   0.64741   0.79027   0.00000  Uiso   1.00
O985   O     0.25037   0.79138   0.54208   0.00000  Uiso   1.00
C986   C     0.29707   0.76963   0.55612   0.00000  Uiso   1.00
H987   H     0.29471   0.73640   0.53757   0.00000  Uiso   1.00
H988   H     0.30579   0.76500   0.59516   0.00000  Uiso   1.00
C989   C     0.00891   0.79836   0.54250   0.00000  Uiso   1.00
H990   H     0.00812   0.83331   0.55579   0.00000  Uiso   1.00
H991   H     0.04681   0.78538   0.55861   0.00000  Uiso   1.00
H992   H     0.00588   0.79825   0.50320   0.00000  Uiso   1.00
O993   O     0.15332   0.66776   0.96464   0.00000  Uiso   1.00
C994   C     0.20371   0.65375   0.98268   0.00000  Uiso   1.00
H995   H     0.22283   0.67524   0.51367   0.00000  Uiso   1.00
H996   H     0.22922   0.65442   0.95489   0.00000  Uiso   1.00
C997   C     0.19863   0.60604   0.99930   0.00000  Uiso   1.00
H998   H     0.18052   0.58346   0.96893   0.00000  Uiso   1.00
H999   H     0.23798   0.59470   0.51400   0.00000  Uiso   1.00
H1000  H     0.17378   0.60435   0.52743   0.00000  Uiso   1.00
O1001  O     0.50000   0.68453   0.78974   0.00000  Uiso   1.00
O1002  O     0.50000   0.81546   0.71026   0.00000  Uiso   1.00
O1003  O     0.50000   0.68453   0.71026   0.00000  Uiso   1.00
O1004  O     0.50000   0.81547   0.78974   0.00000  Uiso   1.00
C1005  C     0.50340   0.66382   0.74999   0.00000  Uiso   1.00
C1006  C     0.50013   0.83584   0.75032   0.00000  Uiso   1.00
O1007  O     0.42392   0.75000   0.78044   0.00000  Uiso   1.00
O1008  O     0.57608   0.75000   0.71955   0.00000  Uiso   1.00
O1009  O     0.42392   0.74999   0.70096   0.00000  Uiso   1.00
O1010  O     0.57608   0.75000   0.79903   0.00000  Uiso   1.00
C1011  C     0.40029   0.74922   0.73767   0.00000  Uiso   1.00
C1012  C     0.59959   0.74993   0.76255   0.00000  Uiso   1.00
Zn1013 Zn    0.50000   0.75000   0.80307   0.00000  Uiso   1.00
Zn1014 Zn    0.50000   0.74999   0.69693   0.00000  Uiso   1.00
C1015  C     0.34536   0.74152   0.73300   0.00000  Uiso   1.00
C1016  C     0.65455   0.75607   0.76857   0.00000  Uiso   1.00
C1017  C     0.49922   0.54799   0.79401   0.00000  Uiso   1.00
C1018  C     0.44719   0.94781   0.73111   0.00000  Uiso   1.00
C1019  C     0.51358   0.59323   0.79343   0.00000  Uiso   1.00
C1020  C     0.44993   0.90155   0.73114   0.00000  Uiso   1.00
C1021  C     0.50719   0.61523   0.74970   0.00000  Uiso   1.00
C1022  C     0.49731   0.88331   0.75037   0.00000  Uiso   1.00
C1023  C     0.50070   0.58962   0.70654   0.00000  Uiso   1.00
C1024  C     0.54183   0.91036   0.76958   0.00000  Uiso   1.00
C1025  C     0.49357   0.54327   0.70768   0.00000  Uiso   1.00
C1026  C     0.53851   0.95626   0.77221   0.00000  Uiso   1.00
C1027  C     0.49048   0.52298   0.75119   0.00000  Uiso   1.00
C1028  C     0.49108   0.97484   0.75276   0.00000  Uiso   1.00
C1029  C     0.45907   0.72716   0.54569   0.00000  Uiso   1.00
C1030  C     0.50859   0.78908   0.95039   0.00000  Uiso   1.00
C1031  C     0.46144   0.72596   0.59550   0.00000  Uiso   1.00
C1032  C     0.51522   0.78768   0.90228   0.00000  Uiso   1.00
N1033  N     0.50000   0.74999   0.62623   0.00000  Uiso   1.00
N1034  N     0.50000   0.75001   0.87376   0.00000  Uiso   1.00
C1035  C     0.53888   0.77356   0.60848   0.00000  Uiso   1.00
C1036  C     0.48408   0.71201   0.89467   0.00000  Uiso   1.00
C1037  C     0.54255   0.76970   0.55936   0.00000  Uiso   1.00
C1038  C     0.49181   0.70922   0.94491   0.00000  Uiso   1.00
C1039  C     0.50055   0.74856   0.52683   0.00000  Uiso   1.00
C1040  C     0.50039   0.74893   0.97362   0.00000  Uiso   1.00
Br1041 Br    0.64697   0.69770   0.68416   0.00000  Uiso   1.00
Br1042 Br    0.35246   0.79458   0.82280   0.00000  Uiso   1.00
Br1043 Br    0.49298   0.52014   0.85352   0.00000  Uiso   1.00
Br1044 Br    0.38396   0.97385   0.70135   0.00000  Uiso   1.00
Br1045 Br    0.55435   0.62064   0.85071   0.00000  Uiso   1.00
Br1046 Br    0.38904   0.86324   0.70537   0.00000  Uiso   1.00
Br1047 Br    0.50789   0.61413   0.64564   0.00000  Uiso   1.00
Br1048 Br    0.60878   0.88596   0.78925   0.00000  Uiso   1.00
O1049  O     0.48524   0.51806   0.66550   0.00000  Uiso   1.00
C1050  C     0.53354   0.50440   0.65521   0.00000  Uiso   1.00
H1051  H     0.54568   0.97484   0.67626   0.00000  Uiso   1.00
H1052  H     0.56541   0.53145   0.66251   0.00000  Uiso   1.00
C1053  C     0.52667   0.99098   0.60275   0.00000  Uiso   1.00
H1054  H     0.51282   0.51943   0.58060   0.00000  Uiso   1.00
H1055  H     0.56469   0.98156   0.59373   0.00000  Uiso   1.00
H1056  H     0.49762   0.96202   0.59470   0.00000  Uiso   1.00
O1057  O     0.57949   0.98219   0.79888   0.00000  Uiso   1.00
C1058  C     0.61317   0.50030   0.76918   0.00000  Uiso   1.00
H1059  H     0.59527   0.52851   0.74921   0.00000  Uiso   1.00
H1060  H     0.62276   0.97475   0.74369   0.00000  Uiso   1.00
C1061  C     0.66383   0.51865   0.80006   0.00000  Uiso   1.00
H1062  H     0.35149   0.99094   0.81850   0.00000  Uiso   1.00
H1063  H     0.35619   0.53586   0.77773   0.00000  Uiso   1.00
H1064  H     0.65503   0.54304   0.82700   0.00000  Uiso   1.00
Br1065 Br    0.39663   0.70248   0.50422   0.00000  Uiso   1.00
Br1066 Br    0.50562   0.84639   0.98176   0.00000  Uiso   1.00
Br1067 Br    0.41029   0.68852   0.61922   0.00000  Uiso   1.00
Br1068 Br    0.55382   0.83757   0.88159   0.00000  Uiso   1.00
O1069  O     0.57688   0.79890   0.63915   0.00000  Uiso   1.00
C1070  C     0.56339   0.84404   0.64068   0.00000  Uiso   1.00
H1071  H     0.57299   0.85613   0.67830   0.00000  Uiso   1.00
H1072  H     0.52091   0.84905   0.62842   0.00000  Uiso   1.00
C1073  C     0.59649   0.87362   0.61293   0.00000  Uiso   1.00
H1074  H     0.58167   0.86990   0.57425   0.00000  Uiso   1.00
H1075  H     0.59442   0.90915   0.62374   0.00000  Uiso   1.00
H1076  H     0.63799   0.86495   0.62048   0.00000  Uiso   1.00
O1077  O     0.46376   0.67507   0.86680   0.00000  Uiso   1.00
C1078  C     0.40878   0.67195   0.86365   0.00000  Uiso   1.00
H1079  H     0.39130   0.70432   0.85386   0.00000  Uiso   1.00
H1080  H     0.39794   0.66127   0.89804   0.00000  Uiso   1.00
C1081  C     0.38540   0.63714   0.82531   0.00000  Uiso   1.00
H1082  H     0.40187   0.60430   0.83407   0.00000  Uiso   1.00
H1083  H     0.34217   0.63374   0.82294   0.00000  Uiso   1.00
H1084  H     0.39461   0.64741   0.79027   0.00000  Uiso   1.00
O1085  O     0.58370   0.79138   0.54208   0.00000  Uiso   1.00
C1086  C     0.63040   0.76963   0.55612   0.00000  Uiso   1.00
H1087  H     0.62804   0.73640   0.53757   0.00000  Uiso   1.00
H1088  H     0.63912   0.76500   0.59516   0.00000  Uiso   1.00
C1089  C     0.34225   0.79836   0.54250   0.00000  Uiso   1.00
H1090  H     0.34145   0.83331   0.55579   0.00000  Uiso   1.00
H1091  H     0.38014   0.78538   0.55861   0.00000  Uiso   1.00
H1092  H     0.33922   0.79825   0.50320   0.00000  Uiso   1.00
O1093  O     0.48666   0.66776   0.96464   0.00000  Uiso   1.00
C1094  C     0.53704   0.65375   0.98268   0.00000  Uiso   1.00
H1095  H     0.55616   0.67524   0.51367   0.00000  Uiso   1.00
H1096  H     0.56255   0.65442   0.95489   0.00000  Uiso   1.00
C1097  C     0.53196   0.60604   0.99930   0.00000  Uiso   1.00
H1098  H     0.51386   0.58346   0.96893   0.00000  Uiso   1.00
H1099  H     0.57132   0.59470   0.51400   0.00000  Uiso   1.00
H1100  H     0.50711   0.60435   0.52743   0.00000  Uiso   1.00
O1101  O     0.83334   0.68453   0.78974   0.00000  Uiso   1.00
O1102  O     0.83333   0.81546   0.71026   0.00000  Uiso   1.00
O1103  O     0.83334   0.68453   0.71026   0.00000  Uiso   1.00
O1104  O     0.83333   0.81547   0.78974   0.00000  Uiso   1.00
C1105  C     0.83673   0.66382   0.74999   0.00000  Uiso   1.00
C1106  C     0.83346   0.83584   0.75032   0.00000  Uiso   1.00
O1107  O     0.75725   0.75000   0.78044   0.00000  Uiso   1.00
O1108  O     0.90942   0.75000   0.71955   0.00000  Uiso   1.00
O1109  O     0.75725   0.74999   0.70096   0.00000  Uiso   1.00
O1110  O     0.90942   0.75000   0.79903   0.00000  Uiso   1.00
C1111  C     0.73362   0.74922   0.73767   0.00000  Uiso   1.00
C1112  C     0.93293   0.74993   0.76255   0.00000  Uiso   1.00
Zn1113 Zn    0.83333   0.75000   0.80307   0.00000  Uiso   1.00
Zn1114 Zn    0.83333   0.74999   0.69693   0.00000  Uiso   1.00
C1115  C     0.67869   0.74152   0.73300   0.00000  Uiso   1.00
C1116  C     0.98789   0.75607   0.76857   0.00000  Uiso   1.00
C1117  C     0.83256   0.54799   0.79401   0.00000  Uiso   1.00
C1118  C     0.78052   0.94781   0.73111   0.00000  Uiso   1.00
C1119  C     0.84691   0.59323   0.79343   0.00000  Uiso   1.00
C1120  C     0.78327   0.90155   0.73114   0.00000  Uiso   1.00
C1121  C     0.84053   0.61523   0.74970   0.00000  Uiso   1.00
C1122  C     0.83065   0.88331   0.75037   0.00000  Uiso   1.00
C1123  C     0.83403   0.58962   0.70654   0.00000  Uiso   1.00
C1124  C     0.87517   0.91036   0.76958   0.00000  Uiso   1.00
C1125  C     0.82690   0.54327   0.70768   0.00000  Uiso   1.00
C1126  C     0.87184   0.95626   0.77221   0.00000  Uiso   1.00
C1127  C     0.82381   0.52298   0.75119   0.00000  Uiso   1.00
C1128  C     0.82441   0.97484   0.75276   0.00000  Uiso   1.00
C1129  C     0.79241   0.72716   0.54569   0.00000  Uiso   1.00
C1130  C     0.84192   0.78908   0.95039   0.00000  Uiso   1.00
C1131  C     0.79478   0.72596   0.59550   0.00000  Uiso   1.00
C1132  C     0.84856   0.78768   0.90228   0.00000  Uiso   1.00
N1133  N     0.83333   0.74999   0.62623   0.00000  Uiso   1.00
N1134  N     0.83333   0.75001   0.87376   0.00000  Uiso   1.00
C1135  C     0.87221   0.77356   0.60848   0.00000  Uiso   1.00
C1136  C     0.81741   0.71201   0.89467   0.00000  Uiso   1.00
C1137  C     0.87589   0.76970   0.55936   0.00000  Uiso   1.00
C1138  C     0.82515   0.70922   0.94491   0.00000  Uiso   1.00
C1139  C     0.83388   0.74856   0.52683   0.00000  Uiso   1.00
C1140  C     0.83372   0.74893   0.97362   0.00000  Uiso   1.00
Br1141 Br    0.98031   0.69770   0.68416   0.00000  Uiso   1.00
Br1142 Br    0.68580   0.79458   0.82280   0.00000  Uiso   1.00
Br1143 Br    0.82631   0.52014   0.85352   0.00000  Uiso   1.00
Br1144 Br    0.71730   0.97385   0.70135   0.00000  Uiso   1.00
Br1145 Br    0.88769   0.62064   0.85071   0.00000  Uiso   1.00
Br1146 Br    0.72238   0.86324   0.70537   0.00000  Uiso   1.00
Br1147 Br    0.84122   0.61413   0.64564   0.00000  Uiso   1.00
Br1148 Br    0.94211   0.88596   0.78925   0.00000  Uiso   1.00
O1149  O     0.81857   0.51806   0.66550   0.00000  Uiso   1.00
C1150  C     0.86687   0.50440   0.65521   0.00000  Uiso   1.00
H1151  H     0.87901   0.97484   0.67626   0.00000  Uiso   1.00
H1152  H     0.89875   0.53145   0.66251   0.00000  Uiso   1.00
C1153  C     0.86000   0.99098   0.60275   0.00000  Uiso   1.00
H1154  H     0.84615   0.51943   0.58060   0.00000  Uiso   1.00
H1155  H     0.89803   0.98156   0.59373   0.00000  Uiso   1.00
H1156  H     0.83095   0.96202   0.59470   0.00000  Uiso   1.00
O1157  O     0.91282   0.98219   0.79888   0.00000  Uiso   1.00
C1158  C     0.94650   0.50030   0.76918   0.00000  Uiso   1.00
H1159  H     0.92860   0.52851   0.74921   0.00000  Uiso   1.00
H1160  H     0.95610   0.97475   0.74369   0.00000  Uiso   1.00
C1161  C     0.99717   0.51865   0.80006   0.00000  Uiso   1.00
H1162  H     0.68482   0.99094   0.81850   0.00000  Uiso   1.00
H1163  H     0.68952   0.53586   0.77773   0.00000  Uiso   1.00
H1164  H     0.98837   0.54304   0.82700   0.00000  Uiso   1.00
Br1165 Br    0.72996   0.70248   0.50422   0.00000  Uiso   1.00
Br1166 Br    0.83896   0.84639   0.98176   0.00000  Uiso   1.00
Br1167 Br    0.74363   0.68852   0.61922   0.00000  Uiso   1.00
Br1168 Br    0.88715   0.83757   0.88159   0.00000  Uiso   1.00
O1169  O     0.91022   0.79890   0.63915   0.00000  Uiso   1.00
C1170  C     0.89672   0.84404   0.64068   0.00000  Uiso   1.00
H1171  H     0.90632   0.85613   0.67830   0.00000  Uiso   1.00
H1172  H     0.85425   0.84905   0.62842   0.00000  Uiso   1.00
C1173  C     0.92982   0.87362   0.61293   0.00000  Uiso   1.00
H1174  H     0.91500   0.86990   0.57425   0.00000  Uiso   1.00
H1175  H     0.92775   0.90915   0.62374   0.00000  Uiso   1.00
H1176  H     0.97133   0.86495   0.62048   0.00000  Uiso   1.00
O1177  O     0.79710   0.67507   0.86680   0.00000  Uiso   1.00
C1178  C     0.74211   0.67195   0.86365   0.00000  Uiso   1.00
H1179  H     0.72464   0.70432   0.85386   0.00000  Uiso   1.00
H1180  H     0.73128   0.66127   0.89804   0.00000  Uiso   1.00
C1181  C     0.71874   0.63714   0.82531   0.00000  Uiso   1.00
H1182  H     0.73521   0.60430   0.83407   0.00000  Uiso   1.00
H1183  H     0.67550   0.63374   0.82294   0.00000  Uiso   1.00
H1184  H     0.72794   0.64741   0.79027   0.00000  Uiso   1.00
O1185  O     0.91704   0.79138   0.54208   0.00000  Uiso   1.00
C1186  C     0.96374   0.76963   0.55612   0.00000  Uiso   1.00
H1187  H     0.96137   0.73640   0.53757   0.00000  Uiso   1.00
H1188  H     0.97246   0.76500   0.59516   0.00000  Uiso   1.00
C1189  C     0.67558   0.79836   0.54250   0.00000  Uiso   1.00
H1190  H     0.67478   0.83331   0.55579   0.00000  Uiso   1.00
H1191  H     0.71348   0.78538   0.55861   0.00000  Uiso   1.00
H1192  H     0.67255   0.79825   0.50320   0.00000  Uiso   1.00
O1193  O     0.81999   0.66776   0.96464   0.00000  Uiso   1.00
C1194  C     0.87038   0.65375   0.98268   0.00000  Uiso   1.00
H1195  H     0.88949   0.67524   0.51367   0.00000  Uiso   1.00
H1196  H     0.89589   0.65442   0.95489   0.00000  Uiso   1.00
C1197  C     0.86530   0.60604   0.99930   0.00000  Uiso   1.00
H1198  H     0.84719   0.58346   0.96893   0.00000  Uiso   1.00
H1199  H     0.90465   0.59470   0.51400   0.00000  Uiso   1.00
H1200  H     0.84045   0.60435   0.52743   0.00000  Uiso   1.00
loop_
_geom_bond_atom_site_label_1
_geom_bond_atom_site_label_2
_geom_bond_distance
_geom_bond_site_symmetry_2
_ccdc_geom_bond_type
O1     C5      1.301   .     A
O1     Zn13    1.991   .     S
O2     C6      1.285   .     A
O2     Zn14    1.991   .     S
O3     Zn14    2.006   .     S
O3     C5      1.295   .     A
O4     Zn13    2.006   .     S
O4     C6      1.290   .     A
C5     C21     1.465   .     S
C6     C22     1.429   .     S
O7     C11     1.269   .     A
O7     Zn13    1.970   .     S
O8     C12     1.275   .     A
O8     Zn14    1.970   .     S
O9     Zn14    1.995   .     S
O9     C11     1.299   .     A
O10    C12     1.292   .     A
O10    Zn13    1.995   .     S
C11    C15     1.413   .     S
C12    C16     1.408   .     S
Zn13   N34     2.017   .     S
Zn14   N33     2.017   .     S
C15    C216    1.356   1_455 S
C15    Br241   1.940   1_455 S
C16    C115    1.356   .     S
C16    Br142   1.946   .     S
C17    C27     1.399   .     A
C17    Br43    1.933   .     S
C17    C19     1.387   .     A
C18    C28     1.405   .     A
C18    Br44    1.928   .     S
C18    C20     1.392   .     A
C19    C21     1.412   .     A
C19    Br45    1.932   .     S
C20    C22     1.403   .     A
C20    Br46    1.930   .     S
C21    C23     1.419   .     A
C22    C24     1.398   .     A
C23    Br47    1.933   .     S
C23    C25     1.393   .     A
C24    C26     1.385   .     A
C24    Br48    1.922   .     S
C25    C27     1.405   .     A
C25    O49     1.387   .     S
C26    C28     1.411   .     A
C26    O57     1.387   .     S
C27    C328    1.445   1_545 S
C28    C327    1.445   .     S
C29    C39     1.410   .     A
C29    Br65    1.938   .     S
C29    C31     1.413   .     A
C30    C40     1.408   .     A
C30    Br66    1.933   .     S
C30    C32     1.412   .     A
C31    Br67    1.908   .     S
C31    N33     1.373   .     A
C32    Br68    1.910   .     S
C32    N34     1.378   .     A
N33    C35     1.370   .     A
N34    C36     1.371   .     A
C35    C37     1.424   .     A
C35    O69     1.383   .     S
C36    O77     1.377   .     S
C36    C38     1.418   .     A
C37    O85     1.384   .     S
C37    C39     1.417   .     A
C38    C40     1.417   .     A
C38    O93     1.383   .     S
C39    C640    1.518   1_554 S
C40    C639    1.518   .     S
Br41   C115    1.940   .     S
Br42   C216    1.946   1_455 S
O49    C50     1.414   .     S
C50    H52     1.115   .     S
C50    H351    1.110   1_545 S
C50    C353    1.521   1_545 S
H51    C350    1.110   .     S
C53    H55     1.110   .     S
C53    H56     1.111   .     S
C53    C350    1.521   .     S
C53    H354    1.111   .     S
H54    C353    1.111   1_545 S
O57    C358    1.410   .     S
C58    C61     1.521   .     S
C58    H59     1.108   .     S
C58    O357    1.410   1_545 S
C58    H360    1.113   1_545 S
H60    C358    1.113   .     S
C61    H64     1.111   .     S
C61    H462    1.111   1_545 S
C61    H163    1.110   .     S
H62    C561    1.111   1_455 S
H63    C261    1.110   1_455 S
O69    C70     1.418   .     S
C70    H71     1.109   .     S
C70    C73     1.523   .     S
C70    H72     1.118   .     S
C73    H74     1.107   .     S
C73    H75     1.110   .     S
C73    H76     1.108   .     S
O77    C78     1.411   .     S
C78    H80     1.113   .     S
C78    H79     1.114   .     S
C78    C81     1.521   .     S
C81    H83     1.110   .     S
C81    H82     1.111   .     S
C81    H84     1.111   .     S
O85    C86     1.410   .     S
C86    H88     1.112   .     S
C86    H87     1.112   .     S
C86    C189    1.522   .     S
C89    H91     1.107   .     S
C89    H92     1.111   .     S
C89    H90     1.109   .     S
C89    C286    1.522   1_455 S
O93    C94     1.411   .     S
C94    C97     1.521   .     S
C94    H96     1.115   .     S
C94    H695    1.112   .     S
H95    C694    1.112   1_554 S
C97    H98     1.111   .     S
C97    H699    1.110   .     S
C97    H700    1.111   .     S
H99    C697    1.110   1_554 S
H100   C697    1.111   1_554 S
O101   C105    1.301   .     A
O101   Zn113   1.991   .     S
O102   C106    1.285   .     A
O102   Zn114   1.991   .     S
O103   Zn114   2.006   .     S
O103   C105    1.295   .     A
O104   Zn113   2.006   .     S
O104   C106    1.290   .     A
C105   C121    1.465   .     S
C106   C122    1.429   .     S
O107   C111    1.269   .     A
O107   Zn113   1.970   .     S
O108   C112    1.275   .     A
O108   Zn114   1.970   .     S
O109   Zn114   1.995   .     S
O109   C111    1.299   .     A
O110   C112    1.292   .     A
O110   Zn113   1.995   .     S
C111   C115    1.413   .     S
C112   C116    1.408   .     S
Zn113  N134    2.017   .     S
Zn114  N133    2.017   .     S
C116   C215    1.356   .     S
C116   Br242   1.946   .     S
C117   C127    1.399   .     A
C117   Br143   1.933   .     S
C117   C119    1.387   .     A
C118   C128    1.405   .     A
C118   Br144   1.928   .     S
C118   C120    1.392   .     A
C119   C121    1.412   .     A
C119   Br145   1.932   .     S
C120   C122    1.403   .     A
C120   Br146   1.930   .     S
C121   C123    1.419   .     A
C122   C124    1.398   .     A
C123   Br147   1.933   .     S
C123   C125    1.393   .     A
C124   C126    1.385   .     A
C124   Br148   1.922   .     S
C125   C127    1.405   .     A
C125   O149    1.387   .     S
C126   C128    1.411   .     A
C126   O157    1.387   .     S
C127   C428    1.445   1_545 S
C128   C427    1.445   .     S
C129   C139    1.410   .     A
C129   Br165   1.938   .     S
C129   C131    1.413   .     A
C130   C140    1.408   .     A
C130   Br166   1.933   .     S
C130   C132    1.412   .     A
C131   Br167   1.908   .     S
C131   N133    1.373   .     A
C132   Br168   1.910   .     S
C132   N134    1.378   .     A
N133   C135    1.370   .     A
N134   C136    1.371   .     A
C135   C137    1.424   .     A
C135   O169    1.383   .     S
C136   O177    1.377   .     S
C136   C138    1.418   .     A
C137   O185    1.384   .     S
C137   C139    1.417   .     A
C138   C140    1.417   .     A
C138   O193    1.383   .     S
C139   C740    1.518   1_554 S
C140   C739    1.518   .     S
Br141  C215    1.940   .     S
O149   C150    1.414   .     S
C150   H152    1.115   .     S
C150   H451    1.110   1_545 S
C150   C453    1.521   1_545 S
H151   C450    1.110   .     S
C153   H155    1.110   .     S
C153   H156    1.111   .     S
C153   C450    1.521   .     S
C153   H454    1.111   .     S
H154   C453    1.111   1_545 S
O157   C458    1.410   .     S
C158   C161    1.521   .     S
C158   H159    1.108   .     S
C158   O457    1.410   1_545 S
C158   H460    1.113   1_545 S
H160   C458    1.113   .     S
C161   H164    1.111   .     S
C161   H562    1.111   1_545 S
C161   H263    1.110   .     S
H162   C361    1.111   .     S
O169   C170    1.418   .     S
C170   H171    1.109   .     S
C170   C173    1.523   .     S
C170   H172    1.118   .     S
C173   H174    1.107   .     S
C173   H175    1.110   .     S
C173   H176    1.108   .     S
O177   C178    1.411   .     S
C178   H180    1.113   .     S
C178   H179    1.114   .     S
C178   C181    1.521   .     S
C181   H183    1.110   .     S
C181   H182    1.111   .     S
C181   H184    1.111   .     S
O185   C186    1.410   .     S
C186   H188    1.112   .     S
C186   H187    1.112   .     S
C186   C289    1.522   .     S
C189   H191    1.107   .     S
C189   H192    1.111   .     S
C189   H190    1.109   .     S
O193   C194    1.411   .     S
C194   C197    1.521   .     S
C194   H196    1.115   .     S
C194   H795    1.112   .     S
H195   C794    1.112   1_554 S
C197   H198    1.111   .     S
C197   H799    1.110   .     S
C197   H800    1.111   .     S
H199   C797    1.110   1_554 S
H200   C797    1.111   1_554 S
O201   C205    1.301   .     A
O201   Zn213   1.991   .     S
O202   C206    1.285   .     A
O202   Zn214   1.991   .     S
O203   Zn214   2.006   .     S
O203   C205    1.295   .     A
O204   Zn213   2.006   .     S
O204   C206    1.290   .     A
C205   C221    1.465   .     S
C206   C222    1.429   .     S
O207   C211    1.269   .     A
O207   Zn213   1.970   .     S
O208   C212    1.275   .     A
O208   Zn214   1.970   .     S
O209   Zn214   1.995   .     S
O209   C211    1.299   .     A
O210   C212    1.292   .     A
O210   Zn213   1.995   .     S
C211   C215    1.413   .     S
C212   C216    1.408   .     S
Zn213  N234    2.017   .     S
Zn214  N233    2.017   .     S
C216   C15     1.356   1_655 S
C216   Br42    1.946   1_655 S
C217   C227    1.399   .     A
C217   Br243   1.933   .     S
C217   C219    1.387   .     A
C218   C228    1.405   .     A
C218   Br244   1.928   .     S
C218   C220    1.392   .     A
C219   C221    1.412   .     A
C219   Br245   1.932   .     S
C220   C222    1.403   .     A
C220   Br246   1.930   .     S
C221   C223    1.419   .     A
C222   C224    1.398   .     A
C223   Br247   1.933   .     S
C223   C225    1.393   .     A
C224   C226    1.385   .     A
C224   Br248   1.922   .     S
C225   C227    1.405   .     A
C225   O249    1.387   .     S
C226   C228    1.411   .     A
C226   O257    1.387   .     S
C227   C528    1.445   1_545 S
C228   C527    1.445   .     S
C229   C239    1.410   .     A
C229   Br265   1.938   .     S
C229   C231    1.413   .     A
C230   C240    1.408   .     A
C230   Br266   1.933   .     S
C230   C232    1.412   .     A
C231   Br267   1.908   .     S
C231   N233    1.373   .     A
C232   Br268   1.910   .     S
C232   N234    1.378   .     A
N233   C235    1.370   .     A
N234   C236    1.371   .     A
C235   C237    1.424   .     A
C235   O269    1.383   .     S
C236   O277    1.377   .     S
C236   C238    1.418   .     A
C237   O285    1.384   .     S
C237   C239    1.417   .     A
C238   C240    1.417   .     A
C238   O293    1.383   .     S
C239   C840    1.518   1_554 S
C240   C839    1.518   .     S
Br241  C15     1.940   1_655 S
O249   C250    1.414   .     S
C250   H252    1.115   .     S
C250   H551    1.110   1_545 S
C250   C553    1.521   1_545 S
H251   C550    1.110   .     S
C253   H255    1.110   .     S
C253   H256    1.111   .     S
C253   C550    1.521   .     S
C253   H554    1.111   .     S
H254   C553    1.111   1_545 S
O257   C558    1.410   .     S
C258   C261    1.521   .     S
C258   H259    1.108   .     S
C258   O557    1.410   1_545 S
C258   H560    1.113   1_545 S
H260   C558    1.113   .     S
C261   H264    1.111   .     S
C261   H362    1.111   1_645 S
C261   H63     1.110   1_655 S
H262   C461    1.111   .     S
O269   C270    1.418   .     S
C270   H271    1.109   .     S
C270   C273    1.523   .     S
C270   H272    1.118   .     S
C273   H274    1.107   .     S
C273   H275    1.110   .     S
C273   H276    1.108   .     S
O277   C278    1.411   .     S
C278   H280    1.113   .     S
C278   H279    1.114   .     S
C278   C281    1.521   .     S
C281   H283    1.110   .     S
C281   H282    1.111   .     S
C281   H284    1.111   .     S
O285   C286    1.410   .     S
C286   H288    1.112   .     S
C286   H287    1.112   .     S
C286   C89     1.522   1_655 S
C289   H291    1.107   .     S
C289   H292    1.111   .     S
C289   H290    1.109   .     S
O293   C294    1.411   .     S
C294   C297    1.521   .     S
C294   H296    1.115   .     S
C294   H895    1.112   .     S
H295   C894    1.112   1_554 S
C297   H298    1.111   .     S
C297   H899    1.110   .     S
C297   H900    1.111   .     S
H299   C897    1.110   1_554 S
H300   C897    1.111   1_554 S
O301   C305    1.301   .     A
O301   Zn313   1.991   .     S
O302   C306    1.285   .     A
O302   Zn314   1.991   .     S
O303   Zn314   2.006   .     S
O303   C305    1.295   .     A
O304   Zn313   2.006   .     S
O304   C306    1.290   .     A
C305   C321    1.465   .     S
C306   C322    1.429   .     S
O307   C311    1.269   .     A
O307   Zn313   1.970   .     S
O308   C312    1.275   .     A
O308   Zn314   1.970   .     S
O309   Zn314   1.995   .     S
O309   C311    1.299   .     A
O310   C312    1.292   .     A
O310   Zn313   1.995   .     S
C311   C315    1.413   .     S
C312   C316    1.408   .     S
Zn313  N334    2.017   .     S
Zn314  N333    2.017   .     S
C315   C516    1.356   1_455 S
C315   Br541   1.940   1_455 S
C316   C415    1.356   .     S
C316   Br442   1.946   .     S
C317   C327    1.399   .     A
C317   Br343   1.933   .     S
C317   C319    1.387   .     A
C318   C328    1.405   .     A
C318   Br344   1.928   .     S
C318   C320    1.392   .     A
C319   C321    1.412   .     A
C319   Br345   1.932   .     S
C320   C322    1.403   .     A
C320   Br346   1.930   .     S
C321   C323    1.419   .     A
C322   C324    1.398   .     A
C323   Br347   1.933   .     S
C323   C325    1.393   .     A
C324   C326    1.385   .     A
C324   Br348   1.922   .     S
C325   C327    1.405   .     A
C325   O349    1.387   .     S
C326   C328    1.411   .     A
C326   O357    1.387   .     S
C328   C27     1.445   1_565 S
C329   C339    1.410   .     A
C329   Br365   1.938   .     S
C329   C331    1.413   .     A
C330   C340    1.408   .     A
C330   Br366   1.933   .     S
C330   C332    1.412   .     A
C331   Br367   1.908   .     S
C331   N333    1.373   .     A
C332   Br368   1.910   .     S
C332   N334    1.378   .     A
N333   C335    1.370   .     A
N334   C336    1.371   .     A
C335   C337    1.424   .     A
C335   O369    1.383   .     S
C336   O377    1.377   .     S
C336   C338    1.418   .     A
C337   O385    1.384   .     S
C337   C339    1.417   .     A
C338   C340    1.417   .     A
C338   O393    1.383   .     S
C339   C940    1.518   1_554 S
C340   C939    1.518   .     S
Br341  C415    1.940   .     S
Br342  C516    1.946   1_455 S
O349   C350    1.414   .     S
C350   H352    1.115   .     S
H351   C50     1.110   1_565 S
C353   H355    1.110   .     S
C353   H356    1.111   .     S
C353   C50     1.521   1_565 S
C353   H54     1.111   1_565 S
O357   C58     1.410   1_565 S
C358   C361    1.521   .     S
C358   H359    1.108   .     S
H360   C58     1.113   1_565 S
C361   H364    1.111   .     S
C361   H463    1.110   .     S
H362   C261    1.111   1_465 S
H363   C561    1.110   1_455 S
O369   C370    1.418   .     S
C370   H371    1.109   .     S
C370   C373    1.523   .     S
C370   H372    1.118   .     S
C373   H374    1.107   .     S
C373   H375    1.110   .     S
C373   H376    1.108   .     S
O377   C378    1.411   .     S
C378   H380    1.113   .     S
C378   H379    1.114   .     S
C378   C381    1.521   .     S
C381   H383    1.110   .     S
C381   H382    1.111   .     S
C381   H384    1.111   .     S
O385   C386    1.410   .     S
C386   H388    1.112   .     S
C386   H387    1.112   .     S
C386   C489    1.522   .     S
C389   H391    1.107   .     S
C389   H392    1.111   .     S
C389   H390    1.109   .     S
C389   C586    1.522   1_455 S
O393   C394    1.411   .     S
C394   C397    1.521   .     S
C394   H396    1.115   .     S
C394   H995    1.112   .     S
H395   C994    1.112   1_554 S
C397   H398    1.111   .     S
C397   H999    1.110   .     S
C397   H1000   1.111   .     S
H399   C997    1.110   1_554 S
H400   C997    1.111   1_554 S
O401   C405    1.301   .     A
O401   Zn413   1.991   .     S
O402   C406    1.285   .     A
O402   Zn414   1.991   .     S
O403   Zn414   2.006   .     S
O403   C405    1.295   .     A
O404   Zn413   2.006   .     S
O404   C406    1.290   .     A
C405   C421    1.465   .     S
C406   C422    1.429   .     S
O407   C411    1.269   .     A
O407   Zn413   1.970   .     S
O408   C412    1.275   .     A
O408   Zn414   1.970   .     S
O409   Zn414   1.995   .     S
O409   C411    1.299   .     A
O410   C412    1.292   .     A
O410   Zn413   1.995   .     S
C411   C415    1.413   .     S
C412   C416    1.408   .     S
Zn413  N434    2.017   .     S
Zn414  N433    2.017   .     S
C416   C515    1.356   .     S
C416   Br542   1.946   .     S
C417   C427    1.399   .     A
C417   Br443   1.933   .     S
C417   C419    1.387   .     A
C418   C428    1.405   .     A
C418   Br444   1.928   .     S
C418   C420    1.392   .     A
C419   C421    1.412   .     A
C419   Br445   1.932   .     S
C420   C422    1.403   .     A
C420   Br446   1.930   .     S
C421   C423    1.419   .     A
C422   C424    1.398   .     A
C423   Br447   1.933   .     S
C423   C425    1.393   .     A
C424   C426    1.385   .     A
C424   Br448   1.922   .     S
C425   C427    1.405   .     A
C425   O449    1.387   .     S
C426   C428    1.411   .     A
C426   O457    1.387   .     S
C428   C127    1.445   1_565 S
C429   C439    1.410   .     A
C429   Br465   1.938   .     S
C429   C431    1.413   .     A
C430   C440    1.408   .     A
C430   Br466   1.933   .     S
C430   C432    1.412   .     A
C431   Br467   1.908   .     S
C431   N433    1.373   .     A
C432   Br468   1.910   .     S
C432   N434    1.378   .     A
N433   C435    1.370   .     A
N434   C436    1.371   .     A
C435   C437    1.424   .     A
C435   O469    1.383   .     S
C436   O477    1.377   .     S
C436   C438    1.418   .     A
C437   O485    1.384   .     S
C437   C439    1.417   .     A
C438   C440    1.417   .     A
C438   O493    1.383   .     S
C439   C1040   1.518   1_554 S
C440   C1039   1.518   .     S
Br441  C515    1.940   .     S
O449   C450    1.414   .     S
C450   H452    1.115   .     S
H451   C150    1.110   1_565 S
C453   H455    1.110   .     S
C453   H456    1.111   .     S
C453   C150    1.521   1_565 S
C453   H154    1.111   1_565 S
O457   C158    1.410   1_565 S
C458   C461    1.521   .     S
C458   H459    1.108   .     S
H460   C158    1.113   1_565 S
C461   H464    1.111   .     S
C461   H563    1.110   .     S
H462   C61     1.111   1_565 S
O469   C470    1.418   .     S
C470   H471    1.109   .     S
C470   C473    1.523   .     S
C470   H472    1.118   .     S
C473   H474    1.107   .     S
C473   H475    1.110   .     S
C473   H476    1.108   .     S
O477   C478    1.411   .     S
C478   H480    1.113   .     S
C478   H479    1.114   .     S
C478   C481    1.521   .     S
C481   H483    1.110   .     S
C481   H482    1.111   .     S
C481   H484    1.111   .     S
O485   C486    1.410   .     S
C486   H488    1.112   .     S
C486   H487    1.112   .     S
C486   C589    1.522   .     S
C489   H491    1.107   .     S
C489   H492    1.111   .     S
C489   H490    1.109   .     S
O493   C494    1.411   .     S
C494   C497    1.521   .     S
C494   H496    1.115   .     S
C494   H1095   1.112   .     S
H495   C1094   1.112   1_554 S
C497   H498    1.111   .     S
C497   H1099   1.110   .     S
C497   H1100   1.111   .     S
H499   C1097   1.110   1_554 S
H500   C1097   1.111   1_554 S
O501   C505    1.301   .     A
O501   Zn513   1.991   .     S
O502   C506    1.285   .     A
O502   Zn514   1.991   .     S
O503   Zn514   2.006   .     S
O503   C505    1.295   .     A
O504   Zn513   2.006   .     S
O504   C506    1.290   .     A
C505   C521    1.465   .     S
C506   C522    1.429   .     S
O507   C511    1.269   .     A
O507   Zn513   1.970   .     S
O508   C512    1.275   .     A
O508   Zn514   1.970   .     S
O509   Zn514   1.995   .     S
O509   C511    1.299   .     A
O510   C512    1.292   .     A
O510   Zn513   1.995   .     S
C511   C515    1.413   .     S
C512   C516    1.408   .     S
Zn513  N534    2.017   .     S
Zn514  N533    2.017   .     S
C516   C315    1.356   1_655 S
C516   Br342   1.946   1_655 S
C517   C527    1.399   .     A
C517   Br543   1.933   .     S
C517   C519    1.387   .     A
C518   C528    1.405   .     A
C518   Br544   1.928   .     S
C518   C520    1.392   .     A
C519   C521    1.412   .     A
C519   Br545   1.932   .     S
C520   C522    1.403   .     A
C520   Br546   1.930   .     S
C521   C523    1.419   .     A
C522   C524    1.398   .     A
C523   Br547   1.933   .     S
C523   C525    1.393   .     A
C524   C526    1.385   .     A
C524   Br548   1.922   .     S
C525   C527    1.405   .     A
C525   O549    1.387   .     S
C526   C528    1.411   .     A
C526   O557    1.387   .     S
C528   C227    1.445   1_565 S
C529   C539    1.410   .     A
C529   Br565   1.938   .     S
C529   C531    1.413   .     A
C530   C540    1.408   .     A
C530   Br566   1.933   .     S
C530   C532    1.412   .     A
C531   Br567   1.908   .     S
C531   N533    1.373   .     A
C532   Br568   1.910   .     S
C532   N534    1.378   .     A
N533   C535    1.370   .     A
N534   C536    1.371   .     A
C535   C537    1.424   .     A
C535   O569    1.383   .     S
C536   O577    1.377   .     S
C536   C538    1.418   .     A
C537   O585    1.384   .     S
C537   C539    1.417   .     A
C538   C540    1.417   .     A
C538   O593    1.383   .     S
C539   C1140   1.518   1_554 S
C540   C1139   1.518   .     S
Br541  C315    1.940   1_655 S
O549   C550    1.414   .     S
C550   H552    1.115   .     S
H551   C250    1.110   1_565 S
C553   H555    1.110   .     S
C553   H556    1.111   .     S
C553   C250    1.521   1_565 S
C553   H254    1.111   1_565 S
O557   C258    1.410   1_565 S
C558   C561    1.521   .     S
C558   H559    1.108   .     S
H560   C258    1.113   1_565 S
C561   H564    1.111   .     S
C561   H62     1.111   1_655 S
C561   H363    1.110   1_655 S
H562   C161    1.111   1_565 S
O569   C570    1.418   .     S
C570   H571    1.109   .     S
C570   C573    1.523   .     S
C570   H572    1.118   .     S
C573   H574    1.107   .     S
C573   H575    1.110   .     S
C573   H576    1.108   .     S
O577   C578    1.411   .     S
C578   H580    1.113   .     S
C578   H579    1.114   .     S
C578   C581    1.521   .     S
C581   H583    1.110   .     S
C581   H582    1.111   .     S
C581   H584    1.111   .     S
O585   C586    1.410   .     S
C586   H588    1.112   .     S
C586   H587    1.112   .     S
C586   C389    1.522   1_655 S
C589   H591    1.107   .     S
C589   H592    1.111   .     S
C589   H590    1.109   .     S
O593   C594    1.411   .     S
C594   C597    1.521   .     S
C594   H596    1.115   .     S
C594   H1195   1.112   .     S
H595   C1194   1.112   1_554 S
C597   H598    1.111   .     S
C597   H1199   1.110   .     S
C597   H1200   1.111   .     S
H599   C1197   1.110   1_554 S
H600   C1197   1.111   1_554 S
O601   C605    1.301   .     A
O601   Zn613   1.991   .     S
O602   C606    1.285   .     A
O602   Zn614   1.991   .     S
O603   Zn614   2.006   .     S
O603   C605    1.295   .     A
O604   Zn613   2.006   .     S
O604   C606    1.290   .     A
C605   C621    1.465   .     S
C606   C622    1.429   .     S
O607   C611    1.269   .     A
O607   Zn613   1.970   .     S
O608   C612    1.275   .     A
O608   Zn614   1.970   .     S
O609   Zn614   1.995   .     S
O609   C611    1.299   .     A
O610   C612    1.292   .     A
O610   Zn613   1.995   .     S
C611   C615    1.413   .     S
C612   C616    1.408   .     S
Zn613  N634    2.017   .     S
Zn614  N633    2.017   .     S
C615   C816    1.356   1_455 S
C615   Br841   1.940   1_455 S
C616   C715    1.356   .     S
C616   Br742   1.946   .     S
C617   C627    1.399   .     A
C617   Br643   1.933   .     S
C617   C619    1.387   .     A
C618   C628    1.405   .     A
C618   Br644   1.928   .     S
C618   C620    1.392   .     A
C619   C621    1.412   .     A
C619   Br645   1.932   .     S
C620   C622    1.403   .     A
C620   Br646   1.930   .     S
C621   C623    1.419   .     A
C622   C624    1.398   .     A
C623   Br647   1.933   .     S
C623   C625    1.393   .     A
C624   C626    1.385   .     A
C624   Br648   1.922   .     S
C625   C627    1.405   .     A
C625   O649    1.387   .     S
C626   C628    1.411   .     A
C626   O657    1.387   .     S
C627   C928    1.445   1_545 S
C628   C927    1.445   .     S
C629   C639    1.410   .     A
C629   Br665   1.938   .     S
C629   C631    1.413   .     A
C630   C640    1.408   .     A
C630   Br666   1.933   .     S
C630   C632    1.412   .     A
C631   Br667   1.908   .     S
C631   N633    1.373   .     A
C632   Br668   1.910   .     S
C632   N634    1.378   .     A
N633   C635    1.370   .     A
N634   C636    1.371   .     A
C635   C637    1.424   .     A
C635   O669    1.383   .     S
C636   O677    1.377   .     S
C636   C638    1.418   .     A
C637   O685    1.384   .     S
C637   C639    1.417   .     A
C638   C640    1.417   .     A
C638   O693    1.383   .     S
C640   C39     1.518   1_556 S
Br641  C715    1.940   .     S
Br642  C816    1.946   1_455 S
O649   C650    1.414   .     S
C650   H652    1.115   .     S
C650   H951    1.110   1_545 S
C650   C953    1.521   1_545 S
H651   C950    1.110   .     S
C653   H655    1.110   .     S
C653   H656    1.111   .     S
C653   C950    1.521   .     S
C653   H954    1.111   .     S
H654   C953    1.111   1_545 S
O657   C958    1.410   .     S
C658   C661    1.521   .     S
C658   H659    1.108   .     S
C658   O957    1.410   1_545 S
C658   H960    1.113   1_545 S
H660   C958    1.113   .     S
C661   H664    1.111   .     S
C661   H1062   1.111   1_545 S
C661   H763    1.110   .     S
H662   C1161   1.111   1_455 S
H663   C861    1.110   1_455 S
O669   C670    1.418   .     S
C670   H671    1.109   .     S
C670   C673    1.523   .     S
C670   H672    1.118   .     S
C673   H674    1.107   .     S
C673   H675    1.110   .     S
C673   H676    1.108   .     S
O677   C678    1.411   .     S
C678   H680    1.113   .     S
C678   H679    1.114   .     S
C678   C681    1.521   .     S
C681   H683    1.110   .     S
C681   H682    1.111   .     S
C681   H684    1.111   .     S
O685   C686    1.410   .     S
C686   H688    1.112   .     S
C686   H687    1.112   .     S
C686   C789    1.522   .     S
C689   H691    1.107   .     S
C689   H692    1.111   .     S
C689   H690    1.109   .     S
C689   C886    1.522   1_455 S
O693   C694    1.411   .     S
C694   C697    1.521   .     S
C694   H696    1.115   .     S
C694   H95     1.112   1_556 S
C697   H698    1.111   .     S
C697   H99     1.110   1_556 S
C697   H100    1.111   1_556 S
O701   C705    1.301   .     A
O701   Zn713   1.991   .     S
O702   C706    1.285   .     A
O702   Zn714   1.991   .     S
O703   Zn714   2.006   .     S
O703   C705    1.295   .     A
O704   Zn713   2.006   .     S
O704   C706    1.290   .     A
C705   C721    1.465   .     S
C706   C722    1.429   .     S
O707   C711    1.269   .     A
O707   Zn713   1.970   .     S
O708   C712    1.275   .     A
O708   Zn714   1.970   .     S
O709   Zn714   1.995   .     S
O709   C711    1.299   .     A
O710   C712    1.292   .     A
O710   Zn713   1.995   .     S
C711   C715    1.413   .     S
C712   C716    1.408   .     S
Zn713  N734    2.017   .     S
Zn714  N733    2.017   .     S
C716   C815    1.356   .     S
C716   Br842   1.946   .     S
C717   C727    1.399   .     A
C717   Br743   1.933   .     S
C717   C719    1.387   .     A
C718   C728    1.405   .     A
C718   Br744   1.928   .     S
C718   C720    1.392   .     A
C719   C721    1.412   .     A
C719   Br745   1.932   .     S
C720   C722    1.403   .     A
C720   Br746   1.930   .     S
C721   C723    1.419   .     A
C722   C724    1.398   .     A
C723   Br747   1.933   .     S
C723   C725    1.393   .     A
C724   C726    1.385   .     A
C724   Br748   1.922   .     S
C725   C727    1.405   .     A
C725   O749    1.387   .     S
C726   C728    1.411   .     A
C726   O757    1.387   .     S
C727   C1028   1.445   1_545 S
C728   C1027   1.445   .     S
C729   C739    1.410   .     A
C729   Br765   1.938   .     S
C729   C731    1.413   .     A
C730   C740    1.408   .     A
C730   Br766   1.933   .     S
C730   C732    1.412   .     A
C731   Br767   1.908   .     S
C731   N733    1.373   .     A
C732   Br768   1.910   .     S
C732   N734    1.378   .     A
N733   C735    1.370   .     A
N734   C736    1.371   .     A
C735   C737    1.424   .     A
C735   O769    1.383   .     S
C736   O777    1.377   .     S
C736   C738    1.418   .     A
C737   O785    1.384   .     S
C737   C739    1.417   .     A
C738   C740    1.417   .     A
C738   O793    1.383   .     S
C740   C139    1.518   1_556 S
Br741  C815    1.940   .     S
O749   C750    1.414   .     S
C750   H752    1.115   .     S
C750   H1051   1.110   1_545 S
C750   C1053   1.521   1_545 S
H751   C1050   1.110   .     S
C753   H755    1.110   .     S
C753   H756    1.111   .     S
C753   C1050   1.521   .     S
C753   H1054   1.111   .     S
H754   C1053   1.111   1_545 S
O757   C1058   1.410   .     S
C758   C761    1.521   .     S
C758   H759    1.108   .     S
C758   O1057   1.410   1_545 S
C758   H1060   1.113   1_545 S
H760   C1058   1.113   .     S
C761   H764    1.111   .     S
C761   H1162   1.111   1_545 S
C761   H863    1.110   .     S
H762   C961    1.111   .     S
O769   C770    1.418   .     S
C770   H771    1.109   .     S
C770   C773    1.523   .     S
C770   H772    1.118   .     S
C773   H774    1.107   .     S
C773   H775    1.110   .     S
C773   H776    1.108   .     S
O777   C778    1.411   .     S
C778   H780    1.113   .     S
C778   H779    1.114   .     S
C778   C781    1.521   .     S
C781   H783    1.110   .     S
C781   H782    1.111   .     S
C781   H784    1.111   .     S
O785   C786    1.410   .     S
C786   H788    1.112   .     S
C786   H787    1.112   .     S
C786   C889    1.522   .     S
C789   H791    1.107   .     S
C789   H792    1.111   .     S
C789   H790    1.109   .     S
O793   C794    1.411   .     S
C794   C797    1.521   .     S
C794   H796    1.115   .     S
C794   H195    1.112   1_556 S
C797   H798    1.111   .     S
C797   H199    1.110   1_556 S
C797   H200    1.111   1_556 S
O801   C805    1.301   .     A
O801   Zn813   1.991   .     S
O802   C806    1.285   .     A
O802   Zn814   1.991   .     S
O803   Zn814   2.006   .     S
O803   C805    1.295   .     A
O804   Zn813   2.006   .     S
O804   C806    1.290   .     A
C805   C821    1.465   .     S
C806   C822    1.429   .     S
O807   C811    1.269   .     A
O807   Zn813   1.970   .     S
O808   C812    1.275   .     A
O808   Zn814   1.970   .     S
O809   Zn814   1.995   .     S
O809   C811    1.299   .     A
O810   C812    1.292   .     A
O810   Zn813   1.995   .     S
C811   C815    1.413   .     S
C812   C816    1.408   .     S
Zn813  N834    2.017   .     S
Zn814  N833    2.017   .     S
C816   C615    1.356   1_655 S
C816   Br642   1.946   1_655 S
C817   C827    1.399   .     A
C817   Br843   1.933   .     S
C817   C819    1.387   .     A
C818   C828    1.405   .     A
C818   Br844   1.928   .     S
C818   C820    1.392   .     A
C819   C821    1.412   .     A
C819   Br845   1.932   .     S
C820   C822    1.403   .     A
C820   Br846   1.930   .     S
C821   C823    1.419   .     A
C822   C824    1.398   .     A
C823   Br847   1.933   .     S
C823   C825    1.393   .     A
C824   C826    1.385   .     A
C824   Br848   1.922   .     S
C825   C827    1.405   .     A
C825   O849    1.387   .     S
C826   C828    1.411   .     A
C826   O857    1.387   .     S
C827   C1128   1.445   1_545 S
C828   C1127   1.445   .     S
C829   C839    1.410   .     A
C829   Br865   1.938   .     S
C829   C831    1.413   .     A
C830   C840    1.408   .     A
C830   Br866   1.933   .     S
C830   C832    1.412   .     A
C831   Br867   1.908   .     S
C831   N833    1.373   .     A
C832   Br868   1.910   .     S
C832   N834    1.378   .     A
N833   C835    1.370   .     A
N834   C836    1.371   .     A
C835   C837    1.424   .     A
C835   O869    1.383   .     S
C836   O877    1.377   .     S
C836   C838    1.418   .     A
C837   O885    1.384   .     S
C837   C839    1.417   .     A
C838   C840    1.417   .     A
C838   O893    1.383   .     S
C840   C239    1.518   1_556 S
Br841  C615    1.940   1_655 S
O849   C850    1.414   .     S
C850   H852    1.115   .     S
C850   H1151   1.110   1_545 S
C850   C1153   1.521   1_545 S
H851   C1150   1.110   .     S
C853   H855    1.110   .     S
C853   H856    1.111   .     S
C853   C1150   1.521   .     S
C853   H1154   1.111   .     S
H854   C1153   1.111   1_545 S
O857   C1158   1.410   .     S
C858   C861    1.521   .     S
C858   H859    1.108   .     S
C858   O1157   1.410   1_545 S
C858   H1160   1.113   1_545 S
H860   C1158   1.113   .     S
C861   H864    1.111   .     S
C861   H962    1.111   1_645 S
C861   H663    1.110   1_655 S
H862   C1061   1.111   .     S
O869   C870    1.418   .     S
C870   H871    1.109   .     S
C870   C873    1.523   .     S
C870   H872    1.118   .     S
C873   H874    1.107   .     S
C873   H875    1.110   .     S
C873   H876    1.108   .     S
O877   C878    1.411   .     S
C878   H880    1.113   .     S
C878   H879    1.114   .     S
C878   C881    1.521   .     S
C881   H883    1.110   .     S
C881   H882    1.111   .     S
C881   H884    1.111   .     S
O885   C886    1.410   .     S
C886   H888    1.112   .     S
C886   H887    1.112   .     S
C886   C689    1.522   1_655 S
C889   H891    1.107   .     S
C889   H892    1.111   .     S
C889   H890    1.109   .     S
O893   C894    1.411   .     S
C894   C897    1.521   .     S
C894   H896    1.115   .     S
C894   H295    1.112   1_556 S
C897   H898    1.111   .     S
C897   H299    1.110   1_556 S
C897   H300    1.111   1_556 S
O901   C905    1.301   .     A
O901   Zn913   1.991   .     S
O902   C906    1.285   .     A
O902   Zn914   1.991   .     S
O903   Zn914   2.006   .     S
O903   C905    1.295   .     A
O904   Zn913   2.006   .     S
O904   C906    1.290   .     A
C905   C921    1.465   .     S
C906   C922    1.429   .     S
O907   C911    1.269   .     A
O907   Zn913   1.970   .     S
O908   C912    1.275   .     A
O908   Zn914   1.970   .     S
O909   Zn914   1.995   .     S
O909   C911    1.299   .     A
O910   C912    1.292   .     A
O910   Zn913   1.995   .     S
C911   C915    1.413   .     S
C912   C916    1.408   .     S
Zn913  N934    2.017   .     S
Zn914  N933    2.017   .     S
C915   C1116   1.356   1_455 S
C915   Br1141  1.940   1_455 S
C916   C1015   1.356   .     S
C916   Br1042  1.946   .     S
C917   C927    1.399   .     A
C917   Br943   1.933   .     S
C917   C919    1.387   .     A
C918   C928    1.405   .     A
C918   Br944   1.928   .     S
C918   C920    1.392   .     A
C919   C921    1.412   .     A
C919   Br945   1.932   .     S
C920   C922    1.403   .     A
C920   Br946   1.930   .     S
C921   C923    1.419   .     A
C922   C924    1.398   .     A
C923   Br947   1.933   .     S
C923   C925    1.393   .     A
C924   C926    1.385   .     A
C924   Br948   1.922   .     S
C925   C927    1.405   .     A
C925   O949    1.387   .     S
C926   C928    1.411   .     A
C926   O957    1.387   .     S
C928   C627    1.445   1_565 S
C929   C939    1.410   .     A
C929   Br965   1.938   .     S
C929   C931    1.413   .     A
C930   C940    1.408   .     A
C930   Br966   1.933   .     S
C930   C932    1.412   .     A
C931   Br967   1.908   .     S
C931   N933    1.373   .     A
C932   Br968   1.910   .     S
C932   N934    1.378   .     A
N933   C935    1.370   .     A
N934   C936    1.371   .     A
C935   C937    1.424   .     A
C935   O969    1.383   .     S
C936   O977    1.377   .     S
C936   C938    1.418   .     A
C937   O985    1.384   .     S
C937   C939    1.417   .     A
C938   C940    1.417   .     A
C938   O993    1.383   .     S
C940   C339    1.518   1_556 S
Br941  C1015   1.940   .     S
Br942  C1116   1.946   1_455 S
O949   C950    1.414   .     S
C950   H952    1.115   .     S
H951   C650    1.110   1_565 S
C953   H955    1.110   .     S
C953   H956    1.111   .     S
C953   C650    1.521   1_565 S
C953   H654    1.111   1_565 S
O957   C658    1.410   1_565 S
C958   C961    1.521   .     S
C958   H959    1.108   .     S
H960   C658    1.113   1_565 S
C961   H964    1.111   .     S
C961   H1063   1.110   .     S
H962   C861    1.111   1_465 S
H963   C1161   1.110   1_455 S
O969   C970    1.418   .     S
C970   H971    1.109   .     S
C970   C973    1.523   .     S
C970   H972    1.118   .     S
C973   H974    1.107   .     S
C973   H975    1.110   .     S
C973   H976    1.108   .     S
O977   C978    1.411   .     S
C978   H980    1.113   .     S
C978   H979    1.114   .     S
C978   C981    1.521   .     S
C981   H983    1.110   .     S
C981   H982    1.111   .     S
C981   H984    1.111   .     S
O985   C986    1.410   .     S
C986   H988    1.112   .     S
C986   H987    1.112   .     S
C986   C1089   1.522   .     S
C989   H991    1.107   .     S
C989   H992    1.111   .     S
C989   H990    1.109   .     S
C989   C1186   1.522   1_455 S
O993   C994    1.411   .     S
C994   C997    1.521   .     S
C994   H996    1.115   .     S
C994   H395    1.112   1_556 S
C997   H998    1.111   .     S
C997   H399    1.110   1_556 S
C997   H400    1.111   1_556 S
O1001  C1005   1.301   .     A
O1001  Zn1013  1.991   .     S
O1002  C1006   1.285   .     A
O1002  Zn1014  1.991   .     S
O1003  Zn1014  2.006   .     S
O1003  C1005   1.295   .     A
O1004  Zn1013  2.006   .     S
O1004  C1006   1.290   .     A
C1005  C1021   1.465   .     S
C1006  C1022   1.429   .     S
O1007  C1011   1.269   .     A
O1007  Zn1013  1.970   .     S
O1008  C1012   1.275   .     A
O1008  Zn1014  1.970   .     S
O1009  Zn1014  1.995   .     S
O1009  C1011   1.299   .     A
O1010  C1012   1.292   .     A
O1010  Zn1013  1.995   .     S
C1011  C1015   1.413   .     S
C1012  C1016   1.408   .     S
Zn1013 N1034   2.017   .     S
Zn1014 N1033   2.017   .     S
C1016  C1115   1.356   .     S
C1016  Br1142  1.946   .     S
C1017  C1027   1.399   .     A
C1017  Br1043  1.933   .     S
C1017  C1019   1.387   .     A
C1018  C1028   1.405   .     A
C1018  Br1044  1.928   .     S
C1018  C1020   1.392   .     A
C1019  C1021   1.412   .     A
C1019  Br1045  1.932   .     S
C1020  C1022   1.403   .     A
C1020  Br1046  1.930   .     S
C1021  C1023   1.419   .     A
C1022  C1024   1.398   .     A
C1023  Br1047  1.933   .     S
C1023  C1025   1.393   .     A
C1024  C1026   1.385   .     A
C1024  Br1048  1.922   .     S
C1025  C1027   1.405   .     A
C1025  O1049   1.387   .     S
C1026  C1028   1.411   .     A
C1026  O1057   1.387   .     S
C1028  C727    1.445   1_565 S
C1029  C1039   1.410   .     A
C1029  Br1065  1.938   .     S
C1029  C1031   1.413   .     A
C1030  C1040   1.408   .     A
C1030  Br1066  1.933   .     S
C1030  C1032   1.412   .     A
C1031  Br1067  1.908   .     S
C1031  N1033   1.373   .     A
C1032  Br1068  1.910   .     S
C1032  N1034   1.378   .     A
N1033  C1035   1.370   .     A
N1034  C1036   1.371   .     A
C1035  C1037   1.424   .     A
C1035  O1069   1.383   .     S
C1036  O1077   1.377   .     S
C1036  C1038   1.418   .     A
C1037  O1085   1.384   .     S
C1037  C1039   1.417   .     A
C1038  C1040   1.417   .     A
C1038  O1093   1.383   .     S
C1040  C439    1.518   1_556 S
Br1041 C1115   1.940   .     S
O1049  C1050   1.414   .     S
C1050  H1052   1.115   .     S
H1051  C750    1.110   1_565 S
C1053  H1055   1.110   .     S
C1053  H1056   1.111   .     S
C1053  C750    1.521   1_565 S
C1053  H754    1.111   1_565 S
O1057  C758    1.410   1_565 S
C1058  C1061   1.521   .     S
C1058  H1059   1.108   .     S
H1060  C758    1.113   1_565 S
C1061  H1064   1.111   .     S
C1061  H1163   1.110   .     S
H1062  C661    1.111   1_565 S
O1069  C1070   1.418   .     S
C1070  H1071   1.109   .     S
C1070  C1073   1.523   .     S
C1070  H1072   1.118   .     S
C1073  H1074   1.107   .     S
C1073  H1075   1.110   .     S
C1073  H1076   1.108   .     S
O1077  C1078   1.411   .     S
C1078  H1080   1.113   .     S
C1078  H1079   1.114   .     S
C1078  C1081   1.521   .     S
C1081  H1083   1.110   .     S
C1081  H1082   1.111   .     S
C1081  H1084   1.111   .     S
O1085  C1086   1.410   .     S
C1086  H1088   1.112   .     S
C1086  H1087   1.112   .     S
C1086  C1189   1.522   .     S
C1089  H1091   1.107   .     S
C1089  H1092   1.111   .     S
C1089  H1090   1.109   .     S
O1093  C1094   1.411   .     S
C1094  C1097   1.521   .     S
C1094  H1096   1.115   .     S
C1094  H495    1.112   1_556 S
C1097  H1098   1.111   .     S
C1097  H499    1.110   1_556 S
C1097  H500    1.111   1_556 S
O1101  C1105   1.301   .     A
O1101  Zn1113  1.991   .     S
O1102  C1106   1.285   .     A
O1102  Zn1114  1.991   .     S
O1103  Zn1114  2.006   .     S
O1103  C1105   1.295   .     A
O1104  Zn1113  2.006   .     S
O1104  C1106   1.290   .     A
C1105  C1121   1.465   .     S
C1106  C1122   1.429   .     S
O1107  C1111   1.269   .     A
O1107  Zn1113  1.970   .     S
O1108  C1112   1.275   .     A
O1108  Zn1114  1.970   .     S
O1109  Zn1114  1.995   .     S
O1109  C1111   1.299   .     A
O1110  C1112   1.292   .     A
O1110  Zn1113  1.995   .     S
C1111  C1115   1.413   .     S
C1112  C1116   1.408   .     S
Zn1113 N1134   2.017   .     S
Zn1114 N1133   2.017   .     S
C1116  C915    1.356   1_655 S
C1116  Br942   1.946   1_655 S
C1117  C1127   1.399   .     A
C1117  Br1143  1.933   .     S
C1117  C1119   1.387   .     A
C1118  C1128   1.405   .     A
C1118  Br1144  1.928   .     S
C1118  C1120   1.392   .     A
C1119  C1121   1.412   .     A
C1119  Br1145  1.932   .     S
C1120  C1122   1.403   .     A
C1120  Br1146  1.930   .     S
C1121  C1123   1.419   .     A
C1122  C1124   1.398   .     A
C1123  Br1147  1.933   .     S
C1123  C1125   1.393   .     A
C1124  C1126   1.385   .     A
C1124  Br1148  1.922   .     S
C1125  C1127   1.405   .     A
C1125  O1149   1.387   .     S
C1126  C1128   1.411   .     A
C1126  O1157   1.387   .     S
C1128  C827    1.445   1_565 S
C1129  C1139   1.410   .     A
C1129  Br1165  1.938   .     S
C1129  C1131   1.413   .     A
C1130  C1140   1.408   .     A
C1130  Br1166  1.933   .     S
C1130  C1132   1.412   .     A
C1131  Br1167  1.908   .     S
C1131  N1133   1.373   .     A
C1132  Br1168  1.910   .     S
C1132  N1134   1.378   .     A
N1133  C1135   1.370   .     A
N1134  C1136   1.371   .     A
C1135  C1137   1.424   .     A
C1135  O1169   1.383   .     S
C1136  O1177   1.377   .     S
C1136  C1138   1.418   .     A
C1137  O1185   1.384   .     S
C1137  C1139   1.417   .     A
C1138  C1140   1.417   .     A
C1138  O1193   1.383   .     S
C1140  C539    1.518   1_556 S
Br1141 C915    1.940   1_655 S
O1149  C1150   1.414   .     S
C1150  H1152   1.115   .     S
H1151  C850    1.110   1_565 S
C1153  H1155   1.110   .     S
C1153  H1156   1.111   .     S
C1153  C850    1.521   1_565 S
C1153  H854    1.111   1_565 S
O1157  C858    1.410   1_565 S
C1158  C1161   1.521   .     S
C1158  H1159   1.108   .     S
H1160  C858    1.113   1_565 S
C1161  H1164   1.111   .     S
C1161  H662    1.111   1_655 S
C1161  H963    1.110   1_655 S
H1162  C761    1.111   1_565 S
O1169  C1170   1.418   .     S
C1170  H1171   1.109   .     S
C1170  C1173   1.523   .     S
C1170  H1172   1.118   .     S
C1173  H1174   1.107   .     S
C1173  H1175   1.110   .     S
C1173  H1176   1.108   .     S
O1177  C1178   1.411   .     S
C1178  H1180   1.113   .     S
C1178  H1179   1.114   .     S
C1178  C1181   1.521   .     S
C1181  H1183   1.110   .     S
C1181  H1182   1.111   .     S
C1181  H1184   1.111   .     S
O1185  C1186   1.410   .     S
C1186  H1188   1.112   .     S
C1186  H1187   1.112   .     S
C1186  C989    1.522   1_655 S
C1189  H1191   1.107   .     S
C1189  H1192   1.111   .     S
C1189  H1190   1.109   .     S
O1193  C1194   1.411   .     S
C1194  C1197   1.521   .     S
C1194  H1196   1.115   .     S
C1194  H595    1.112   1_556 S
C1197  H1198   1.111   .     S
C1197  H599    1.110   1_556 S
C1197  H600    1.111   1_556 S
