data_str_m3_o2_o10_pcu_sym.188
_audit_creation_date              2020-01-03
_audit_creation_method            'Materials Studio'
_symmetry_space_group_name_H-M    'P1'
_symmetry_Int_Tables_number       1
_symmetry_cell_setting            triclinic
loop_
_symmetry_equiv_pos_as_xyz
  x,y,z
_cell_length_a                    25.6616
_cell_length_b                    29.8909
_cell_length_c                    28.5689
_cell_angle_alpha                 89.3101
_cell_angle_beta                  97.4395
_cell_angle_gamma                 91.3689
loop_
_atom_site_label
_atom_site_type_symbol
_atom_site_fract_x
_atom_site_fract_y
_atom_site_fract_z
_atom_site_U_iso_or_equiv
_atom_site_adp_type
_atom_site_occupancy
C1     C     0.16773   0.16393   0.25018   0.00000  Uiso   1.00
C2     C     0.16715   0.33580   0.24983   0.00000  Uiso   1.00
C3     C     0.13031   0.22321   0.04917   0.00000  Uiso   1.00
C4     C     0.18934   0.28617   0.44910   0.00000  Uiso   1.00
C5     C     0.13194   0.22309   0.09874   0.00000  Uiso   1.00
C6     C     0.18977   0.28478   0.39977   0.00000  Uiso   1.00
C7     C     0.20037   0.27785   0.10503   0.00000  Uiso   1.00
C8     C     0.14291   0.21564   0.39637   0.00000  Uiso   1.00
C9     C     0.20132   0.27722   0.05594   0.00000  Uiso   1.00
C10    C     0.14409   0.21506   0.44572   0.00000  Uiso   1.00
C11    C     0.16590   0.25027   0.02658   0.00000  Uiso   1.00
C12    C     0.16654   0.25065   0.47337   0.00000  Uiso   1.00
C13    C     0.06723   0.24874   0.23798   0.00000  Uiso   1.00
C14    C     0.26610   0.25112   0.26204   0.00000  Uiso   1.00
C15    C     0.01246   0.24402   0.23232   0.00000  Uiso   1.00
C16    C     0.32086   0.25559   0.26783   0.00000  Uiso   1.00
C17    C     0.19836   0.04710   0.28885   0.00000  Uiso   1.00
C18    C     0.13301   0.45317   0.22345   0.00000  Uiso   1.00
C19    C     0.19557   0.09325   0.28963   0.00000  Uiso   1.00
C20    C     0.13007   0.40705   0.22379   0.00000  Uiso   1.00
C21    C     0.17204   0.11604   0.24974   0.00000  Uiso   1.00
C22    C     0.17021   0.38332   0.24959   0.00000  Uiso   1.00
C23    C     0.15515   0.09314   0.20788   0.00000  Uiso   1.00
C24    C     0.21400   0.40491   0.27419   0.00000  Uiso   1.00
C25    C     0.15959   0.04736   0.20655   0.00000  Uiso   1.00
C26    C     0.21792   0.45109   0.27261   0.00000  Uiso   1.00
C27    C     0.17944   0.02396   0.24747   0.00000  Uiso   1.00
C28    C     0.17717   0.47542   0.24754   0.00000  Uiso   1.00
H29    H     0.32613   0.22982   0.19972   0.00000  Uiso   1.00
H30    H     0.00708   0.26989   0.30043   0.00000  Uiso   1.00
H31    H     0.21386   0.02960   0.32086   0.00000  Uiso   1.00
H32    H     0.10048   0.47134   0.20492   0.00000  Uiso   1.00
H33    H     0.21133   0.11101   0.32130   0.00000  Uiso   1.00
H34    H     0.09629   0.38990   0.20480   0.00000  Uiso   1.00
H35    H     0.13809   0.11054   0.17628   0.00000  Uiso   1.00
H36    H     0.24540   0.38597   0.29357   0.00000  Uiso   1.00
H37    H     0.14649   0.03018   0.17381   0.00000  Uiso   1.00
H38    H     0.25264   0.46768   0.29070   0.00000  Uiso   1.00
H39    H     0.10060   0.20247   0.02915   0.00000  Uiso   1.00
H40    H     0.20632   0.31548   0.46745   0.00000  Uiso   1.00
H41    H     0.10464   0.20186   0.11518   0.00000  Uiso   1.00
H42    H     0.20794   0.31213   0.38222   0.00000  Uiso   1.00
H43    H     0.23003   0.29834   0.04126   0.00000  Uiso   1.00
H44    H     0.12656   0.18653   0.46189   0.00000  Uiso   1.00
N45    N     0.16667   0.24999   0.12623   0.00000  Uiso   1.00
N46    N     0.16667   0.25001   0.37376   0.00000  Uiso   1.00
O47    O     0.16667   0.18453   0.28974   0.00000  Uiso   1.00
O48    O     0.16666   0.31546   0.21026   0.00000  Uiso   1.00
O49    O     0.16667   0.18453   0.21026   0.00000  Uiso   1.00
O50    O     0.16666   0.31547   0.28974   0.00000  Uiso   1.00
O51    O     0.09058   0.25000   0.28044   0.00000  Uiso   1.00
O52    O     0.24275   0.25000   0.21955   0.00000  Uiso   1.00
O53    O     0.09058   0.24999   0.20096   0.00000  Uiso   1.00
O54    O     0.24275   0.25000   0.29903   0.00000  Uiso   1.00
Zn55   Zn    0.16667   0.25000   0.30307   0.00000  Uiso   1.00
Zn56   Zn    0.16667   0.24999   0.19693   0.00000  Uiso   1.00
C57    C     0.23519   0.31112   0.13167   0.00000  Uiso   1.00
C58    C     0.28919   0.30341   0.14164   0.00000  Uiso   1.00
C59    C     0.32330   0.33665   0.16287   0.00000  Uiso   1.00
C60    C     0.30393   0.37832   0.17277   0.00000  Uiso   1.00
C61    C     0.25069   0.38714   0.16034   0.00000  Uiso   1.00
C62    C     0.21658   0.35393   0.13907   0.00000  Uiso   1.00
H63    H     0.30485   0.27195   0.13219   0.00000  Uiso   1.00
H64    H     0.03149   0.33026   0.17106   0.00000  Uiso   1.00
H65    H     0.33029   0.40406   0.18917   0.00000  Uiso   1.00
H66    H     0.23589   0.41978   0.16688   0.00000  Uiso   1.00
H67    H     0.17560   0.36147   0.12864   0.00000  Uiso   1.00
C68    C     0.11191   0.17960   0.37047   0.00000  Uiso   1.00
C69    C     0.05986   0.18720   0.35107   0.00000  Uiso   1.00
C70    C     0.02825   0.15232   0.33001   0.00000  Uiso   1.00
C71    C     0.04781   0.10910   0.33009   0.00000  Uiso   1.00
C72    C     0.09859   0.10069   0.35197   0.00000  Uiso   1.00
C73    C     0.13044   0.13574   0.37250   0.00000  Uiso   1.00
H74    H     0.04352   0.21989   0.35359   0.00000  Uiso   1.00
H75    H     0.32163   0.15861   0.31452   0.00000  Uiso   1.00
H76    H     0.02324   0.08199   0.31414   0.00000  Uiso   1.00
H77    H     0.11321   0.06697   0.35320   0.00000  Uiso   1.00
H78    H     0.16933   0.12874   0.39022   0.00000  Uiso   1.00
C79    C     0.50106   0.16393   0.25018   0.00000  Uiso   1.00
C80    C     0.50049   0.33580   0.24983   0.00000  Uiso   1.00
C81    C     0.46365   0.22321   0.04917   0.00000  Uiso   1.00
C82    C     0.52268   0.28617   0.44910   0.00000  Uiso   1.00
C83    C     0.46527   0.22309   0.09874   0.00000  Uiso   1.00
C84    C     0.52310   0.28478   0.39977   0.00000  Uiso   1.00
C85    C     0.53371   0.27785   0.10503   0.00000  Uiso   1.00
C86    C     0.47625   0.21564   0.39637   0.00000  Uiso   1.00
C87    C     0.53465   0.27722   0.05594   0.00000  Uiso   1.00
C88    C     0.47742   0.21506   0.44572   0.00000  Uiso   1.00
C89    C     0.49924   0.25027   0.02658   0.00000  Uiso   1.00
C90    C     0.49987   0.25065   0.47337   0.00000  Uiso   1.00
C91    C     0.40056   0.24874   0.23798   0.00000  Uiso   1.00
C92    C     0.59944   0.25112   0.26204   0.00000  Uiso   1.00
C93    C     0.34580   0.24402   0.23232   0.00000  Uiso   1.00
C94    C     0.65419   0.25559   0.26783   0.00000  Uiso   1.00
C95    C     0.53169   0.04710   0.28885   0.00000  Uiso   1.00
C96    C     0.46634   0.45317   0.22345   0.00000  Uiso   1.00
C97    C     0.52891   0.09325   0.28963   0.00000  Uiso   1.00
C98    C     0.46340   0.40705   0.22379   0.00000  Uiso   1.00
C99    C     0.50537   0.11604   0.24974   0.00000  Uiso   1.00
C100   C     0.50354   0.38332   0.24959   0.00000  Uiso   1.00
C101   C     0.48848   0.09314   0.20788   0.00000  Uiso   1.00
C102   C     0.54734   0.40491   0.27419   0.00000  Uiso   1.00
C103   C     0.49292   0.04736   0.20655   0.00000  Uiso   1.00
C104   C     0.55125   0.45109   0.27261   0.00000  Uiso   1.00
C105   C     0.51277   0.02396   0.24747   0.00000  Uiso   1.00
C106   C     0.51051   0.47542   0.24754   0.00000  Uiso   1.00
H107   H     0.65947   0.22982   0.19972   0.00000  Uiso   1.00
H108   H     0.34042   0.26989   0.30043   0.00000  Uiso   1.00
H109   H     0.54719   0.02960   0.32086   0.00000  Uiso   1.00
H110   H     0.43381   0.47134   0.20492   0.00000  Uiso   1.00
H111   H     0.54466   0.11101   0.32130   0.00000  Uiso   1.00
H112   H     0.42962   0.38990   0.20480   0.00000  Uiso   1.00
H113   H     0.47142   0.11054   0.17628   0.00000  Uiso   1.00
H114   H     0.57874   0.38597   0.29357   0.00000  Uiso   1.00
H115   H     0.47982   0.03018   0.17381   0.00000  Uiso   1.00
H116   H     0.58598   0.46768   0.29070   0.00000  Uiso   1.00
H117   H     0.43393   0.20247   0.02915   0.00000  Uiso   1.00
H118   H     0.53965   0.31548   0.46745   0.00000  Uiso   1.00
H119   H     0.43797   0.20186   0.11518   0.00000  Uiso   1.00
H120   H     0.54128   0.31213   0.38222   0.00000  Uiso   1.00
H121   H     0.56337   0.29834   0.04126   0.00000  Uiso   1.00
H122   H     0.45989   0.18653   0.46189   0.00000  Uiso   1.00
N123   N     0.50000   0.24999   0.12623   0.00000  Uiso   1.00
N124   N     0.50000   0.25001   0.37376   0.00000  Uiso   1.00
O125   O     0.50000   0.18453   0.28974   0.00000  Uiso   1.00
O126   O     0.50000   0.31546   0.21026   0.00000  Uiso   1.00
O127   O     0.50000   0.18453   0.21026   0.00000  Uiso   1.00
O128   O     0.50000   0.31547   0.28974   0.00000  Uiso   1.00
O129   O     0.42392   0.25000   0.28044   0.00000  Uiso   1.00
O130   O     0.57608   0.25000   0.21955   0.00000  Uiso   1.00
O131   O     0.42392   0.24999   0.20096   0.00000  Uiso   1.00
O132   O     0.57608   0.25000   0.29903   0.00000  Uiso   1.00
Zn133  Zn    0.50000   0.25000   0.30307   0.00000  Uiso   1.00
Zn134  Zn    0.50000   0.24999   0.19693   0.00000  Uiso   1.00
C135   C     0.56852   0.31112   0.13167   0.00000  Uiso   1.00
C136   C     0.62252   0.30341   0.14164   0.00000  Uiso   1.00
C137   C     0.65664   0.33665   0.16287   0.00000  Uiso   1.00
C138   C     0.63726   0.37832   0.17277   0.00000  Uiso   1.00
C139   C     0.58402   0.38714   0.16034   0.00000  Uiso   1.00
C140   C     0.54991   0.35393   0.13907   0.00000  Uiso   1.00
H141   H     0.63818   0.27195   0.13219   0.00000  Uiso   1.00
H142   H     0.36482   0.33026   0.17106   0.00000  Uiso   1.00
H143   H     0.66363   0.40406   0.18917   0.00000  Uiso   1.00
H144   H     0.56923   0.41978   0.16688   0.00000  Uiso   1.00
H145   H     0.50893   0.36147   0.12864   0.00000  Uiso   1.00
C146   C     0.44524   0.17960   0.37047   0.00000  Uiso   1.00
C147   C     0.39319   0.18720   0.35107   0.00000  Uiso   1.00
C148   C     0.36158   0.15232   0.33001   0.00000  Uiso   1.00
C149   C     0.38114   0.10910   0.33009   0.00000  Uiso   1.00
C150   C     0.43193   0.10069   0.35197   0.00000  Uiso   1.00
C151   C     0.46377   0.13574   0.37250   0.00000  Uiso   1.00
H152   H     0.37685   0.21989   0.35359   0.00000  Uiso   1.00
H153   H     0.65496   0.15861   0.31452   0.00000  Uiso   1.00
H154   H     0.35658   0.08199   0.31414   0.00000  Uiso   1.00
H155   H     0.44654   0.06697   0.35320   0.00000  Uiso   1.00
H156   H     0.50267   0.12874   0.39022   0.00000  Uiso   1.00
C157   C     0.83440   0.16393   0.25018   0.00000  Uiso   1.00
C158   C     0.83382   0.33580   0.24983   0.00000  Uiso   1.00
C159   C     0.79698   0.22321   0.04917   0.00000  Uiso   1.00
C160   C     0.85601   0.28617   0.44910   0.00000  Uiso   1.00
C161   C     0.79861   0.22309   0.09874   0.00000  Uiso   1.00
C162   C     0.85643   0.28478   0.39977   0.00000  Uiso   1.00
C163   C     0.86704   0.27785   0.10503   0.00000  Uiso   1.00
C164   C     0.80958   0.21564   0.39637   0.00000  Uiso   1.00
C165   C     0.86798   0.27722   0.05594   0.00000  Uiso   1.00
C166   C     0.81075   0.21506   0.44572   0.00000  Uiso   1.00
C167   C     0.83257   0.25027   0.02658   0.00000  Uiso   1.00
C168   C     0.83320   0.25065   0.47337   0.00000  Uiso   1.00
C169   C     0.73389   0.24874   0.23798   0.00000  Uiso   1.00
C170   C     0.93277   0.25112   0.26204   0.00000  Uiso   1.00
C171   C     0.67913   0.24402   0.23232   0.00000  Uiso   1.00
C172   C     0.98753   0.25559   0.26783   0.00000  Uiso   1.00
C173   C     0.86502   0.04710   0.28885   0.00000  Uiso   1.00
C174   C     0.79968   0.45317   0.22345   0.00000  Uiso   1.00
C175   C     0.86224   0.09325   0.28963   0.00000  Uiso   1.00
C176   C     0.79674   0.40705   0.22379   0.00000  Uiso   1.00
C177   C     0.83870   0.11604   0.24974   0.00000  Uiso   1.00
C178   C     0.83687   0.38332   0.24959   0.00000  Uiso   1.00
C179   C     0.82181   0.09314   0.20788   0.00000  Uiso   1.00
C180   C     0.88067   0.40491   0.27419   0.00000  Uiso   1.00
C181   C     0.82625   0.04736   0.20655   0.00000  Uiso   1.00
C182   C     0.88459   0.45109   0.27261   0.00000  Uiso   1.00
C183   C     0.84611   0.02396   0.24747   0.00000  Uiso   1.00
C184   C     0.84384   0.47542   0.24754   0.00000  Uiso   1.00
H185   H     0.99280   0.22982   0.19972   0.00000  Uiso   1.00
H186   H     0.67375   0.26989   0.30043   0.00000  Uiso   1.00
H187   H     0.88053   0.02960   0.32086   0.00000  Uiso   1.00
H188   H     0.76714   0.47134   0.20492   0.00000  Uiso   1.00
H189   H     0.87799   0.11101   0.32130   0.00000  Uiso   1.00
H190   H     0.76296   0.38990   0.20480   0.00000  Uiso   1.00
H191   H     0.80475   0.11054   0.17628   0.00000  Uiso   1.00
H192   H     0.91207   0.38597   0.29357   0.00000  Uiso   1.00
H193   H     0.81315   0.03018   0.17381   0.00000  Uiso   1.00
H194   H     0.91931   0.46768   0.29070   0.00000  Uiso   1.00
H195   H     0.76727   0.20247   0.02915   0.00000  Uiso   1.00
H196   H     0.87299   0.31548   0.46745   0.00000  Uiso   1.00
H197   H     0.77131   0.20186   0.11518   0.00000  Uiso   1.00
H198   H     0.87461   0.31213   0.38222   0.00000  Uiso   1.00
H199   H     0.89670   0.29834   0.04126   0.00000  Uiso   1.00
H200   H     0.79322   0.18653   0.46189   0.00000  Uiso   1.00
N201   N     0.83333   0.24999   0.12623   0.00000  Uiso   1.00
N202   N     0.83333   0.25001   0.37376   0.00000  Uiso   1.00
O203   O     0.83334   0.18453   0.28974   0.00000  Uiso   1.00
O204   O     0.83333   0.31546   0.21026   0.00000  Uiso   1.00
O205   O     0.83334   0.18453   0.21026   0.00000  Uiso   1.00
O206   O     0.83333   0.31547   0.28974   0.00000  Uiso   1.00
O207   O     0.75725   0.25000   0.28044   0.00000  Uiso   1.00
O208   O     0.90942   0.25000   0.21955   0.00000  Uiso   1.00
O209   O     0.75725   0.24999   0.20096   0.00000  Uiso   1.00
O210   O     0.90942   0.25000   0.29903   0.00000  Uiso   1.00
Zn211  Zn    0.83333   0.25000   0.30307   0.00000  Uiso   1.00
Zn212  Zn    0.83333   0.24999   0.19693   0.00000  Uiso   1.00
C213   C     0.90185   0.31112   0.13167   0.00000  Uiso   1.00
C214   C     0.95585   0.30341   0.14164   0.00000  Uiso   1.00
C215   C     0.98997   0.33665   0.16287   0.00000  Uiso   1.00
C216   C     0.97060   0.37832   0.17277   0.00000  Uiso   1.00
C217   C     0.91735   0.38714   0.16034   0.00000  Uiso   1.00
C218   C     0.88324   0.35393   0.13907   0.00000  Uiso   1.00
H219   H     0.97152   0.27195   0.13219   0.00000  Uiso   1.00
H220   H     0.69816   0.33026   0.17106   0.00000  Uiso   1.00
H221   H     0.99696   0.40406   0.18917   0.00000  Uiso   1.00
H222   H     0.90256   0.41978   0.16688   0.00000  Uiso   1.00
H223   H     0.84226   0.36147   0.12864   0.00000  Uiso   1.00
C224   C     0.77857   0.17960   0.37047   0.00000  Uiso   1.00
C225   C     0.72653   0.18720   0.35107   0.00000  Uiso   1.00
C226   C     0.69491   0.15232   0.33001   0.00000  Uiso   1.00
C227   C     0.71447   0.10910   0.33009   0.00000  Uiso   1.00
C228   C     0.76526   0.10069   0.35197   0.00000  Uiso   1.00
C229   C     0.79711   0.13574   0.37250   0.00000  Uiso   1.00
H230   H     0.71019   0.21989   0.35359   0.00000  Uiso   1.00
H231   H     0.98829   0.15861   0.31452   0.00000  Uiso   1.00
H232   H     0.68991   0.08199   0.31414   0.00000  Uiso   1.00
H233   H     0.77988   0.06697   0.35320   0.00000  Uiso   1.00
H234   H     0.83600   0.12874   0.39022   0.00000  Uiso   1.00
C235   C     0.16773   0.66393   0.25018   0.00000  Uiso   1.00
C236   C     0.16715   0.83580   0.24983   0.00000  Uiso   1.00
C237   C     0.13031   0.72321   0.04917   0.00000  Uiso   1.00
C238   C     0.18934   0.78617   0.44910   0.00000  Uiso   1.00
C239   C     0.13194   0.72309   0.09874   0.00000  Uiso   1.00
C240   C     0.18977   0.78478   0.39977   0.00000  Uiso   1.00
C241   C     0.20037   0.77785   0.10503   0.00000  Uiso   1.00
C242   C     0.14291   0.71564   0.39637   0.00000  Uiso   1.00
C243   C     0.20132   0.77722   0.05594   0.00000  Uiso   1.00
C244   C     0.14409   0.71506   0.44572   0.00000  Uiso   1.00
C245   C     0.16590   0.75027   0.02658   0.00000  Uiso   1.00
C246   C     0.16654   0.75065   0.47337   0.00000  Uiso   1.00
C247   C     0.06723   0.74874   0.23798   0.00000  Uiso   1.00
C248   C     0.26610   0.75112   0.26204   0.00000  Uiso   1.00
C249   C     0.01246   0.74402   0.23232   0.00000  Uiso   1.00
C250   C     0.32086   0.75559   0.26783   0.00000  Uiso   1.00
C251   C     0.19836   0.54710   0.28885   0.00000  Uiso   1.00
C252   C     0.13301   0.95317   0.22345   0.00000  Uiso   1.00
C253   C     0.19557   0.59325   0.28963   0.00000  Uiso   1.00
C254   C     0.13007   0.90705   0.22379   0.00000  Uiso   1.00
C255   C     0.17204   0.61604   0.24974   0.00000  Uiso   1.00
C256   C     0.17021   0.88332   0.24959   0.00000  Uiso   1.00
C257   C     0.15515   0.59314   0.20788   0.00000  Uiso   1.00
C258   C     0.21400   0.90491   0.27419   0.00000  Uiso   1.00
C259   C     0.15959   0.54736   0.20655   0.00000  Uiso   1.00
C260   C     0.21792   0.95109   0.27261   0.00000  Uiso   1.00
C261   C     0.17944   0.52396   0.24747   0.00000  Uiso   1.00
C262   C     0.17717   0.97542   0.24754   0.00000  Uiso   1.00
H263   H     0.32613   0.72982   0.19972   0.00000  Uiso   1.00
H264   H     0.00708   0.76989   0.30043   0.00000  Uiso   1.00
H265   H     0.21386   0.52960   0.32086   0.00000  Uiso   1.00
H266   H     0.10048   0.97134   0.20492   0.00000  Uiso   1.00
H267   H     0.21133   0.61101   0.32130   0.00000  Uiso   1.00
H268   H     0.09629   0.88990   0.20480   0.00000  Uiso   1.00
H269   H     0.13809   0.61054   0.17628   0.00000  Uiso   1.00
H270   H     0.24540   0.88597   0.29357   0.00000  Uiso   1.00
H271   H     0.14649   0.53018   0.17381   0.00000  Uiso   1.00
H272   H     0.25264   0.96768   0.29070   0.00000  Uiso   1.00
H273   H     0.10060   0.70247   0.02915   0.00000  Uiso   1.00
H274   H     0.20632   0.81548   0.46745   0.00000  Uiso   1.00
H275   H     0.10464   0.70186   0.11518   0.00000  Uiso   1.00
H276   H     0.20794   0.81213   0.38222   0.00000  Uiso   1.00
H277   H     0.23003   0.79834   0.04126   0.00000  Uiso   1.00
H278   H     0.12656   0.68653   0.46189   0.00000  Uiso   1.00
N279   N     0.16667   0.74999   0.12623   0.00000  Uiso   1.00
N280   N     0.16667   0.75001   0.37376   0.00000  Uiso   1.00
O281   O     0.16667   0.68453   0.28974   0.00000  Uiso   1.00
O282   O     0.16666   0.81546   0.21026   0.00000  Uiso   1.00
O283   O     0.16667   0.68453   0.21026   0.00000  Uiso   1.00
O284   O     0.16666   0.81547   0.28974   0.00000  Uiso   1.00
O285   O     0.09058   0.75000   0.28044   0.00000  Uiso   1.00
O286   O     0.24275   0.75000   0.21955   0.00000  Uiso   1.00
O287   O     0.09058   0.74999   0.20096   0.00000  Uiso   1.00
O288   O     0.24275   0.75000   0.29903   0.00000  Uiso   1.00
Zn289  Zn    0.16667   0.75000   0.30307   0.00000  Uiso   1.00
Zn290  Zn    0.16667   0.74999   0.19693   0.00000  Uiso   1.00
C291   C     0.23519   0.81112   0.13167   0.00000  Uiso   1.00
C292   C     0.28919   0.80341   0.14164   0.00000  Uiso   1.00
C293   C     0.32330   0.83665   0.16287   0.00000  Uiso   1.00
C294   C     0.30393   0.87832   0.17277   0.00000  Uiso   1.00
C295   C     0.25069   0.88714   0.16034   0.00000  Uiso   1.00
C296   C     0.21658   0.85393   0.13907   0.00000  Uiso   1.00
H297   H     0.30485   0.77195   0.13219   0.00000  Uiso   1.00
H298   H     0.03149   0.83026   0.17106   0.00000  Uiso   1.00
H299   H     0.33029   0.90406   0.18917   0.00000  Uiso   1.00
H300   H     0.23589   0.91978   0.16688   0.00000  Uiso   1.00
H301   H     0.17560   0.86147   0.12864   0.00000  Uiso   1.00
C302   C     0.11191   0.67960   0.37047   0.00000  Uiso   1.00
C303   C     0.05986   0.68720   0.35107   0.00000  Uiso   1.00
C304   C     0.02825   0.65232   0.33001   0.00000  Uiso   1.00
C305   C     0.04781   0.60910   0.33009   0.00000  Uiso   1.00
C306   C     0.09859   0.60069   0.35197   0.00000  Uiso   1.00
C307   C     0.13044   0.63574   0.37250   0.00000  Uiso   1.00
H308   H     0.04352   0.71989   0.35359   0.00000  Uiso   1.00
H309   H     0.32163   0.65861   0.31452   0.00000  Uiso   1.00
H310   H     0.02324   0.58199   0.31414   0.00000  Uiso   1.00
H311   H     0.11321   0.56697   0.35320   0.00000  Uiso   1.00
H312   H     0.16933   0.62874   0.39022   0.00000  Uiso   1.00
C313   C     0.50106   0.66393   0.25018   0.00000  Uiso   1.00
C314   C     0.50049   0.83580   0.24983   0.00000  Uiso   1.00
C315   C     0.46365   0.72321   0.04917   0.00000  Uiso   1.00
C316   C     0.52268   0.78617   0.44910   0.00000  Uiso   1.00
C317   C     0.46527   0.72309   0.09874   0.00000  Uiso   1.00
C318   C     0.52310   0.78478   0.39977   0.00000  Uiso   1.00
C319   C     0.53371   0.77785   0.10503   0.00000  Uiso   1.00
C320   C     0.47625   0.71564   0.39637   0.00000  Uiso   1.00
C321   C     0.53465   0.77722   0.05594   0.00000  Uiso   1.00
C322   C     0.47742   0.71506   0.44572   0.00000  Uiso   1.00
C323   C     0.49924   0.75027   0.02658   0.00000  Uiso   1.00
C324   C     0.49987   0.75065   0.47337   0.00000  Uiso   1.00
C325   C     0.40056   0.74874   0.23798   0.00000  Uiso   1.00
C326   C     0.59944   0.75112   0.26204   0.00000  Uiso   1.00
C327   C     0.34580   0.74402   0.23232   0.00000  Uiso   1.00
C328   C     0.65419   0.75559   0.26783   0.00000  Uiso   1.00
C329   C     0.53169   0.54710   0.28885   0.00000  Uiso   1.00
C330   C     0.46634   0.95317   0.22345   0.00000  Uiso   1.00
C331   C     0.52891   0.59325   0.28963   0.00000  Uiso   1.00
C332   C     0.46340   0.90705   0.22379   0.00000  Uiso   1.00
C333   C     0.50537   0.61604   0.24974   0.00000  Uiso   1.00
C334   C     0.50354   0.88332   0.24959   0.00000  Uiso   1.00
C335   C     0.48848   0.59314   0.20788   0.00000  Uiso   1.00
C336   C     0.54734   0.90491   0.27419   0.00000  Uiso   1.00
C337   C     0.49292   0.54736   0.20655   0.00000  Uiso   1.00
C338   C     0.55125   0.95109   0.27261   0.00000  Uiso   1.00
C339   C     0.51277   0.52396   0.24747   0.00000  Uiso   1.00
C340   C     0.51051   0.97542   0.24754   0.00000  Uiso   1.00
H341   H     0.65947   0.72982   0.19972   0.00000  Uiso   1.00
H342   H     0.34042   0.76989   0.30043   0.00000  Uiso   1.00
H343   H     0.54719   0.52960   0.32086   0.00000  Uiso   1.00
H344   H     0.43381   0.97134   0.20492   0.00000  Uiso   1.00
H345   H     0.54466   0.61101   0.32130   0.00000  Uiso   1.00
H346   H     0.42962   0.88990   0.20480   0.00000  Uiso   1.00
H347   H     0.47142   0.61054   0.17628   0.00000  Uiso   1.00
H348   H     0.57874   0.88597   0.29357   0.00000  Uiso   1.00
H349   H     0.47982   0.53018   0.17381   0.00000  Uiso   1.00
H350   H     0.58598   0.96768   0.29070   0.00000  Uiso   1.00
H351   H     0.43393   0.70247   0.02915   0.00000  Uiso   1.00
H352   H     0.53965   0.81548   0.46745   0.00000  Uiso   1.00
H353   H     0.43797   0.70186   0.11518   0.00000  Uiso   1.00
H354   H     0.54128   0.81213   0.38222   0.00000  Uiso   1.00
H355   H     0.56337   0.79834   0.04126   0.00000  Uiso   1.00
H356   H     0.45989   0.68653   0.46189   0.00000  Uiso   1.00
N357   N     0.50000   0.74999   0.12623   0.00000  Uiso   1.00
N358   N     0.50000   0.75001   0.37376   0.00000  Uiso   1.00
O359   O     0.50000   0.68453   0.28974   0.00000  Uiso   1.00
O360   O     0.50000   0.81546   0.21026   0.00000  Uiso   1.00
O361   O     0.50000   0.68453   0.21026   0.00000  Uiso   1.00
O362   O     0.50000   0.81547   0.28974   0.00000  Uiso   1.00
O363   O     0.42392   0.75000   0.28044   0.00000  Uiso   1.00
O364   O     0.57608   0.75000   0.21955   0.00000  Uiso   1.00
O365   O     0.42392   0.74999   0.20096   0.00000  Uiso   1.00
O366   O     0.57608   0.75000   0.29903   0.00000  Uiso   1.00
Zn367  Zn    0.50000   0.75000   0.30307   0.00000  Uiso   1.00
Zn368  Zn    0.50000   0.74999   0.19693   0.00000  Uiso   1.00
C369   C     0.56852   0.81112   0.13167   0.00000  Uiso   1.00
C370   C     0.62252   0.80341   0.14164   0.00000  Uiso   1.00
C371   C     0.65664   0.83665   0.16287   0.00000  Uiso   1.00
C372   C     0.63726   0.87832   0.17277   0.00000  Uiso   1.00
C373   C     0.58402   0.88714   0.16034   0.00000  Uiso   1.00
C374   C     0.54991   0.85393   0.13907   0.00000  Uiso   1.00
H375   H     0.63818   0.77195   0.13219   0.00000  Uiso   1.00
H376   H     0.36482   0.83026   0.17106   0.00000  Uiso   1.00
H377   H     0.66363   0.90406   0.18917   0.00000  Uiso   1.00
H378   H     0.56923   0.91978   0.16688   0.00000  Uiso   1.00
H379   H     0.50893   0.86147   0.12864   0.00000  Uiso   1.00
C380   C     0.44524   0.67960   0.37047   0.00000  Uiso   1.00
C381   C     0.39319   0.68720   0.35107   0.00000  Uiso   1.00
C382   C     0.36158   0.65232   0.33001   0.00000  Uiso   1.00
C383   C     0.38114   0.60910   0.33009   0.00000  Uiso   1.00
C384   C     0.43193   0.60069   0.35197   0.00000  Uiso   1.00
C385   C     0.46377   0.63574   0.37250   0.00000  Uiso   1.00
H386   H     0.37685   0.71989   0.35359   0.00000  Uiso   1.00
H387   H     0.65496   0.65861   0.31452   0.00000  Uiso   1.00
H388   H     0.35658   0.58199   0.31414   0.00000  Uiso   1.00
H389   H     0.44654   0.56697   0.35320   0.00000  Uiso   1.00
H390   H     0.50267   0.62874   0.39022   0.00000  Uiso   1.00
C391   C     0.83440   0.66393   0.25018   0.00000  Uiso   1.00
C392   C     0.83382   0.83580   0.24983   0.00000  Uiso   1.00
C393   C     0.79698   0.72321   0.04917   0.00000  Uiso   1.00
C394   C     0.85601   0.78617   0.44910   0.00000  Uiso   1.00
C395   C     0.79861   0.72309   0.09874   0.00000  Uiso   1.00
C396   C     0.85643   0.78478   0.39977   0.00000  Uiso   1.00
C397   C     0.86704   0.77785   0.10503   0.00000  Uiso   1.00
C398   C     0.80958   0.71564   0.39637   0.00000  Uiso   1.00
C399   C     0.86798   0.77722   0.05594   0.00000  Uiso   1.00
C400   C     0.81075   0.71506   0.44572   0.00000  Uiso   1.00
C401   C     0.83257   0.75027   0.02658   0.00000  Uiso   1.00
C402   C     0.83320   0.75065   0.47337   0.00000  Uiso   1.00
C403   C     0.73389   0.74874   0.23798   0.00000  Uiso   1.00
C404   C     0.93277   0.75112   0.26204   0.00000  Uiso   1.00
C405   C     0.67913   0.74402   0.23232   0.00000  Uiso   1.00
C406   C     0.98753   0.75559   0.26783   0.00000  Uiso   1.00
C407   C     0.86502   0.54710   0.28885   0.00000  Uiso   1.00
C408   C     0.79968   0.95317   0.22345   0.00000  Uiso   1.00
C409   C     0.86224   0.59325   0.28963   0.00000  Uiso   1.00
C410   C     0.79674   0.90705   0.22379   0.00000  Uiso   1.00
C411   C     0.83870   0.61604   0.24974   0.00000  Uiso   1.00
C412   C     0.83687   0.88332   0.24959   0.00000  Uiso   1.00
C413   C     0.82181   0.59314   0.20788   0.00000  Uiso   1.00
C414   C     0.88067   0.90491   0.27419   0.00000  Uiso   1.00
C415   C     0.82625   0.54736   0.20655   0.00000  Uiso   1.00
C416   C     0.88459   0.95109   0.27261   0.00000  Uiso   1.00
C417   C     0.84611   0.52396   0.24747   0.00000  Uiso   1.00
C418   C     0.84384   0.97542   0.24754   0.00000  Uiso   1.00
H419   H     0.99280   0.72982   0.19972   0.00000  Uiso   1.00
H420   H     0.67375   0.76989   0.30043   0.00000  Uiso   1.00
H421   H     0.88053   0.52960   0.32086   0.00000  Uiso   1.00
H422   H     0.76714   0.97134   0.20492   0.00000  Uiso   1.00
H423   H     0.87799   0.61101   0.32130   0.00000  Uiso   1.00
H424   H     0.76296   0.88990   0.20480   0.00000  Uiso   1.00
H425   H     0.80475   0.61054   0.17628   0.00000  Uiso   1.00
H426   H     0.91207   0.88597   0.29357   0.00000  Uiso   1.00
H427   H     0.81315   0.53018   0.17381   0.00000  Uiso   1.00
H428   H     0.91931   0.96768   0.29070   0.00000  Uiso   1.00
H429   H     0.76727   0.70247   0.02915   0.00000  Uiso   1.00
H430   H     0.87299   0.81548   0.46745   0.00000  Uiso   1.00
H431   H     0.77131   0.70186   0.11518   0.00000  Uiso   1.00
H432   H     0.87461   0.81213   0.38222   0.00000  Uiso   1.00
H433   H     0.89670   0.79834   0.04126   0.00000  Uiso   1.00
H434   H     0.79322   0.68653   0.46189   0.00000  Uiso   1.00
N435   N     0.83333   0.74999   0.12623   0.00000  Uiso   1.00
N436   N     0.83333   0.75001   0.37376   0.00000  Uiso   1.00
O437   O     0.83334   0.68453   0.28974   0.00000  Uiso   1.00
O438   O     0.83333   0.81546   0.21026   0.00000  Uiso   1.00
O439   O     0.83334   0.68453   0.21026   0.00000  Uiso   1.00
O440   O     0.83333   0.81547   0.28974   0.00000  Uiso   1.00
O441   O     0.75725   0.75000   0.28044   0.00000  Uiso   1.00
O442   O     0.90942   0.75000   0.21955   0.00000  Uiso   1.00
O443   O     0.75725   0.74999   0.20096   0.00000  Uiso   1.00
O444   O     0.90942   0.75000   0.29903   0.00000  Uiso   1.00
Zn445  Zn    0.83333   0.75000   0.30307   0.00000  Uiso   1.00
Zn446  Zn    0.83333   0.74999   0.19693   0.00000  Uiso   1.00
C447   C     0.90185   0.81112   0.13167   0.00000  Uiso   1.00
C448   C     0.95585   0.80341   0.14164   0.00000  Uiso   1.00
C449   C     0.98997   0.83665   0.16287   0.00000  Uiso   1.00
C450   C     0.97060   0.87832   0.17277   0.00000  Uiso   1.00
C451   C     0.91735   0.88714   0.16034   0.00000  Uiso   1.00
C452   C     0.88324   0.85393   0.13907   0.00000  Uiso   1.00
H453   H     0.97152   0.77195   0.13219   0.00000  Uiso   1.00
H454   H     0.69816   0.83026   0.17106   0.00000  Uiso   1.00
H455   H     0.99696   0.90406   0.18917   0.00000  Uiso   1.00
H456   H     0.90256   0.91978   0.16688   0.00000  Uiso   1.00
H457   H     0.84226   0.86147   0.12864   0.00000  Uiso   1.00
C458   C     0.77857   0.67960   0.37047   0.00000  Uiso   1.00
C459   C     0.72653   0.68720   0.35107   0.00000  Uiso   1.00
C460   C     0.69491   0.65232   0.33001   0.00000  Uiso   1.00
C461   C     0.71447   0.60910   0.33009   0.00000  Uiso   1.00
C462   C     0.76526   0.60069   0.35197   0.00000  Uiso   1.00
C463   C     0.79711   0.63574   0.37250   0.00000  Uiso   1.00
H464   H     0.71019   0.71989   0.35359   0.00000  Uiso   1.00
H465   H     0.98829   0.65861   0.31452   0.00000  Uiso   1.00
H466   H     0.68991   0.58199   0.31414   0.00000  Uiso   1.00
H467   H     0.77988   0.56697   0.35320   0.00000  Uiso   1.00
H468   H     0.83600   0.62874   0.39022   0.00000  Uiso   1.00
C469   C     0.16773   0.16393   0.75018   0.00000  Uiso   1.00
C470   C     0.16715   0.33580   0.74983   0.00000  Uiso   1.00
C471   C     0.13031   0.22321   0.54917   0.00000  Uiso   1.00
C472   C     0.18934   0.28617   0.94910   0.00000  Uiso   1.00
C473   C     0.13194   0.22309   0.59874   0.00000  Uiso   1.00
C474   C     0.18977   0.28478   0.89977   0.00000  Uiso   1.00
C475   C     0.20037   0.27785   0.60503   0.00000  Uiso   1.00
C476   C     0.14291   0.21564   0.89637   0.00000  Uiso   1.00
C477   C     0.20132   0.27722   0.55594   0.00000  Uiso   1.00
C478   C     0.14409   0.21506   0.94572   0.00000  Uiso   1.00
C479   C     0.16590   0.25027   0.52658   0.00000  Uiso   1.00
C480   C     0.16654   0.25065   0.97337   0.00000  Uiso   1.00
C481   C     0.06723   0.24874   0.73798   0.00000  Uiso   1.00
C482   C     0.26610   0.25112   0.76204   0.00000  Uiso   1.00
C483   C     0.01246   0.24402   0.73232   0.00000  Uiso   1.00
C484   C     0.32086   0.25559   0.76783   0.00000  Uiso   1.00
C485   C     0.19836   0.04710   0.78885   0.00000  Uiso   1.00
C486   C     0.13301   0.45317   0.72345   0.00000  Uiso   1.00
C487   C     0.19557   0.09325   0.78963   0.00000  Uiso   1.00
C488   C     0.13007   0.40705   0.72379   0.00000  Uiso   1.00
C489   C     0.17204   0.11604   0.74974   0.00000  Uiso   1.00
C490   C     0.17021   0.38332   0.74959   0.00000  Uiso   1.00
C491   C     0.15515   0.09314   0.70788   0.00000  Uiso   1.00
C492   C     0.21400   0.40491   0.77419   0.00000  Uiso   1.00
C493   C     0.15959   0.04736   0.70655   0.00000  Uiso   1.00
C494   C     0.21792   0.45109   0.77261   0.00000  Uiso   1.00
C495   C     0.17944   0.02396   0.74747   0.00000  Uiso   1.00
C496   C     0.17717   0.47542   0.74754   0.00000  Uiso   1.00
H497   H     0.32613   0.22982   0.69972   0.00000  Uiso   1.00
H498   H     0.00708   0.26989   0.80043   0.00000  Uiso   1.00
H499   H     0.21386   0.02960   0.82086   0.00000  Uiso   1.00
H500   H     0.10048   0.47134   0.70492   0.00000  Uiso   1.00
H501   H     0.21133   0.11101   0.82130   0.00000  Uiso   1.00
H502   H     0.09629   0.38990   0.70480   0.00000  Uiso   1.00
H503   H     0.13809   0.11054   0.67628   0.00000  Uiso   1.00
H504   H     0.24540   0.38597   0.79357   0.00000  Uiso   1.00
H505   H     0.14649   0.03018   0.67381   0.00000  Uiso   1.00
H506   H     0.25264   0.46768   0.79070   0.00000  Uiso   1.00
H507   H     0.10060   0.20247   0.52915   0.00000  Uiso   1.00
H508   H     0.20632   0.31548   0.96745   0.00000  Uiso   1.00
H509   H     0.10464   0.20186   0.61518   0.00000  Uiso   1.00
H510   H     0.20794   0.31213   0.88222   0.00000  Uiso   1.00
H511   H     0.23003   0.29834   0.54126   0.00000  Uiso   1.00
H512   H     0.12656   0.18653   0.96189   0.00000  Uiso   1.00
N513   N     0.16667   0.24999   0.62623   0.00000  Uiso   1.00
N514   N     0.16667   0.25001   0.87376   0.00000  Uiso   1.00
O515   O     0.16667   0.18453   0.78974   0.00000  Uiso   1.00
O516   O     0.16666   0.31546   0.71026   0.00000  Uiso   1.00
O517   O     0.16667   0.18453   0.71026   0.00000  Uiso   1.00
O518   O     0.16666   0.31547   0.78974   0.00000  Uiso   1.00
O519   O     0.09058   0.25000   0.78044   0.00000  Uiso   1.00
O520   O     0.24275   0.25000   0.71955   0.00000  Uiso   1.00
O521   O     0.09058   0.24999   0.70096   0.00000  Uiso   1.00
O522   O     0.24275   0.25000   0.79903   0.00000  Uiso   1.00
Zn523  Zn    0.16667   0.25000   0.80307   0.00000  Uiso   1.00
Zn524  Zn    0.16667   0.24999   0.69693   0.00000  Uiso   1.00
C525   C     0.23519   0.31112   0.63167   0.00000  Uiso   1.00
C526   C     0.28919   0.30341   0.64164   0.00000  Uiso   1.00
C527   C     0.32330   0.33665   0.66287   0.00000  Uiso   1.00
C528   C     0.30393   0.37832   0.67277   0.00000  Uiso   1.00
C529   C     0.25069   0.38714   0.66034   0.00000  Uiso   1.00
C530   C     0.21658   0.35393   0.63907   0.00000  Uiso   1.00
H531   H     0.30485   0.27195   0.63219   0.00000  Uiso   1.00
H532   H     0.03149   0.33026   0.67106   0.00000  Uiso   1.00
H533   H     0.33029   0.40406   0.68917   0.00000  Uiso   1.00
H534   H     0.23589   0.41978   0.66688   0.00000  Uiso   1.00
H535   H     0.17560   0.36147   0.62864   0.00000  Uiso   1.00
C536   C     0.11191   0.17960   0.87047   0.00000  Uiso   1.00
C537   C     0.05986   0.18720   0.85107   0.00000  Uiso   1.00
C538   C     0.02825   0.15232   0.83001   0.00000  Uiso   1.00
C539   C     0.04781   0.10910   0.83009   0.00000  Uiso   1.00
C540   C     0.09859   0.10069   0.85197   0.00000  Uiso   1.00
C541   C     0.13044   0.13574   0.87250   0.00000  Uiso   1.00
H542   H     0.04352   0.21989   0.85359   0.00000  Uiso   1.00
H543   H     0.32163   0.15861   0.81452   0.00000  Uiso   1.00
H544   H     0.02324   0.08199   0.81414   0.00000  Uiso   1.00
H545   H     0.11321   0.06697   0.85320   0.00000  Uiso   1.00
H546   H     0.16933   0.12874   0.89022   0.00000  Uiso   1.00
C547   C     0.50106   0.16393   0.75018   0.00000  Uiso   1.00
C548   C     0.50049   0.33580   0.74983   0.00000  Uiso   1.00
C549   C     0.46365   0.22321   0.54917   0.00000  Uiso   1.00
C550   C     0.52268   0.28617   0.94910   0.00000  Uiso   1.00
C551   C     0.46527   0.22309   0.59874   0.00000  Uiso   1.00
C552   C     0.52310   0.28478   0.89977   0.00000  Uiso   1.00
C553   C     0.53371   0.27785   0.60503   0.00000  Uiso   1.00
C554   C     0.47625   0.21564   0.89637   0.00000  Uiso   1.00
C555   C     0.53465   0.27722   0.55594   0.00000  Uiso   1.00
C556   C     0.47742   0.21506   0.94572   0.00000  Uiso   1.00
C557   C     0.49924   0.25027   0.52658   0.00000  Uiso   1.00
C558   C     0.49987   0.25065   0.97337   0.00000  Uiso   1.00
C559   C     0.40056   0.24874   0.73798   0.00000  Uiso   1.00
C560   C     0.59944   0.25112   0.76204   0.00000  Uiso   1.00
C561   C     0.34580   0.24402   0.73232   0.00000  Uiso   1.00
C562   C     0.65419   0.25559   0.76783   0.00000  Uiso   1.00
C563   C     0.53169   0.04710   0.78885   0.00000  Uiso   1.00
C564   C     0.46634   0.45317   0.72345   0.00000  Uiso   1.00
C565   C     0.52891   0.09325   0.78963   0.00000  Uiso   1.00
C566   C     0.46340   0.40705   0.72379   0.00000  Uiso   1.00
C567   C     0.50537   0.11604   0.74974   0.00000  Uiso   1.00
C568   C     0.50354   0.38332   0.74959   0.00000  Uiso   1.00
C569   C     0.48848   0.09314   0.70788   0.00000  Uiso   1.00
C570   C     0.54734   0.40491   0.77419   0.00000  Uiso   1.00
C571   C     0.49292   0.04736   0.70655   0.00000  Uiso   1.00
C572   C     0.55125   0.45109   0.77261   0.00000  Uiso   1.00
C573   C     0.51277   0.02396   0.74747   0.00000  Uiso   1.00
C574   C     0.51051   0.47542   0.74754   0.00000  Uiso   1.00
H575   H     0.65947   0.22982   0.69972   0.00000  Uiso   1.00
H576   H     0.34042   0.26989   0.80043   0.00000  Uiso   1.00
H577   H     0.54719   0.02960   0.82086   0.00000  Uiso   1.00
H578   H     0.43381   0.47134   0.70492   0.00000  Uiso   1.00
H579   H     0.54466   0.11101   0.82130   0.00000  Uiso   1.00
H580   H     0.42962   0.38990   0.70480   0.00000  Uiso   1.00
H581   H     0.47142   0.11054   0.67628   0.00000  Uiso   1.00
H582   H     0.57874   0.38597   0.79357   0.00000  Uiso   1.00
H583   H     0.47982   0.03018   0.67381   0.00000  Uiso   1.00
H584   H     0.58598   0.46768   0.79070   0.00000  Uiso   1.00
H585   H     0.43393   0.20247   0.52915   0.00000  Uiso   1.00
H586   H     0.53965   0.31548   0.96745   0.00000  Uiso   1.00
H587   H     0.43797   0.20186   0.61518   0.00000  Uiso   1.00
H588   H     0.54128   0.31213   0.88222   0.00000  Uiso   1.00
H589   H     0.56337   0.29834   0.54126   0.00000  Uiso   1.00
H590   H     0.45989   0.18653   0.96189   0.00000  Uiso   1.00
N591   N     0.50000   0.24999   0.62623   0.00000  Uiso   1.00
N592   N     0.50000   0.25001   0.87376   0.00000  Uiso   1.00
O593   O     0.50000   0.18453   0.78974   0.00000  Uiso   1.00
O594   O     0.50000   0.31546   0.71026   0.00000  Uiso   1.00
O595   O     0.50000   0.18453   0.71026   0.00000  Uiso   1.00
O596   O     0.50000   0.31547   0.78974   0.00000  Uiso   1.00
O597   O     0.42392   0.25000   0.78044   0.00000  Uiso   1.00
O598   O     0.57608   0.25000   0.71955   0.00000  Uiso   1.00
O599   O     0.42392   0.24999   0.70096   0.00000  Uiso   1.00
O600   O     0.57608   0.25000   0.79903   0.00000  Uiso   1.00
Zn601  Zn    0.50000   0.25000   0.80307   0.00000  Uiso   1.00
Zn602  Zn    0.50000   0.24999   0.69693   0.00000  Uiso   1.00
C603   C     0.56852   0.31112   0.63167   0.00000  Uiso   1.00
C604   C     0.62252   0.30341   0.64164   0.00000  Uiso   1.00
C605   C     0.65664   0.33665   0.66287   0.00000  Uiso   1.00
C606   C     0.63726   0.37832   0.67277   0.00000  Uiso   1.00
C607   C     0.58402   0.38714   0.66034   0.00000  Uiso   1.00
C608   C     0.54991   0.35393   0.63907   0.00000  Uiso   1.00
H609   H     0.63818   0.27195   0.63219   0.00000  Uiso   1.00
H610   H     0.36482   0.33026   0.67106   0.00000  Uiso   1.00
H611   H     0.66363   0.40406   0.68917   0.00000  Uiso   1.00
H612   H     0.56923   0.41978   0.66688   0.00000  Uiso   1.00
H613   H     0.50893   0.36147   0.62864   0.00000  Uiso   1.00
C614   C     0.44524   0.17960   0.87047   0.00000  Uiso   1.00
C615   C     0.39319   0.18720   0.85107   0.00000  Uiso   1.00
C616   C     0.36158   0.15232   0.83001   0.00000  Uiso   1.00
C617   C     0.38114   0.10910   0.83009   0.00000  Uiso   1.00
C618   C     0.43193   0.10069   0.85197   0.00000  Uiso   1.00
C619   C     0.46377   0.13574   0.87250   0.00000  Uiso   1.00
H620   H     0.37685   0.21989   0.85359   0.00000  Uiso   1.00
H621   H     0.65496   0.15861   0.81452   0.00000  Uiso   1.00
H622   H     0.35658   0.08199   0.81414   0.00000  Uiso   1.00
H623   H     0.44654   0.06697   0.85320   0.00000  Uiso   1.00
H624   H     0.50267   0.12874   0.89022   0.00000  Uiso   1.00
C625   C     0.83440   0.16393   0.75018   0.00000  Uiso   1.00
C626   C     0.83382   0.33580   0.74983   0.00000  Uiso   1.00
C627   C     0.79698   0.22321   0.54917   0.00000  Uiso   1.00
C628   C     0.85601   0.28617   0.94910   0.00000  Uiso   1.00
C629   C     0.79861   0.22309   0.59874   0.00000  Uiso   1.00
C630   C     0.85643   0.28478   0.89977   0.00000  Uiso   1.00
C631   C     0.86704   0.27785   0.60503   0.00000  Uiso   1.00
C632   C     0.80958   0.21564   0.89637   0.00000  Uiso   1.00
C633   C     0.86798   0.27722   0.55594   0.00000  Uiso   1.00
C634   C     0.81075   0.21506   0.94572   0.00000  Uiso   1.00
C635   C     0.83257   0.25027   0.52658   0.00000  Uiso   1.00
C636   C     0.83320   0.25065   0.97337   0.00000  Uiso   1.00
C637   C     0.73389   0.24874   0.73798   0.00000  Uiso   1.00
C638   C     0.93277   0.25112   0.76204   0.00000  Uiso   1.00
C639   C     0.67913   0.24402   0.73232   0.00000  Uiso   1.00
C640   C     0.98753   0.25559   0.76783   0.00000  Uiso   1.00
C641   C     0.86502   0.04710   0.78885   0.00000  Uiso   1.00
C642   C     0.79968   0.45317   0.72345   0.00000  Uiso   1.00
C643   C     0.86224   0.09325   0.78963   0.00000  Uiso   1.00
C644   C     0.79674   0.40705   0.72379   0.00000  Uiso   1.00
C645   C     0.83870   0.11604   0.74974   0.00000  Uiso   1.00
C646   C     0.83687   0.38332   0.74959   0.00000  Uiso   1.00
C647   C     0.82181   0.09314   0.70788   0.00000  Uiso   1.00
C648   C     0.88067   0.40491   0.77419   0.00000  Uiso   1.00
C649   C     0.82625   0.04736   0.70655   0.00000  Uiso   1.00
C650   C     0.88459   0.45109   0.77261   0.00000  Uiso   1.00
C651   C     0.84611   0.02396   0.74747   0.00000  Uiso   1.00
C652   C     0.84384   0.47542   0.74754   0.00000  Uiso   1.00
H653   H     0.99280   0.22982   0.69972   0.00000  Uiso   1.00
H654   H     0.67375   0.26989   0.80043   0.00000  Uiso   1.00
H655   H     0.88053   0.02960   0.82086   0.00000  Uiso   1.00
H656   H     0.76714   0.47134   0.70492   0.00000  Uiso   1.00
H657   H     0.87799   0.11101   0.82130   0.00000  Uiso   1.00
H658   H     0.76296   0.38990   0.70480   0.00000  Uiso   1.00
H659   H     0.80475   0.11054   0.67628   0.00000  Uiso   1.00
H660   H     0.91207   0.38597   0.79357   0.00000  Uiso   1.00
H661   H     0.81315   0.03018   0.67381   0.00000  Uiso   1.00
H662   H     0.91931   0.46768   0.79070   0.00000  Uiso   1.00
H663   H     0.76727   0.20247   0.52915   0.00000  Uiso   1.00
H664   H     0.87299   0.31548   0.96745   0.00000  Uiso   1.00
H665   H     0.77131   0.20186   0.61518   0.00000  Uiso   1.00
H666   H     0.87461   0.31213   0.88222   0.00000  Uiso   1.00
H667   H     0.89670   0.29834   0.54126   0.00000  Uiso   1.00
H668   H     0.79322   0.18653   0.96189   0.00000  Uiso   1.00
N669   N     0.83333   0.24999   0.62623   0.00000  Uiso   1.00
N670   N     0.83333   0.25001   0.87376   0.00000  Uiso   1.00
O671   O     0.83334   0.18453   0.78974   0.00000  Uiso   1.00
O672   O     0.83333   0.31546   0.71026   0.00000  Uiso   1.00
O673   O     0.83334   0.18453   0.71026   0.00000  Uiso   1.00
O674   O     0.83333   0.31547   0.78974   0.00000  Uiso   1.00
O675   O     0.75725   0.25000   0.78044   0.00000  Uiso   1.00
O676   O     0.90942   0.25000   0.71955   0.00000  Uiso   1.00
O677   O     0.75725   0.24999   0.70096   0.00000  Uiso   1.00
O678   O     0.90942   0.25000   0.79903   0.00000  Uiso   1.00
Zn679  Zn    0.83333   0.25000   0.80307   0.00000  Uiso   1.00
Zn680  Zn    0.83333   0.24999   0.69693   0.00000  Uiso   1.00
C681   C     0.90185   0.31112   0.63167   0.00000  Uiso   1.00
C682   C     0.95585   0.30341   0.64164   0.00000  Uiso   1.00
C683   C     0.98997   0.33665   0.66287   0.00000  Uiso   1.00
C684   C     0.97060   0.37832   0.67277   0.00000  Uiso   1.00
C685   C     0.91735   0.38714   0.66034   0.00000  Uiso   1.00
C686   C     0.88324   0.35393   0.63907   0.00000  Uiso   1.00
H687   H     0.97152   0.27195   0.63219   0.00000  Uiso   1.00
H688   H     0.69816   0.33026   0.67106   0.00000  Uiso   1.00
H689   H     0.99696   0.40406   0.68917   0.00000  Uiso   1.00
H690   H     0.90256   0.41978   0.66688   0.00000  Uiso   1.00
H691   H     0.84226   0.36147   0.62864   0.00000  Uiso   1.00
C692   C     0.77857   0.17960   0.87047   0.00000  Uiso   1.00
C693   C     0.72653   0.18720   0.85107   0.00000  Uiso   1.00
C694   C     0.69491   0.15232   0.83001   0.00000  Uiso   1.00
C695   C     0.71447   0.10910   0.83009   0.00000  Uiso   1.00
C696   C     0.76526   0.10069   0.85197   0.00000  Uiso   1.00
C697   C     0.79711   0.13574   0.87250   0.00000  Uiso   1.00
H698   H     0.71019   0.21989   0.85359   0.00000  Uiso   1.00
H699   H     0.98829   0.15861   0.81452   0.00000  Uiso   1.00
H700   H     0.68991   0.08199   0.81414   0.00000  Uiso   1.00
H701   H     0.77988   0.06697   0.85320   0.00000  Uiso   1.00
H702   H     0.83600   0.12874   0.89022   0.00000  Uiso   1.00
C703   C     0.16773   0.66393   0.75018   0.00000  Uiso   1.00
C704   C     0.16715   0.83580   0.74983   0.00000  Uiso   1.00
C705   C     0.13031   0.72321   0.54917   0.00000  Uiso   1.00
C706   C     0.18934   0.78617   0.94910   0.00000  Uiso   1.00
C707   C     0.13194   0.72309   0.59874   0.00000  Uiso   1.00
C708   C     0.18977   0.78478   0.89977   0.00000  Uiso   1.00
C709   C     0.20037   0.77785   0.60503   0.00000  Uiso   1.00
C710   C     0.14291   0.71564   0.89637   0.00000  Uiso   1.00
C711   C     0.20132   0.77722   0.55594   0.00000  Uiso   1.00
C712   C     0.14409   0.71506   0.94572   0.00000  Uiso   1.00
C713   C     0.16590   0.75027   0.52658   0.00000  Uiso   1.00
C714   C     0.16654   0.75065   0.97337   0.00000  Uiso   1.00
C715   C     0.06723   0.74874   0.73798   0.00000  Uiso   1.00
C716   C     0.26610   0.75112   0.76204   0.00000  Uiso   1.00
C717   C     0.01246   0.74402   0.73232   0.00000  Uiso   1.00
C718   C     0.32086   0.75559   0.76783   0.00000  Uiso   1.00
C719   C     0.19836   0.54710   0.78885   0.00000  Uiso   1.00
C720   C     0.13301   0.95317   0.72345   0.00000  Uiso   1.00
C721   C     0.19557   0.59325   0.78963   0.00000  Uiso   1.00
C722   C     0.13007   0.90705   0.72379   0.00000  Uiso   1.00
C723   C     0.17204   0.61604   0.74974   0.00000  Uiso   1.00
C724   C     0.17021   0.88332   0.74959   0.00000  Uiso   1.00
C725   C     0.15515   0.59314   0.70788   0.00000  Uiso   1.00
C726   C     0.21400   0.90491   0.77419   0.00000  Uiso   1.00
C727   C     0.15959   0.54736   0.70655   0.00000  Uiso   1.00
C728   C     0.21792   0.95109   0.77261   0.00000  Uiso   1.00
C729   C     0.17944   0.52396   0.74747   0.00000  Uiso   1.00
C730   C     0.17717   0.97542   0.74754   0.00000  Uiso   1.00
H731   H     0.32613   0.72982   0.69972   0.00000  Uiso   1.00
H732   H     0.00708   0.76989   0.80043   0.00000  Uiso   1.00
H733   H     0.21386   0.52960   0.82086   0.00000  Uiso   1.00
H734   H     0.10048   0.97134   0.70492   0.00000  Uiso   1.00
H735   H     0.21133   0.61101   0.82130   0.00000  Uiso   1.00
H736   H     0.09629   0.88990   0.70480   0.00000  Uiso   1.00
H737   H     0.13809   0.61054   0.67628   0.00000  Uiso   1.00
H738   H     0.24540   0.88597   0.79357   0.00000  Uiso   1.00
H739   H     0.14649   0.53018   0.67381   0.00000  Uiso   1.00
H740   H     0.25264   0.96768   0.79070   0.00000  Uiso   1.00
H741   H     0.10060   0.70247   0.52915   0.00000  Uiso   1.00
H742   H     0.20632   0.81548   0.96745   0.00000  Uiso   1.00
H743   H     0.10464   0.70186   0.61518   0.00000  Uiso   1.00
H744   H     0.20794   0.81213   0.88222   0.00000  Uiso   1.00
H745   H     0.23003   0.79834   0.54126   0.00000  Uiso   1.00
H746   H     0.12656   0.68653   0.96189   0.00000  Uiso   1.00
N747   N     0.16667   0.74999   0.62623   0.00000  Uiso   1.00
N748   N     0.16667   0.75001   0.87376   0.00000  Uiso   1.00
O749   O     0.16667   0.68453   0.78974   0.00000  Uiso   1.00
O750   O     0.16666   0.81546   0.71026   0.00000  Uiso   1.00
O751   O     0.16667   0.68453   0.71026   0.00000  Uiso   1.00
O752   O     0.16666   0.81547   0.78974   0.00000  Uiso   1.00
O753   O     0.09058   0.75000   0.78044   0.00000  Uiso   1.00
O754   O     0.24275   0.75000   0.71955   0.00000  Uiso   1.00
O755   O     0.09058   0.74999   0.70096   0.00000  Uiso   1.00
O756   O     0.24275   0.75000   0.79903   0.00000  Uiso   1.00
Zn757  Zn    0.16667   0.75000   0.80307   0.00000  Uiso   1.00
Zn758  Zn    0.16667   0.74999   0.69693   0.00000  Uiso   1.00
C759   C     0.23519   0.81112   0.63167   0.00000  Uiso   1.00
C760   C     0.28919   0.80341   0.64164   0.00000  Uiso   1.00
C761   C     0.32330   0.83665   0.66287   0.00000  Uiso   1.00
C762   C     0.30393   0.87832   0.67277   0.00000  Uiso   1.00
C763   C     0.25069   0.88714   0.66034   0.00000  Uiso   1.00
C764   C     0.21658   0.85393   0.63907   0.00000  Uiso   1.00
H765   H     0.30485   0.77195   0.63219   0.00000  Uiso   1.00
H766   H     0.03149   0.83026   0.67106   0.00000  Uiso   1.00
H767   H     0.33029   0.90406   0.68917   0.00000  Uiso   1.00
H768   H     0.23589   0.91978   0.66688   0.00000  Uiso   1.00
H769   H     0.17560   0.86147   0.62864   0.00000  Uiso   1.00
C770   C     0.11191   0.67960   0.87047   0.00000  Uiso   1.00
C771   C     0.05986   0.68720   0.85107   0.00000  Uiso   1.00
C772   C     0.02825   0.65232   0.83001   0.00000  Uiso   1.00
C773   C     0.04781   0.60910   0.83009   0.00000  Uiso   1.00
C774   C     0.09859   0.60069   0.85197   0.00000  Uiso   1.00
C775   C     0.13044   0.63574   0.87250   0.00000  Uiso   1.00
H776   H     0.04352   0.71989   0.85359   0.00000  Uiso   1.00
H777   H     0.32163   0.65861   0.81452   0.00000  Uiso   1.00
H778   H     0.02324   0.58199   0.81414   0.00000  Uiso   1.00
H779   H     0.11321   0.56697   0.85320   0.00000  Uiso   1.00
H780   H     0.16933   0.62874   0.89022   0.00000  Uiso   1.00
C781   C     0.50106   0.66393   0.75018   0.00000  Uiso   1.00
C782   C     0.50049   0.83580   0.74983   0.00000  Uiso   1.00
C783   C     0.46365   0.72321   0.54917   0.00000  Uiso   1.00
C784   C     0.52268   0.78617   0.94910   0.00000  Uiso   1.00
C785   C     0.46527   0.72309   0.59874   0.00000  Uiso   1.00
C786   C     0.52310   0.78478   0.89977   0.00000  Uiso   1.00
C787   C     0.53371   0.77785   0.60503   0.00000  Uiso   1.00
C788   C     0.47625   0.71564   0.89637   0.00000  Uiso   1.00
C789   C     0.53465   0.77722   0.55594   0.00000  Uiso   1.00
C790   C     0.47742   0.71506   0.94572   0.00000  Uiso   1.00
C791   C     0.49924   0.75027   0.52658   0.00000  Uiso   1.00
C792   C     0.49987   0.75065   0.97337   0.00000  Uiso   1.00
C793   C     0.40056   0.74874   0.73798   0.00000  Uiso   1.00
C794   C     0.59944   0.75112   0.76204   0.00000  Uiso   1.00
C795   C     0.34580   0.74402   0.73232   0.00000  Uiso   1.00
C796   C     0.65419   0.75559   0.76783   0.00000  Uiso   1.00
C797   C     0.53169   0.54710   0.78885   0.00000  Uiso   1.00
C798   C     0.46634   0.95317   0.72345   0.00000  Uiso   1.00
C799   C     0.52891   0.59325   0.78963   0.00000  Uiso   1.00
C800   C     0.46340   0.90705   0.72379   0.00000  Uiso   1.00
C801   C     0.50537   0.61604   0.74974   0.00000  Uiso   1.00
C802   C     0.50354   0.88332   0.74959   0.00000  Uiso   1.00
C803   C     0.48848   0.59314   0.70788   0.00000  Uiso   1.00
C804   C     0.54734   0.90491   0.77419   0.00000  Uiso   1.00
C805   C     0.49292   0.54736   0.70655   0.00000  Uiso   1.00
C806   C     0.55125   0.95109   0.77261   0.00000  Uiso   1.00
C807   C     0.51277   0.52396   0.74747   0.00000  Uiso   1.00
C808   C     0.51051   0.97542   0.74754   0.00000  Uiso   1.00
H809   H     0.65947   0.72982   0.69972   0.00000  Uiso   1.00
H810   H     0.34042   0.76989   0.80043   0.00000  Uiso   1.00
H811   H     0.54719   0.52960   0.82086   0.00000  Uiso   1.00
H812   H     0.43381   0.97134   0.70492   0.00000  Uiso   1.00
H813   H     0.54466   0.61101   0.82130   0.00000  Uiso   1.00
H814   H     0.42962   0.88990   0.70480   0.00000  Uiso   1.00
H815   H     0.47142   0.61054   0.67628   0.00000  Uiso   1.00
H816   H     0.57874   0.88597   0.79357   0.00000  Uiso   1.00
H817   H     0.47982   0.53018   0.67381   0.00000  Uiso   1.00
H818   H     0.58598   0.96768   0.79070   0.00000  Uiso   1.00
H819   H     0.43393   0.70247   0.52915   0.00000  Uiso   1.00
H820   H     0.53965   0.81548   0.96745   0.00000  Uiso   1.00
H821   H     0.43797   0.70186   0.61518   0.00000  Uiso   1.00
H822   H     0.54128   0.81213   0.88222   0.00000  Uiso   1.00
H823   H     0.56337   0.79834   0.54126   0.00000  Uiso   1.00
H824   H     0.45989   0.68653   0.96189   0.00000  Uiso   1.00
N825   N     0.50000   0.74999   0.62623   0.00000  Uiso   1.00
N826   N     0.50000   0.75001   0.87376   0.00000  Uiso   1.00
O827   O     0.50000   0.68453   0.78974   0.00000  Uiso   1.00
O828   O     0.50000   0.81546   0.71026   0.00000  Uiso   1.00
O829   O     0.50000   0.68453   0.71026   0.00000  Uiso   1.00
O830   O     0.50000   0.81547   0.78974   0.00000  Uiso   1.00
O831   O     0.42392   0.75000   0.78044   0.00000  Uiso   1.00
O832   O     0.57608   0.75000   0.71955   0.00000  Uiso   1.00
O833   O     0.42392   0.74999   0.70096   0.00000  Uiso   1.00
O834   O     0.57608   0.75000   0.79903   0.00000  Uiso   1.00
Zn835  Zn    0.50000   0.75000   0.80307   0.00000  Uiso   1.00
Zn836  Zn    0.50000   0.74999   0.69693   0.00000  Uiso   1.00
C837   C     0.56852   0.81112   0.63167   0.00000  Uiso   1.00
C838   C     0.62252   0.80341   0.64164   0.00000  Uiso   1.00
C839   C     0.65664   0.83665   0.66287   0.00000  Uiso   1.00
C840   C     0.63726   0.87832   0.67277   0.00000  Uiso   1.00
C841   C     0.58402   0.88714   0.66034   0.00000  Uiso   1.00
C842   C     0.54991   0.85393   0.63907   0.00000  Uiso   1.00
H843   H     0.63818   0.77195   0.63219   0.00000  Uiso   1.00
H844   H     0.36482   0.83026   0.67106   0.00000  Uiso   1.00
H845   H     0.66363   0.90406   0.68917   0.00000  Uiso   1.00
H846   H     0.56923   0.91978   0.66688   0.00000  Uiso   1.00
H847   H     0.50893   0.86147   0.62864   0.00000  Uiso   1.00
C848   C     0.44524   0.67960   0.87047   0.00000  Uiso   1.00
C849   C     0.39319   0.68720   0.85107   0.00000  Uiso   1.00
C850   C     0.36158   0.65232   0.83001   0.00000  Uiso   1.00
C851   C     0.38114   0.60910   0.83009   0.00000  Uiso   1.00
C852   C     0.43193   0.60069   0.85197   0.00000  Uiso   1.00
C853   C     0.46377   0.63574   0.87250   0.00000  Uiso   1.00
H854   H     0.37685   0.71989   0.85359   0.00000  Uiso   1.00
H855   H     0.65496   0.65861   0.81452   0.00000  Uiso   1.00
H856   H     0.35658   0.58199   0.81414   0.00000  Uiso   1.00
H857   H     0.44654   0.56697   0.85320   0.00000  Uiso   1.00
H858   H     0.50267   0.62874   0.89022   0.00000  Uiso   1.00
C859   C     0.83440   0.66393   0.75018   0.00000  Uiso   1.00
C860   C     0.83382   0.83580   0.74983   0.00000  Uiso   1.00
C861   C     0.79698   0.72321   0.54917   0.00000  Uiso   1.00
C862   C     0.85601   0.78617   0.94910   0.00000  Uiso   1.00
C863   C     0.79861   0.72309   0.59874   0.00000  Uiso   1.00
C864   C     0.85643   0.78478   0.89977   0.00000  Uiso   1.00
C865   C     0.86704   0.77785   0.60503   0.00000  Uiso   1.00
C866   C     0.80958   0.71564   0.89637   0.00000  Uiso   1.00
C867   C     0.86798   0.77722   0.55594   0.00000  Uiso   1.00
C868   C     0.81075   0.71506   0.94572   0.00000  Uiso   1.00
C869   C     0.83257   0.75027   0.52658   0.00000  Uiso   1.00
C870   C     0.83320   0.75065   0.97337   0.00000  Uiso   1.00
C871   C     0.73389   0.74874   0.73798   0.00000  Uiso   1.00
C872   C     0.93277   0.75112   0.76204   0.00000  Uiso   1.00
C873   C     0.67913   0.74402   0.73232   0.00000  Uiso   1.00
C874   C     0.98753   0.75559   0.76783   0.00000  Uiso   1.00
C875   C     0.86502   0.54710   0.78885   0.00000  Uiso   1.00
C876   C     0.79968   0.95317   0.72345   0.00000  Uiso   1.00
C877   C     0.86224   0.59325   0.78963   0.00000  Uiso   1.00
C878   C     0.79674   0.90705   0.72379   0.00000  Uiso   1.00
C879   C     0.83870   0.61604   0.74974   0.00000  Uiso   1.00
C880   C     0.83687   0.88332   0.74959   0.00000  Uiso   1.00
C881   C     0.82181   0.59314   0.70788   0.00000  Uiso   1.00
C882   C     0.88067   0.90491   0.77419   0.00000  Uiso   1.00
C883   C     0.82625   0.54736   0.70655   0.00000  Uiso   1.00
C884   C     0.88459   0.95109   0.77261   0.00000  Uiso   1.00
C885   C     0.84611   0.52396   0.74747   0.00000  Uiso   1.00
C886   C     0.84384   0.97542   0.74754   0.00000  Uiso   1.00
H887   H     0.99280   0.72982   0.69972   0.00000  Uiso   1.00
H888   H     0.67375   0.76989   0.80043   0.00000  Uiso   1.00
H889   H     0.88053   0.52960   0.82086   0.00000  Uiso   1.00
H890   H     0.76714   0.97134   0.70492   0.00000  Uiso   1.00
H891   H     0.87799   0.61101   0.82130   0.00000  Uiso   1.00
H892   H     0.76296   0.88990   0.70480   0.00000  Uiso   1.00
H893   H     0.80475   0.61054   0.67628   0.00000  Uiso   1.00
H894   H     0.91207   0.88597   0.79357   0.00000  Uiso   1.00
H895   H     0.81315   0.53018   0.67381   0.00000  Uiso   1.00
H896   H     0.91931   0.96768   0.79070   0.00000  Uiso   1.00
H897   H     0.76727   0.70247   0.52915   0.00000  Uiso   1.00
H898   H     0.87299   0.81548   0.96745   0.00000  Uiso   1.00
H899   H     0.77131   0.70186   0.61518   0.00000  Uiso   1.00
H900   H     0.87461   0.81213   0.88222   0.00000  Uiso   1.00
H901   H     0.89670   0.79834   0.54126   0.00000  Uiso   1.00
H902   H     0.79322   0.68653   0.96189   0.00000  Uiso   1.00
N903   N     0.83333   0.74999   0.62623   0.00000  Uiso   1.00
N904   N     0.83333   0.75001   0.87376   0.00000  Uiso   1.00
O905   O     0.83334   0.68453   0.78974   0.00000  Uiso   1.00
O906   O     0.83333   0.81546   0.71026   0.00000  Uiso   1.00
O907   O     0.83334   0.68453   0.71026   0.00000  Uiso   1.00
O908   O     0.83333   0.81547   0.78974   0.00000  Uiso   1.00
O909   O     0.75725   0.75000   0.78044   0.00000  Uiso   1.00
O910   O     0.90942   0.75000   0.71955   0.00000  Uiso   1.00
O911   O     0.75725   0.74999   0.70096   0.00000  Uiso   1.00
O912   O     0.90942   0.75000   0.79903   0.00000  Uiso   1.00
Zn913  Zn    0.83333   0.75000   0.80307   0.00000  Uiso   1.00
Zn914  Zn    0.83333   0.74999   0.69693   0.00000  Uiso   1.00
C915   C     0.90185   0.81112   0.63167   0.00000  Uiso   1.00
C916   C     0.95585   0.80341   0.64164   0.00000  Uiso   1.00
C917   C     0.98997   0.83665   0.66287   0.00000  Uiso   1.00
C918   C     0.97060   0.87832   0.67277   0.00000  Uiso   1.00
C919   C     0.91735   0.88714   0.66034   0.00000  Uiso   1.00
C920   C     0.88324   0.85393   0.63907   0.00000  Uiso   1.00
H921   H     0.97152   0.77195   0.63219   0.00000  Uiso   1.00
H922   H     0.69816   0.83026   0.67106   0.00000  Uiso   1.00
H923   H     0.99696   0.90406   0.68917   0.00000  Uiso   1.00
H924   H     0.90256   0.91978   0.66688   0.00000  Uiso   1.00
H925   H     0.84226   0.86147   0.62864   0.00000  Uiso   1.00
C926   C     0.77857   0.67960   0.87047   0.00000  Uiso   1.00
C927   C     0.72653   0.68720   0.85107   0.00000  Uiso   1.00
C928   C     0.69491   0.65232   0.83001   0.00000  Uiso   1.00
C929   C     0.71447   0.60910   0.83009   0.00000  Uiso   1.00
C930   C     0.76526   0.60069   0.85197   0.00000  Uiso   1.00
C931   C     0.79711   0.63574   0.87250   0.00000  Uiso   1.00
H932   H     0.71019   0.71989   0.85359   0.00000  Uiso   1.00
H933   H     0.98829   0.65861   0.81452   0.00000  Uiso   1.00
H934   H     0.68991   0.58199   0.81414   0.00000  Uiso   1.00
H935   H     0.77988   0.56697   0.85320   0.00000  Uiso   1.00
H936   H     0.83600   0.62874   0.89022   0.00000  Uiso   1.00
loop_
_geom_bond_atom_site_label_1
_geom_bond_atom_site_label_2
_geom_bond_distance
_geom_bond_site_symmetry_2
_ccdc_geom_bond_type
C1     C21     1.439   .     S
C1     O47     1.297   .     A
C1     O49     1.287   .     A
C2     O50     1.287   .     A
C2     C22     1.421   .     S
C2     O48     1.288   .     A
C3     H39     1.080   .     S
C3     C5      1.411   .     A
C3     C11     1.418   .     A
C4     H40     1.080   .     S
C4     C12     1.417   .     A
C4     C6      1.412   .     A
C5     N45     1.363   .     A
C5     H41     1.082   .     S
C6     N46     1.363   .     A
C6     H42     1.082   .     S
C7     N45     1.378   .     A
C7     C9      1.406   .     A
C7     C57     1.472   .     S
C8     C68     1.472   .     S
C8     N46     1.378   .     A
C8     C10     1.406   .     A
C9     H43     1.081   .     S
C9     C11     1.401   .     A
C10    H44     1.081   .     S
C10    C12     1.400   .     A
C11    C480    1.522   1_554 S
C12    C479    1.522   .     S
C13    O51     1.282   .     A
C13    O53     1.281   .     A
C13    C15     1.398   .     S
C14    O52     1.283   .     A
C14    C16     1.397   .     S
C14    O54     1.280   .     A
C15    C172    1.321   1_455 S
C15    H185    1.086   1_455 S
C16    C93     1.321   .     S
C16    H108    1.086   .     S
C17    C27     1.403   .     A
C17    H31     1.083   .     S
C17    C19     1.384   .     A
C18    C20     1.379   .     A
C18    C28     1.405   .     A
C18    H32     1.083   .     S
C19    C21     1.396   .     A
C19    H33     1.082   .     S
C20    H34     1.083   .     S
C20    C22     1.390   .     A
C21    C23     1.399   .     A
C22    C24     1.395   .     A
C23    H35     1.084   .     S
C23    C25     1.377   .     A
C24    H36     1.084   .     S
C24    C26     1.382   .     A
C25    H37     1.083   .     S
C25    C27     1.399   .     A
C26    H38     1.083   .     S
C26    C28     1.402   .     A
C27    C262    1.451   1_545 S
C28    C261    1.451   .     S
H29    C93     1.086   .     S
H30    C172    1.086   1_455 S
N45    Zn56    2.020   .     S
N46    Zn55    2.020   .     S
O47    Zn55    1.998   .     S
O48    Zn56    1.998   .     S
O49    Zn56    1.989   .     S
O50    Zn55    1.989   .     S
O51    Zn55    1.976   .     S
O52    Zn56    1.976   .     S
O53    Zn56    1.971   .     S
O54    Zn55    1.971   .     S
C57    C62     1.404   .     A
C57    C58     1.402   .     A
C58    C59     1.399   .     A
C58    H63     1.082   .     S
C59    C60     1.398   .     A
C59    H142    1.082   .     S
C60    C61     1.397   .     A
C60    H65     1.082   .     S
C61    H66     1.082   .     S
C61    C62     1.398   .     A
C62    H67     1.083   .     S
H64    C215    1.082   1_455 S
C68    C69     1.401   .     A
C68    C73     1.403   .     A
C69    C70     1.398   .     A
C69    H74     1.079   .     S
C70    C71     1.397   .     A
C70    H231    1.083   1_455 S
C71    H76     1.082   .     S
C71    C72     1.398   .     A
C72    H77     1.082   .     S
C72    C73     1.400   .     A
C73    H78     1.083   .     S
H75    C148    1.083   .     S
C79    C99     1.439   .     S
C79    O125    1.297   .     A
C79    O127    1.287   .     A
C80    O128    1.287   .     A
C80    C100    1.421   .     S
C80    O126    1.288   .     A
C81    H117    1.080   .     S
C81    C83     1.411   .     A
C81    C89     1.418   .     A
C82    H118    1.080   .     S
C82    C90     1.417   .     A
C82    C84     1.412   .     A
C83    N123    1.363   .     A
C83    H119    1.082   .     S
C84    N124    1.363   .     A
C84    H120    1.082   .     S
C85    N123    1.378   .     A
C85    C87     1.406   .     A
C85    C135    1.472   .     S
C86    C146    1.472   .     S
C86    N124    1.378   .     A
C86    C88     1.406   .     A
C87    H121    1.081   .     S
C87    C89     1.401   .     A
C88    H122    1.081   .     S
C88    C90     1.400   .     A
C89    C558    1.522   1_554 S
C90    C557    1.522   .     S
C91    O129    1.282   .     A
C91    O131    1.281   .     A
C91    C93     1.398   .     S
C92    O130    1.283   .     A
C92    C94     1.397   .     S
C92    O132    1.280   .     A
C94    C171    1.321   .     S
C94    H186    1.086   .     S
C95    C105    1.403   .     A
C95    H109    1.083   .     S
C95    C97     1.384   .     A
C96    C98     1.379   .     A
C96    C106    1.405   .     A
C96    H110    1.083   .     S
C97    C99     1.396   .     A
C97    H111    1.082   .     S
C98    H112    1.083   .     S
C98    C100    1.390   .     A
C99    C101    1.399   .     A
C100   C102    1.395   .     A
C101   H113    1.084   .     S
C101   C103    1.377   .     A
C102   H114    1.084   .     S
C102   C104    1.382   .     A
C103   H115    1.083   .     S
C103   C105    1.399   .     A
C104   H116    1.083   .     S
C104   C106    1.402   .     A
C105   C340    1.451   1_545 S
C106   C339    1.451   .     S
H107   C171    1.086   .     S
N123   Zn134   2.020   .     S
N124   Zn133   2.020   .     S
O125   Zn133   1.998   .     S
O126   Zn134   1.998   .     S
O127   Zn134   1.989   .     S
O128   Zn133   1.989   .     S
O129   Zn133   1.976   .     S
O130   Zn134   1.976   .     S
O131   Zn134   1.971   .     S
O132   Zn133   1.971   .     S
C135   C140    1.404   .     A
C135   C136    1.402   .     A
C136   C137    1.399   .     A
C136   H141    1.082   .     S
C137   C138    1.398   .     A
C137   H220    1.082   .     S
C138   C139    1.397   .     A
C138   H143    1.082   .     S
C139   H144    1.082   .     S
C139   C140    1.398   .     A
C140   H145    1.083   .     S
C146   C147    1.401   .     A
C146   C151    1.403   .     A
C147   C148    1.398   .     A
C147   H152    1.079   .     S
C148   C149    1.397   .     A
C149   H154    1.082   .     S
C149   C150    1.398   .     A
C150   H155    1.082   .     S
C150   C151    1.400   .     A
C151   H156    1.083   .     S
H153   C226    1.083   .     S
C157   C177    1.439   .     S
C157   O203    1.297   .     A
C157   O205    1.287   .     A
C158   O206    1.287   .     A
C158   C178    1.421   .     S
C158   O204    1.288   .     A
C159   H195    1.080   .     S
C159   C161    1.411   .     A
C159   C167    1.418   .     A
C160   H196    1.080   .     S
C160   C168    1.417   .     A
C160   C162    1.412   .     A
C161   N201    1.363   .     A
C161   H197    1.082   .     S
C162   N202    1.363   .     A
C162   H198    1.082   .     S
C163   N201    1.378   .     A
C163   C165    1.406   .     A
C163   C213    1.472   .     S
C164   C224    1.472   .     S
C164   N202    1.378   .     A
C164   C166    1.406   .     A
C165   H199    1.081   .     S
C165   C167    1.401   .     A
C166   H200    1.081   .     S
C166   C168    1.400   .     A
C167   C636    1.522   1_554 S
C168   C635    1.522   .     S
C169   O207    1.282   .     A
C169   O209    1.281   .     A
C169   C171    1.398   .     S
C170   O208    1.283   .     A
C170   C172    1.397   .     S
C170   O210    1.280   .     A
C172   C15     1.321   1_655 S
C172   H30     1.086   1_655 S
C173   C183    1.403   .     A
C173   H187    1.083   .     S
C173   C175    1.384   .     A
C174   C176    1.379   .     A
C174   C184    1.405   .     A
C174   H188    1.083   .     S
C175   C177    1.396   .     A
C175   H189    1.082   .     S
C176   H190    1.083   .     S
C176   C178    1.390   .     A
C177   C179    1.399   .     A
C178   C180    1.395   .     A
C179   H191    1.084   .     S
C179   C181    1.377   .     A
C180   H192    1.084   .     S
C180   C182    1.382   .     A
C181   H193    1.083   .     S
C181   C183    1.399   .     A
C182   H194    1.083   .     S
C182   C184    1.402   .     A
C183   C418    1.451   1_545 S
C184   C417    1.451   .     S
H185   C15     1.086   1_655 S
N201   Zn212   2.020   .     S
N202   Zn211   2.020   .     S
O203   Zn211   1.998   .     S
O204   Zn212   1.998   .     S
O205   Zn212   1.989   .     S
O206   Zn211   1.989   .     S
O207   Zn211   1.976   .     S
O208   Zn212   1.976   .     S
O209   Zn212   1.971   .     S
O210   Zn211   1.971   .     S
C213   C218    1.404   .     A
C213   C214    1.402   .     A
C214   C215    1.399   .     A
C214   H219    1.082   .     S
C215   C216    1.398   .     A
C215   H64     1.082   1_655 S
C216   C217    1.397   .     A
C216   H221    1.082   .     S
C217   H222    1.082   .     S
C217   C218    1.398   .     A
C218   H223    1.083   .     S
C224   C225    1.401   .     A
C224   C229    1.403   .     A
C225   C226    1.398   .     A
C225   H230    1.079   .     S
C226   C227    1.397   .     A
C227   H232    1.082   .     S
C227   C228    1.398   .     A
C228   H233    1.082   .     S
C228   C229    1.400   .     A
C229   H234    1.083   .     S
H231   C70     1.083   1_655 S
C235   C255    1.439   .     S
C235   O281    1.297   .     A
C235   O283    1.287   .     A
C236   O284    1.287   .     A
C236   C256    1.421   .     S
C236   O282    1.288   .     A
C237   H273    1.080   .     S
C237   C239    1.411   .     A
C237   C245    1.418   .     A
C238   H274    1.080   .     S
C238   C246    1.417   .     A
C238   C240    1.412   .     A
C239   N279    1.363   .     A
C239   H275    1.082   .     S
C240   N280    1.363   .     A
C240   H276    1.082   .     S
C241   N279    1.378   .     A
C241   C243    1.406   .     A
C241   C291    1.472   .     S
C242   C302    1.472   .     S
C242   N280    1.378   .     A
C242   C244    1.406   .     A
C243   H277    1.081   .     S
C243   C245    1.401   .     A
C244   H278    1.081   .     S
C244   C246    1.400   .     A
C245   C714    1.522   1_554 S
C246   C713    1.522   .     S
C247   O285    1.282   .     A
C247   O287    1.281   .     A
C247   C249    1.398   .     S
C248   O286    1.283   .     A
C248   C250    1.397   .     S
C248   O288    1.280   .     A
C249   C406    1.321   1_455 S
C249   H419    1.086   1_455 S
C250   C327    1.321   .     S
C250   H342    1.086   .     S
C251   C261    1.403   .     A
C251   H265    1.083   .     S
C251   C253    1.384   .     A
C252   C254    1.379   .     A
C252   C262    1.405   .     A
C252   H266    1.083   .     S
C253   C255    1.396   .     A
C253   H267    1.082   .     S
C254   H268    1.083   .     S
C254   C256    1.390   .     A
C255   C257    1.399   .     A
C256   C258    1.395   .     A
C257   H269    1.084   .     S
C257   C259    1.377   .     A
C258   H270    1.084   .     S
C258   C260    1.382   .     A
C259   H271    1.083   .     S
C259   C261    1.399   .     A
C260   H272    1.083   .     S
C260   C262    1.402   .     A
C262   C27     1.451   1_565 S
H263   C327    1.086   .     S
H264   C406    1.086   1_455 S
N279   Zn290   2.020   .     S
N280   Zn289   2.020   .     S
O281   Zn289   1.998   .     S
O282   Zn290   1.998   .     S
O283   Zn290   1.989   .     S
O284   Zn289   1.989   .     S
O285   Zn289   1.976   .     S
O286   Zn290   1.976   .     S
O287   Zn290   1.971   .     S
O288   Zn289   1.971   .     S
C291   C296    1.404   .     A
C291   C292    1.402   .     A
C292   C293    1.399   .     A
C292   H297    1.082   .     S
C293   C294    1.398   .     A
C293   H376    1.082   .     S
C294   C295    1.397   .     A
C294   H299    1.082   .     S
C295   H300    1.082   .     S
C295   C296    1.398   .     A
C296   H301    1.083   .     S
H298   C449    1.082   1_455 S
C302   C303    1.401   .     A
C302   C307    1.403   .     A
C303   C304    1.398   .     A
C303   H308    1.079   .     S
C304   C305    1.397   .     A
C304   H465    1.083   1_455 S
C305   H310    1.082   .     S
C305   C306    1.398   .     A
C306   H311    1.082   .     S
C306   C307    1.400   .     A
C307   H312    1.083   .     S
H309   C382    1.083   .     S
C313   C333    1.439   .     S
C313   O359    1.297   .     A
C313   O361    1.287   .     A
C314   O362    1.287   .     A
C314   C334    1.421   .     S
C314   O360    1.288   .     A
C315   H351    1.080   .     S
C315   C317    1.411   .     A
C315   C323    1.418   .     A
C316   H352    1.080   .     S
C316   C324    1.417   .     A
C316   C318    1.412   .     A
C317   N357    1.363   .     A
C317   H353    1.082   .     S
C318   N358    1.363   .     A
C318   H354    1.082   .     S
C319   N357    1.378   .     A
C319   C321    1.406   .     A
C319   C369    1.472   .     S
C320   C380    1.472   .     S
C320   N358    1.378   .     A
C320   C322    1.406   .     A
C321   H355    1.081   .     S
C321   C323    1.401   .     A
C322   H356    1.081   .     S
C322   C324    1.400   .     A
C323   C792    1.522   1_554 S
C324   C791    1.522   .     S
C325   O363    1.282   .     A
C325   O365    1.281   .     A
C325   C327    1.398   .     S
C326   O364    1.283   .     A
C326   C328    1.397   .     S
C326   O366    1.280   .     A
C328   C405    1.321   .     S
C328   H420    1.086   .     S
C329   C339    1.403   .     A
C329   H343    1.083   .     S
C329   C331    1.384   .     A
C330   C332    1.379   .     A
C330   C340    1.405   .     A
C330   H344    1.083   .     S
C331   C333    1.396   .     A
C331   H345    1.082   .     S
C332   H346    1.083   .     S
C332   C334    1.390   .     A
C333   C335    1.399   .     A
C334   C336    1.395   .     A
C335   H347    1.084   .     S
C335   C337    1.377   .     A
C336   H348    1.084   .     S
C336   C338    1.382   .     A
C337   H349    1.083   .     S
C337   C339    1.399   .     A
C338   H350    1.083   .     S
C338   C340    1.402   .     A
C340   C105    1.451   1_565 S
H341   C405    1.086   .     S
N357   Zn368   2.020   .     S
N358   Zn367   2.020   .     S
O359   Zn367   1.998   .     S
O360   Zn368   1.998   .     S
O361   Zn368   1.989   .     S
O362   Zn367   1.989   .     S
O363   Zn367   1.976   .     S
O364   Zn368   1.976   .     S
O365   Zn368   1.971   .     S
O366   Zn367   1.971   .     S
C369   C374    1.404   .     A
C369   C370    1.402   .     A
C370   C371    1.399   .     A
C370   H375    1.082   .     S
C371   C372    1.398   .     A
C371   H454    1.082   .     S
C372   C373    1.397   .     A
C372   H377    1.082   .     S
C373   H378    1.082   .     S
C373   C374    1.398   .     A
C374   H379    1.083   .     S
C380   C381    1.401   .     A
C380   C385    1.403   .     A
C381   C382    1.398   .     A
C381   H386    1.079   .     S
C382   C383    1.397   .     A
C383   H388    1.082   .     S
C383   C384    1.398   .     A
C384   H389    1.082   .     S
C384   C385    1.400   .     A
C385   H390    1.083   .     S
H387   C460    1.083   .     S
C391   C411    1.439   .     S
C391   O437    1.297   .     A
C391   O439    1.287   .     A
C392   O440    1.287   .     A
C392   C412    1.421   .     S
C392   O438    1.288   .     A
C393   H429    1.080   .     S
C393   C395    1.411   .     A
C393   C401    1.418   .     A
C394   H430    1.080   .     S
C394   C402    1.417   .     A
C394   C396    1.412   .     A
C395   N435    1.363   .     A
C395   H431    1.082   .     S
C396   N436    1.363   .     A
C396   H432    1.082   .     S
C397   N435    1.378   .     A
C397   C399    1.406   .     A
C397   C447    1.472   .     S
C398   C458    1.472   .     S
C398   N436    1.378   .     A
C398   C400    1.406   .     A
C399   H433    1.081   .     S
C399   C401    1.401   .     A
C400   H434    1.081   .     S
C400   C402    1.400   .     A
C401   C870    1.522   1_554 S
C402   C869    1.522   .     S
C403   O441    1.282   .     A
C403   O443    1.281   .     A
C403   C405    1.398   .     S
C404   O442    1.283   .     A
C404   C406    1.397   .     S
C404   O444    1.280   .     A
C406   C249    1.321   1_655 S
C406   H264    1.086   1_655 S
C407   C417    1.403   .     A
C407   H421    1.083   .     S
C407   C409    1.384   .     A
C408   C410    1.379   .     A
C408   C418    1.405   .     A
C408   H422    1.083   .     S
C409   C411    1.396   .     A
C409   H423    1.082   .     S
C410   H424    1.083   .     S
C410   C412    1.390   .     A
C411   C413    1.399   .     A
C412   C414    1.395   .     A
C413   H425    1.084   .     S
C413   C415    1.377   .     A
C414   H426    1.084   .     S
C414   C416    1.382   .     A
C415   H427    1.083   .     S
C415   C417    1.399   .     A
C416   H428    1.083   .     S
C416   C418    1.402   .     A
C418   C183    1.451   1_565 S
H419   C249    1.086   1_655 S
N435   Zn446   2.020   .     S
N436   Zn445   2.020   .     S
O437   Zn445   1.998   .     S
O438   Zn446   1.998   .     S
O439   Zn446   1.989   .     S
O440   Zn445   1.989   .     S
O441   Zn445   1.976   .     S
O442   Zn446   1.976   .     S
O443   Zn446   1.971   .     S
O444   Zn445   1.971   .     S
C447   C452    1.404   .     A
C447   C448    1.402   .     A
C448   C449    1.399   .     A
C448   H453    1.082   .     S
C449   C450    1.398   .     A
C449   H298    1.082   1_655 S
C450   C451    1.397   .     A
C450   H455    1.082   .     S
C451   H456    1.082   .     S
C451   C452    1.398   .     A
C452   H457    1.083   .     S
C458   C459    1.401   .     A
C458   C463    1.403   .     A
C459   C460    1.398   .     A
C459   H464    1.079   .     S
C460   C461    1.397   .     A
C461   H466    1.082   .     S
C461   C462    1.398   .     A
C462   H467    1.082   .     S
C462   C463    1.400   .     A
C463   H468    1.083   .     S
H465   C304    1.083   1_655 S
C469   C489    1.439   .     S
C469   O515    1.297   .     A
C469   O517    1.287   .     A
C470   O518    1.287   .     A
C470   C490    1.421   .     S
C470   O516    1.288   .     A
C471   H507    1.080   .     S
C471   C473    1.411   .     A
C471   C479    1.418   .     A
C472   H508    1.080   .     S
C472   C480    1.417   .     A
C472   C474    1.412   .     A
C473   N513    1.363   .     A
C473   H509    1.082   .     S
C474   N514    1.363   .     A
C474   H510    1.082   .     S
C475   N513    1.378   .     A
C475   C477    1.406   .     A
C475   C525    1.472   .     S
C476   C536    1.472   .     S
C476   N514    1.378   .     A
C476   C478    1.406   .     A
C477   H511    1.081   .     S
C477   C479    1.401   .     A
C478   H512    1.081   .     S
C478   C480    1.400   .     A
C480   C11     1.522   1_556 S
C481   O519    1.282   .     A
C481   O521    1.281   .     A
C481   C483    1.398   .     S
C482   O520    1.283   .     A
C482   C484    1.397   .     S
C482   O522    1.280   .     A
C483   C640    1.321   1_455 S
C483   H653    1.086   1_455 S
C484   C561    1.321   .     S
C484   H576    1.086   .     S
C485   C495    1.403   .     A
C485   H499    1.083   .     S
C485   C487    1.384   .     A
C486   C488    1.379   .     A
C486   C496    1.405   .     A
C486   H500    1.083   .     S
C487   C489    1.396   .     A
C487   H501    1.082   .     S
C488   H502    1.083   .     S
C488   C490    1.390   .     A
C489   C491    1.399   .     A
C490   C492    1.395   .     A
C491   H503    1.084   .     S
C491   C493    1.377   .     A
C492   H504    1.084   .     S
C492   C494    1.382   .     A
C493   H505    1.083   .     S
C493   C495    1.399   .     A
C494   H506    1.083   .     S
C494   C496    1.402   .     A
C495   C730    1.451   1_545 S
C496   C729    1.451   .     S
H497   C561    1.086   .     S
H498   C640    1.086   1_455 S
N513   Zn524   2.020   .     S
N514   Zn523   2.020   .     S
O515   Zn523   1.998   .     S
O516   Zn524   1.998   .     S
O517   Zn524   1.989   .     S
O518   Zn523   1.989   .     S
O519   Zn523   1.976   .     S
O520   Zn524   1.976   .     S
O521   Zn524   1.971   .     S
O522   Zn523   1.971   .     S
C525   C530    1.404   .     A
C525   C526    1.402   .     A
C526   C527    1.399   .     A
C526   H531    1.082   .     S
C527   C528    1.398   .     A
C527   H610    1.082   .     S
C528   C529    1.397   .     A
C528   H533    1.082   .     S
C529   H534    1.082   .     S
C529   C530    1.398   .     A
C530   H535    1.083   .     S
H532   C683    1.082   1_455 S
C536   C537    1.401   .     A
C536   C541    1.403   .     A
C537   C538    1.398   .     A
C537   H542    1.079   .     S
C538   C539    1.397   .     A
C538   H699    1.083   1_455 S
C539   H544    1.082   .     S
C539   C540    1.398   .     A
C540   H545    1.082   .     S
C540   C541    1.400   .     A
C541   H546    1.083   .     S
H543   C616    1.083   .     S
C547   C567    1.439   .     S
C547   O593    1.297   .     A
C547   O595    1.287   .     A
C548   O596    1.287   .     A
C548   C568    1.421   .     S
C548   O594    1.288   .     A
C549   H585    1.080   .     S
C549   C551    1.411   .     A
C549   C557    1.418   .     A
C550   H586    1.080   .     S
C550   C558    1.417   .     A
C550   C552    1.412   .     A
C551   N591    1.363   .     A
C551   H587    1.082   .     S
C552   N592    1.363   .     A
C552   H588    1.082   .     S
C553   N591    1.378   .     A
C553   C555    1.406   .     A
C553   C603    1.472   .     S
C554   C614    1.472   .     S
C554   N592    1.378   .     A
C554   C556    1.406   .     A
C555   H589    1.081   .     S
C555   C557    1.401   .     A
C556   H590    1.081   .     S
C556   C558    1.400   .     A
C558   C89     1.522   1_556 S
C559   O597    1.282   .     A
C559   O599    1.281   .     A
C559   C561    1.398   .     S
C560   O598    1.283   .     A
C560   C562    1.397   .     S
C560   O600    1.280   .     A
C562   C639    1.321   .     S
C562   H654    1.086   .     S
C563   C573    1.403   .     A
C563   H577    1.083   .     S
C563   C565    1.384   .     A
C564   C566    1.379   .     A
C564   C574    1.405   .     A
C564   H578    1.083   .     S
C565   C567    1.396   .     A
C565   H579    1.082   .     S
C566   H580    1.083   .     S
C566   C568    1.390   .     A
C567   C569    1.399   .     A
C568   C570    1.395   .     A
C569   H581    1.084   .     S
C569   C571    1.377   .     A
C570   H582    1.084   .     S
C570   C572    1.382   .     A
C571   H583    1.083   .     S
C571   C573    1.399   .     A
C572   H584    1.083   .     S
C572   C574    1.402   .     A
C573   C808    1.451   1_545 S
C574   C807    1.451   .     S
H575   C639    1.086   .     S
N591   Zn602   2.020   .     S
N592   Zn601   2.020   .     S
O593   Zn601   1.998   .     S
O594   Zn602   1.998   .     S
O595   Zn602   1.989   .     S
O596   Zn601   1.989   .     S
O597   Zn601   1.976   .     S
O598   Zn602   1.976   .     S
O599   Zn602   1.971   .     S
O600   Zn601   1.971   .     S
C603   C608    1.404   .     A
C603   C604    1.402   .     A
C604   C605    1.399   .     A
C604   H609    1.082   .     S
C605   C606    1.398   .     A
C605   H688    1.082   .     S
C606   C607    1.397   .     A
C606   H611    1.082   .     S
C607   H612    1.082   .     S
C607   C608    1.398   .     A
C608   H613    1.083   .     S
C614   C615    1.401   .     A
C614   C619    1.403   .     A
C615   C616    1.398   .     A
C615   H620    1.079   .     S
C616   C617    1.397   .     A
C617   H622    1.082   .     S
C617   C618    1.398   .     A
C618   H623    1.082   .     S
C618   C619    1.400   .     A
C619   H624    1.083   .     S
H621   C694    1.083   .     S
C625   C645    1.439   .     S
C625   O671    1.297   .     A
C625   O673    1.287   .     A
C626   O674    1.287   .     A
C626   C646    1.421   .     S
C626   O672    1.288   .     A
C627   H663    1.080   .     S
C627   C629    1.411   .     A
C627   C635    1.418   .     A
C628   H664    1.080   .     S
C628   C636    1.417   .     A
C628   C630    1.412   .     A
C629   N669    1.363   .     A
C629   H665    1.082   .     S
C630   N670    1.363   .     A
C630   H666    1.082   .     S
C631   N669    1.378   .     A
C631   C633    1.406   .     A
C631   C681    1.472   .     S
C632   C692    1.472   .     S
C632   N670    1.378   .     A
C632   C634    1.406   .     A
C633   H667    1.081   .     S
C633   C635    1.401   .     A
C634   H668    1.081   .     S
C634   C636    1.400   .     A
C636   C167    1.522   1_556 S
C637   O675    1.282   .     A
C637   O677    1.281   .     A
C637   C639    1.398   .     S
C638   O676    1.283   .     A
C638   C640    1.397   .     S
C638   O678    1.280   .     A
C640   C483    1.321   1_655 S
C640   H498    1.086   1_655 S
C641   C651    1.403   .     A
C641   H655    1.083   .     S
C641   C643    1.384   .     A
C642   C644    1.379   .     A
C642   C652    1.405   .     A
C642   H656    1.083   .     S
C643   C645    1.396   .     A
C643   H657    1.082   .     S
C644   H658    1.083   .     S
C644   C646    1.390   .     A
C645   C647    1.399   .     A
C646   C648    1.395   .     A
C647   H659    1.084   .     S
C647   C649    1.377   .     A
C648   H660    1.084   .     S
C648   C650    1.382   .     A
C649   H661    1.083   .     S
C649   C651    1.399   .     A
C650   H662    1.083   .     S
C650   C652    1.402   .     A
C651   C886    1.451   1_545 S
C652   C885    1.451   .     S
H653   C483    1.086   1_655 S
N669   Zn680   2.020   .     S
N670   Zn679   2.020   .     S
O671   Zn679   1.998   .     S
O672   Zn680   1.998   .     S
O673   Zn680   1.989   .     S
O674   Zn679   1.989   .     S
O675   Zn679   1.976   .     S
O676   Zn680   1.976   .     S
O677   Zn680   1.971   .     S
O678   Zn679   1.971   .     S
C681   C686    1.404   .     A
C681   C682    1.402   .     A
C682   C683    1.399   .     A
C682   H687    1.082   .     S
C683   C684    1.398   .     A
C683   H532    1.082   1_655 S
C684   C685    1.397   .     A
C684   H689    1.082   .     S
C685   H690    1.082   .     S
C685   C686    1.398   .     A
C686   H691    1.083   .     S
C692   C693    1.401   .     A
C692   C697    1.403   .     A
C693   C694    1.398   .     A
C693   H698    1.079   .     S
C694   C695    1.397   .     A
C695   H700    1.082   .     S
C695   C696    1.398   .     A
C696   H701    1.082   .     S
C696   C697    1.400   .     A
C697   H702    1.083   .     S
H699   C538    1.083   1_655 S
C703   C723    1.439   .     S
C703   O749    1.297   .     A
C703   O751    1.287   .     A
C704   O752    1.287   .     A
C704   C724    1.421   .     S
C704   O750    1.288   .     A
C705   H741    1.080   .     S
C705   C707    1.411   .     A
C705   C713    1.418   .     A
C706   H742    1.080   .     S
C706   C714    1.417   .     A
C706   C708    1.412   .     A
C707   N747    1.363   .     A
C707   H743    1.082   .     S
C708   N748    1.363   .     A
C708   H744    1.082   .     S
C709   N747    1.378   .     A
C709   C711    1.406   .     A
C709   C759    1.472   .     S
C710   C770    1.472   .     S
C710   N748    1.378   .     A
C710   C712    1.406   .     A
C711   H745    1.081   .     S
C711   C713    1.401   .     A
C712   H746    1.081   .     S
C712   C714    1.400   .     A
C714   C245    1.522   1_556 S
C715   O753    1.282   .     A
C715   O755    1.281   .     A
C715   C717    1.398   .     S
C716   O754    1.283   .     A
C716   C718    1.397   .     S
C716   O756    1.280   .     A
C717   C874    1.321   1_455 S
C717   H887    1.086   1_455 S
C718   C795    1.321   .     S
C718   H810    1.086   .     S
C719   C729    1.403   .     A
C719   H733    1.083   .     S
C719   C721    1.384   .     A
C720   C722    1.379   .     A
C720   C730    1.405   .     A
C720   H734    1.083   .     S
C721   C723    1.396   .     A
C721   H735    1.082   .     S
C722   H736    1.083   .     S
C722   C724    1.390   .     A
C723   C725    1.399   .     A
C724   C726    1.395   .     A
C725   H737    1.084   .     S
C725   C727    1.377   .     A
C726   H738    1.084   .     S
C726   C728    1.382   .     A
C727   H739    1.083   .     S
C727   C729    1.399   .     A
C728   H740    1.083   .     S
C728   C730    1.402   .     A
C730   C495    1.451   1_565 S
H731   C795    1.086   .     S
H732   C874    1.086   1_455 S
N747   Zn758   2.020   .     S
N748   Zn757   2.020   .     S
O749   Zn757   1.998   .     S
O750   Zn758   1.998   .     S
O751   Zn758   1.989   .     S
O752   Zn757   1.989   .     S
O753   Zn757   1.976   .     S
O754   Zn758   1.976   .     S
O755   Zn758   1.971   .     S
O756   Zn757   1.971   .     S
C759   C764    1.404   .     A
C759   C760    1.402   .     A
C760   C761    1.399   .     A
C760   H765    1.082   .     S
C761   C762    1.398   .     A
C761   H844    1.082   .     S
C762   C763    1.397   .     A
C762   H767    1.082   .     S
C763   H768    1.082   .     S
C763   C764    1.398   .     A
C764   H769    1.083   .     S
H766   C917    1.082   1_455 S
C770   C771    1.401   .     A
C770   C775    1.403   .     A
C771   C772    1.398   .     A
C771   H776    1.079   .     S
C772   C773    1.397   .     A
C772   H933    1.083   1_455 S
C773   H778    1.082   .     S
C773   C774    1.398   .     A
C774   H779    1.082   .     S
C774   C775    1.400   .     A
C775   H780    1.083   .     S
H777   C850    1.083   .     S
C781   C801    1.439   .     S
C781   O827    1.297   .     A
C781   O829    1.287   .     A
C782   O830    1.287   .     A
C782   C802    1.421   .     S
C782   O828    1.288   .     A
C783   H819    1.080   .     S
C783   C785    1.411   .     A
C783   C791    1.418   .     A
C784   H820    1.080   .     S
C784   C792    1.417   .     A
C784   C786    1.412   .     A
C785   N825    1.363   .     A
C785   H821    1.082   .     S
C786   N826    1.363   .     A
C786   H822    1.082   .     S
C787   N825    1.378   .     A
C787   C789    1.406   .     A
C787   C837    1.472   .     S
C788   C848    1.472   .     S
C788   N826    1.378   .     A
C788   C790    1.406   .     A
C789   H823    1.081   .     S
C789   C791    1.401   .     A
C790   H824    1.081   .     S
C790   C792    1.400   .     A
C792   C323    1.522   1_556 S
C793   O831    1.282   .     A
C793   O833    1.281   .     A
C793   C795    1.398   .     S
C794   O832    1.283   .     A
C794   C796    1.397   .     S
C794   O834    1.280   .     A
C796   C873    1.321   .     S
C796   H888    1.086   .     S
C797   C807    1.403   .     A
C797   H811    1.083   .     S
C797   C799    1.384   .     A
C798   C800    1.379   .     A
C798   C808    1.405   .     A
C798   H812    1.083   .     S
C799   C801    1.396   .     A
C799   H813    1.082   .     S
C800   H814    1.083   .     S
C800   C802    1.390   .     A
C801   C803    1.399   .     A
C802   C804    1.395   .     A
C803   H815    1.084   .     S
C803   C805    1.377   .     A
C804   H816    1.084   .     S
C804   C806    1.382   .     A
C805   H817    1.083   .     S
C805   C807    1.399   .     A
C806   H818    1.083   .     S
C806   C808    1.402   .     A
C808   C573    1.451   1_565 S
H809   C873    1.086   .     S
N825   Zn836   2.020   .     S
N826   Zn835   2.020   .     S
O827   Zn835   1.998   .     S
O828   Zn836   1.998   .     S
O829   Zn836   1.989   .     S
O830   Zn835   1.989   .     S
O831   Zn835   1.976   .     S
O832   Zn836   1.976   .     S
O833   Zn836   1.971   .     S
O834   Zn835   1.971   .     S
C837   C842    1.404   .     A
C837   C838    1.402   .     A
C838   C839    1.399   .     A
C838   H843    1.082   .     S
C839   C840    1.398   .     A
C839   H922    1.082   .     S
C840   C841    1.397   .     A
C840   H845    1.082   .     S
C841   H846    1.082   .     S
C841   C842    1.398   .     A
C842   H847    1.083   .     S
C848   C849    1.401   .     A
C848   C853    1.403   .     A
C849   C850    1.398   .     A
C849   H854    1.079   .     S
C850   C851    1.397   .     A
C851   H856    1.082   .     S
C851   C852    1.398   .     A
C852   H857    1.082   .     S
C852   C853    1.400   .     A
C853   H858    1.083   .     S
H855   C928    1.083   .     S
C859   C879    1.439   .     S
C859   O905    1.297   .     A
C859   O907    1.287   .     A
C860   O908    1.287   .     A
C860   C880    1.421   .     S
C860   O906    1.288   .     A
C861   H897    1.080   .     S
C861   C863    1.411   .     A
C861   C869    1.418   .     A
C862   H898    1.080   .     S
C862   C870    1.417   .     A
C862   C864    1.412   .     A
C863   N903    1.363   .     A
C863   H899    1.082   .     S
C864   N904    1.363   .     A
C864   H900    1.082   .     S
C865   N903    1.378   .     A
C865   C867    1.406   .     A
C865   C915    1.472   .     S
C866   C926    1.472   .     S
C866   N904    1.378   .     A
C866   C868    1.406   .     A
C867   H901    1.081   .     S
C867   C869    1.401   .     A
C868   H902    1.081   .     S
C868   C870    1.400   .     A
C870   C401    1.522   1_556 S
C871   O909    1.282   .     A
C871   O911    1.281   .     A
C871   C873    1.398   .     S
C872   O910    1.283   .     A
C872   C874    1.397   .     S
C872   O912    1.280   .     A
C874   C717    1.321   1_655 S
C874   H732    1.086   1_655 S
C875   C885    1.403   .     A
C875   H889    1.083   .     S
C875   C877    1.384   .     A
C876   C878    1.379   .     A
C876   C886    1.405   .     A
C876   H890    1.083   .     S
C877   C879    1.396   .     A
C877   H891    1.082   .     S
C878   H892    1.083   .     S
C878   C880    1.390   .     A
C879   C881    1.399   .     A
C880   C882    1.395   .     A
C881   H893    1.084   .     S
C881   C883    1.377   .     A
C882   H894    1.084   .     S
C882   C884    1.382   .     A
C883   H895    1.083   .     S
C883   C885    1.399   .     A
C884   H896    1.083   .     S
C884   C886    1.402   .     A
C886   C651    1.451   1_565 S
H887   C717    1.086   1_655 S
N903   Zn914   2.020   .     S
N904   Zn913   2.020   .     S
O905   Zn913   1.998   .     S
O906   Zn914   1.998   .     S
O907   Zn914   1.989   .     S
O908   Zn913   1.989   .     S
O909   Zn913   1.976   .     S
O910   Zn914   1.976   .     S
O911   Zn914   1.971   .     S
O912   Zn913   1.971   .     S
C915   C920    1.404   .     A
C915   C916    1.402   .     A
C916   C917    1.399   .     A
C916   H921    1.082   .     S
C917   C918    1.398   .     A
C917   H766    1.082   1_655 S
C918   C919    1.397   .     A
C918   H923    1.082   .     S
C919   H924    1.082   .     S
C919   C920    1.398   .     A
C920   H925    1.083   .     S
C926   C927    1.401   .     A
C926   C931    1.403   .     A
C927   C928    1.398   .     A
C927   H932    1.079   .     S
C928   C929    1.397   .     A
C929   H934    1.082   .     S
C929   C930    1.398   .     A
C930   H935    1.082   .     S
C930   C931    1.400   .     A
C931   H936    1.083   .     S
H933   C772    1.083   1_655 S
