data_str_m3_o2_o10_pcu_sym.150
_audit_creation_date              2020-01-03
_audit_creation_method            'Materials Studio'
_symmetry_space_group_name_H-M    'P1'
_symmetry_Int_Tables_number       1
_symmetry_cell_setting            triclinic
loop_
_symmetry_equiv_pos_as_xyz
  x,y,z
_cell_length_a                    25.9380
_cell_length_b                    30.0197
_cell_length_c                    28.3275
_cell_angle_alpha                 89.9884
_cell_angle_beta                  98.2444
_cell_angle_gamma                 90.0294
loop_
_atom_site_label
_atom_site_type_symbol
_atom_site_fract_x
_atom_site_fract_y
_atom_site_fract_z
_atom_site_U_iso_or_equiv
_atom_site_adp_type
_atom_site_occupancy
C1     C     0.16668   0.16388   0.25000   0.00000  Uiso   1.00
C2     C     0.16673   0.33612   0.25000   0.00000  Uiso   1.00
C3     C     0.14306   0.21535   0.04951   0.00000  Uiso   1.00
C4     C     0.20807   0.26890   0.45282   0.00000  Uiso   1.00
C5     C     0.14335   0.21607   0.09919   0.00000  Uiso   1.00
C6     C     0.20720   0.26867   0.40306   0.00000  Uiso   1.00
C7     C     0.19003   0.28390   0.10532   0.00000  Uiso   1.00
C8     C     0.12614   0.23137   0.39246   0.00000  Uiso   1.00
C9     C     0.19037   0.28463   0.05573   0.00000  Uiso   1.00
C10    C     0.12529   0.23116   0.44198   0.00000  Uiso   1.00
C11    C     0.16671   0.25000   0.02669   0.00000  Uiso   1.00
C12    C     0.16669   0.25002   0.47333   0.00000  Uiso   1.00
C13    C     0.06720   0.24900   0.23781   0.00000  Uiso   1.00
C14    C     0.26613   0.25098   0.26220   0.00000  Uiso   1.00
C15    C     0.01269   0.24247   0.23244   0.00000  Uiso   1.00
C16    C     0.32065   0.25746   0.26760   0.00000  Uiso   1.00
C17    C     0.14873   0.04697   0.28717   0.00000  Uiso   1.00
C18    C     0.14941   0.45301   0.20790   0.00000  Uiso   1.00
C19    C     0.14875   0.09295   0.28729   0.00000  Uiso   1.00
C20    C     0.14947   0.40703   0.20781   0.00000  Uiso   1.00
C21    C     0.16688   0.11601   0.25001   0.00000  Uiso   1.00
C22    C     0.16701   0.38401   0.25001   0.00000  Uiso   1.00
C23    C     0.18528   0.09313   0.21278   0.00000  Uiso   1.00
C24    C     0.18488   0.40693   0.29218   0.00000  Uiso   1.00
C25    C     0.18584   0.04715   0.21297   0.00000  Uiso   1.00
C26    C     0.18540   0.45292   0.29211   0.00000  Uiso   1.00
C27    C     0.16741   0.02406   0.25008   0.00000  Uiso   1.00
C28    C     0.16747   0.47596   0.25002   0.00000  Uiso   1.00
H29    H     0.13370   0.02930   0.31564   0.00000  Uiso   1.00
H30    H     0.13480   0.47065   0.17535   0.00000  Uiso   1.00
H31    H     0.13399   0.11042   0.31603   0.00000  Uiso   1.00
H32    H     0.13519   0.38955   0.17508   0.00000  Uiso   1.00
H33    H     0.19982   0.11074   0.18400   0.00000  Uiso   1.00
H34    H     0.19903   0.38937   0.32490   0.00000  Uiso   1.00
H35    H     0.20102   0.02963   0.18450   0.00000  Uiso   1.00
H36    H     0.20012   0.47048   0.32468   0.00000  Uiso   1.00
H37    H     0.12502   0.18743   0.02936   0.00000  Uiso   1.00
H38    H     0.24141   0.28325   0.47496   0.00000  Uiso   1.00
H39    H     0.12499   0.18928   0.11616   0.00000  Uiso   1.00
H40    H     0.23918   0.28336   0.38787   0.00000  Uiso   1.00
H41    H     0.20840   0.31068   0.12712   0.00000  Uiso   1.00
H42    H     0.09413   0.21667   0.36892   0.00000  Uiso   1.00
H43    H     0.20843   0.31255   0.04033   0.00000  Uiso   1.00
H44    H     0.09196   0.21683   0.45539   0.00000  Uiso   1.00
N45    N     0.16667   0.24999   0.12624   0.00000  Uiso   1.00
N46    N     0.16667   0.25001   0.37377   0.00000  Uiso   1.00
O47    O     0.16667   0.18454   0.28974   0.00000  Uiso   1.00
O48    O     0.16666   0.31547   0.21026   0.00000  Uiso   1.00
O49    O     0.16667   0.18453   0.21026   0.00000  Uiso   1.00
O50    O     0.16666   0.31547   0.28974   0.00000  Uiso   1.00
O51    O     0.09058   0.25000   0.28045   0.00000  Uiso   1.00
O52    O     0.24275   0.25000   0.21956   0.00000  Uiso   1.00
O53    O     0.09058   0.25000   0.20097   0.00000  Uiso   1.00
O54    O     0.24275   0.25001   0.29904   0.00000  Uiso   1.00
Zn55   Zn    0.16667   0.25001   0.30307   0.00000  Uiso   1.00
Zn56   Zn    0.16667   0.25000   0.19693   0.00000  Uiso   1.00
O57    O     0.32126   0.21754   0.19443   0.00000  Uiso   1.00
H58    H     0.01393   0.20643   0.17482   0.00000  Uiso   1.00
O59    O     0.01209   0.28235   0.30565   0.00000  Uiso   1.00
H60    H     0.31943   0.29340   0.32531   0.00000  Uiso   1.00
C61    C     0.50002   0.16388   0.25000   0.00000  Uiso   1.00
C62    C     0.50006   0.33612   0.25000   0.00000  Uiso   1.00
C63    C     0.47639   0.21535   0.04951   0.00000  Uiso   1.00
C64    C     0.54141   0.26890   0.45282   0.00000  Uiso   1.00
C65    C     0.47669   0.21607   0.09919   0.00000  Uiso   1.00
C66    C     0.54053   0.26867   0.40306   0.00000  Uiso   1.00
C67    C     0.52337   0.28390   0.10532   0.00000  Uiso   1.00
C68    C     0.45947   0.23137   0.39246   0.00000  Uiso   1.00
C69    C     0.52370   0.28463   0.05573   0.00000  Uiso   1.00
C70    C     0.45862   0.23116   0.44198   0.00000  Uiso   1.00
C71    C     0.50004   0.25000   0.02669   0.00000  Uiso   1.00
C72    C     0.50002   0.25002   0.47333   0.00000  Uiso   1.00
C73    C     0.40054   0.24900   0.23781   0.00000  Uiso   1.00
C74    C     0.59947   0.25098   0.26220   0.00000  Uiso   1.00
C75    C     0.34603   0.24247   0.23244   0.00000  Uiso   1.00
C76    C     0.65398   0.25746   0.26760   0.00000  Uiso   1.00
C77    C     0.48206   0.04697   0.28717   0.00000  Uiso   1.00
C78    C     0.48275   0.45301   0.20790   0.00000  Uiso   1.00
C79    C     0.48208   0.09295   0.28729   0.00000  Uiso   1.00
C80    C     0.48281   0.40703   0.20781   0.00000  Uiso   1.00
C81    C     0.50021   0.11601   0.25001   0.00000  Uiso   1.00
C82    C     0.50034   0.38401   0.25001   0.00000  Uiso   1.00
C83    C     0.51861   0.09313   0.21278   0.00000  Uiso   1.00
C84    C     0.51822   0.40693   0.29218   0.00000  Uiso   1.00
C85    C     0.51917   0.04715   0.21297   0.00000  Uiso   1.00
C86    C     0.51873   0.45292   0.29211   0.00000  Uiso   1.00
C87    C     0.50074   0.02406   0.25008   0.00000  Uiso   1.00
C88    C     0.50081   0.47596   0.25002   0.00000  Uiso   1.00
H89    H     0.46703   0.02930   0.31564   0.00000  Uiso   1.00
H90    H     0.46814   0.47065   0.17535   0.00000  Uiso   1.00
H91    H     0.46732   0.11042   0.31603   0.00000  Uiso   1.00
H92    H     0.46852   0.38955   0.17508   0.00000  Uiso   1.00
H93    H     0.53316   0.11074   0.18400   0.00000  Uiso   1.00
H94    H     0.53236   0.38937   0.32490   0.00000  Uiso   1.00
H95    H     0.53435   0.02963   0.18450   0.00000  Uiso   1.00
H96    H     0.53345   0.47048   0.32468   0.00000  Uiso   1.00
H97    H     0.45835   0.18743   0.02936   0.00000  Uiso   1.00
H98    H     0.57474   0.28325   0.47496   0.00000  Uiso   1.00
H99    H     0.45832   0.18928   0.11616   0.00000  Uiso   1.00
H100   H     0.57252   0.28336   0.38787   0.00000  Uiso   1.00
H101   H     0.54174   0.31068   0.12712   0.00000  Uiso   1.00
H102   H     0.42746   0.21667   0.36892   0.00000  Uiso   1.00
H103   H     0.54176   0.31255   0.04033   0.00000  Uiso   1.00
H104   H     0.42529   0.21683   0.45539   0.00000  Uiso   1.00
N105   N     0.50000   0.24999   0.12624   0.00000  Uiso   1.00
N106   N     0.50000   0.25001   0.37377   0.00000  Uiso   1.00
O107   O     0.50000   0.18454   0.28974   0.00000  Uiso   1.00
O108   O     0.50000   0.31547   0.21026   0.00000  Uiso   1.00
O109   O     0.50000   0.18453   0.21026   0.00000  Uiso   1.00
O110   O     0.50000   0.31547   0.28974   0.00000  Uiso   1.00
O111   O     0.42392   0.25000   0.28045   0.00000  Uiso   1.00
O112   O     0.57608   0.25000   0.21956   0.00000  Uiso   1.00
O113   O     0.42392   0.25000   0.20097   0.00000  Uiso   1.00
O114   O     0.57608   0.25001   0.29904   0.00000  Uiso   1.00
Zn115  Zn    0.50000   0.25001   0.30307   0.00000  Uiso   1.00
Zn116  Zn    0.50000   0.25000   0.19693   0.00000  Uiso   1.00
O117   O     0.65459   0.21754   0.19443   0.00000  Uiso   1.00
H118   H     0.34727   0.20643   0.17482   0.00000  Uiso   1.00
O119   O     0.34542   0.28235   0.30565   0.00000  Uiso   1.00
H120   H     0.65277   0.29340   0.32531   0.00000  Uiso   1.00
C121   C     0.83335   0.16388   0.25000   0.00000  Uiso   1.00
C122   C     0.83340   0.33612   0.25000   0.00000  Uiso   1.00
C123   C     0.80973   0.21535   0.04951   0.00000  Uiso   1.00
C124   C     0.87474   0.26890   0.45282   0.00000  Uiso   1.00
C125   C     0.81002   0.21607   0.09919   0.00000  Uiso   1.00
C126   C     0.87386   0.26867   0.40306   0.00000  Uiso   1.00
C127   C     0.85670   0.28390   0.10532   0.00000  Uiso   1.00
C128   C     0.79280   0.23137   0.39246   0.00000  Uiso   1.00
C129   C     0.85703   0.28463   0.05573   0.00000  Uiso   1.00
C130   C     0.79195   0.23116   0.44198   0.00000  Uiso   1.00
C131   C     0.83338   0.25000   0.02669   0.00000  Uiso   1.00
C132   C     0.83336   0.25002   0.47333   0.00000  Uiso   1.00
C133   C     0.73387   0.24900   0.23781   0.00000  Uiso   1.00
C134   C     0.93280   0.25098   0.26220   0.00000  Uiso   1.00
C135   C     0.67936   0.24247   0.23244   0.00000  Uiso   1.00
C136   C     0.98732   0.25746   0.26760   0.00000  Uiso   1.00
C137   C     0.81540   0.04697   0.28717   0.00000  Uiso   1.00
C138   C     0.81608   0.45301   0.20790   0.00000  Uiso   1.00
C139   C     0.81542   0.09295   0.28729   0.00000  Uiso   1.00
C140   C     0.81614   0.40703   0.20781   0.00000  Uiso   1.00
C141   C     0.83354   0.11601   0.25001   0.00000  Uiso   1.00
C142   C     0.83368   0.38401   0.25001   0.00000  Uiso   1.00
C143   C     0.85194   0.09313   0.21278   0.00000  Uiso   1.00
C144   C     0.85155   0.40693   0.29218   0.00000  Uiso   1.00
C145   C     0.85251   0.04715   0.21297   0.00000  Uiso   1.00
C146   C     0.85206   0.45292   0.29211   0.00000  Uiso   1.00
C147   C     0.83408   0.02406   0.25008   0.00000  Uiso   1.00
C148   C     0.83414   0.47596   0.25002   0.00000  Uiso   1.00
H149   H     0.80036   0.02930   0.31564   0.00000  Uiso   1.00
H150   H     0.80147   0.47065   0.17535   0.00000  Uiso   1.00
H151   H     0.80066   0.11042   0.31603   0.00000  Uiso   1.00
H152   H     0.80185   0.38955   0.17508   0.00000  Uiso   1.00
H153   H     0.86649   0.11074   0.18400   0.00000  Uiso   1.00
H154   H     0.86569   0.38937   0.32490   0.00000  Uiso   1.00
H155   H     0.86768   0.02963   0.18450   0.00000  Uiso   1.00
H156   H     0.86679   0.47048   0.32468   0.00000  Uiso   1.00
H157   H     0.79169   0.18743   0.02936   0.00000  Uiso   1.00
H158   H     0.90807   0.28325   0.47496   0.00000  Uiso   1.00
H159   H     0.79165   0.18928   0.11616   0.00000  Uiso   1.00
H160   H     0.90585   0.28336   0.38787   0.00000  Uiso   1.00
H161   H     0.87507   0.31068   0.12712   0.00000  Uiso   1.00
H162   H     0.76079   0.21667   0.36892   0.00000  Uiso   1.00
H163   H     0.87509   0.31255   0.04033   0.00000  Uiso   1.00
H164   H     0.75862   0.21683   0.45539   0.00000  Uiso   1.00
N165   N     0.83333   0.24999   0.12624   0.00000  Uiso   1.00
N166   N     0.83333   0.25001   0.37377   0.00000  Uiso   1.00
O167   O     0.83334   0.18454   0.28974   0.00000  Uiso   1.00
O168   O     0.83333   0.31547   0.21026   0.00000  Uiso   1.00
O169   O     0.83334   0.18453   0.21026   0.00000  Uiso   1.00
O170   O     0.83333   0.31547   0.28974   0.00000  Uiso   1.00
O171   O     0.75725   0.25000   0.28045   0.00000  Uiso   1.00
O172   O     0.90942   0.25000   0.21956   0.00000  Uiso   1.00
O173   O     0.75725   0.25000   0.20097   0.00000  Uiso   1.00
O174   O     0.90942   0.25001   0.29904   0.00000  Uiso   1.00
Zn175  Zn    0.83333   0.25001   0.30307   0.00000  Uiso   1.00
Zn176  Zn    0.83333   0.25000   0.19693   0.00000  Uiso   1.00
O177   O     0.98793   0.21754   0.19443   0.00000  Uiso   1.00
H178   H     0.68060   0.20643   0.17482   0.00000  Uiso   1.00
O179   O     0.67876   0.28235   0.30565   0.00000  Uiso   1.00
H180   H     0.98610   0.29340   0.32531   0.00000  Uiso   1.00
C181   C     0.16668   0.66388   0.25000   0.00000  Uiso   1.00
C182   C     0.16673   0.83612   0.25000   0.00000  Uiso   1.00
C183   C     0.14306   0.71535   0.04951   0.00000  Uiso   1.00
C184   C     0.20807   0.76890   0.45282   0.00000  Uiso   1.00
C185   C     0.14335   0.71607   0.09919   0.00000  Uiso   1.00
C186   C     0.20720   0.76867   0.40306   0.00000  Uiso   1.00
C187   C     0.19003   0.78390   0.10532   0.00000  Uiso   1.00
C188   C     0.12614   0.73137   0.39246   0.00000  Uiso   1.00
C189   C     0.19037   0.78463   0.05573   0.00000  Uiso   1.00
C190   C     0.12529   0.73116   0.44198   0.00000  Uiso   1.00
C191   C     0.16671   0.75000   0.02669   0.00000  Uiso   1.00
C192   C     0.16669   0.75002   0.47333   0.00000  Uiso   1.00
C193   C     0.06720   0.74900   0.23781   0.00000  Uiso   1.00
C194   C     0.26613   0.75098   0.26220   0.00000  Uiso   1.00
C195   C     0.01269   0.74247   0.23244   0.00000  Uiso   1.00
C196   C     0.32065   0.75746   0.26760   0.00000  Uiso   1.00
C197   C     0.14873   0.54697   0.28717   0.00000  Uiso   1.00
C198   C     0.14941   0.95301   0.20790   0.00000  Uiso   1.00
C199   C     0.14875   0.59295   0.28729   0.00000  Uiso   1.00
C200   C     0.14947   0.90703   0.20781   0.00000  Uiso   1.00
C201   C     0.16688   0.61601   0.25001   0.00000  Uiso   1.00
C202   C     0.16701   0.88401   0.25001   0.00000  Uiso   1.00
C203   C     0.18528   0.59313   0.21278   0.00000  Uiso   1.00
C204   C     0.18488   0.90693   0.29218   0.00000  Uiso   1.00
C205   C     0.18584   0.54715   0.21297   0.00000  Uiso   1.00
C206   C     0.18540   0.95292   0.29211   0.00000  Uiso   1.00
C207   C     0.16741   0.52406   0.25008   0.00000  Uiso   1.00
C208   C     0.16747   0.97596   0.25002   0.00000  Uiso   1.00
H209   H     0.13370   0.52930   0.31564   0.00000  Uiso   1.00
H210   H     0.13480   0.97065   0.17535   0.00000  Uiso   1.00
H211   H     0.13399   0.61042   0.31603   0.00000  Uiso   1.00
H212   H     0.13519   0.88955   0.17508   0.00000  Uiso   1.00
H213   H     0.19982   0.61074   0.18400   0.00000  Uiso   1.00
H214   H     0.19903   0.88937   0.32490   0.00000  Uiso   1.00
H215   H     0.20102   0.52963   0.18450   0.00000  Uiso   1.00
H216   H     0.20012   0.97048   0.32468   0.00000  Uiso   1.00
H217   H     0.12502   0.68743   0.02936   0.00000  Uiso   1.00
H218   H     0.24141   0.78325   0.47496   0.00000  Uiso   1.00
H219   H     0.12499   0.68928   0.11616   0.00000  Uiso   1.00
H220   H     0.23918   0.78336   0.38787   0.00000  Uiso   1.00
H221   H     0.20840   0.81068   0.12712   0.00000  Uiso   1.00
H222   H     0.09413   0.71667   0.36892   0.00000  Uiso   1.00
H223   H     0.20843   0.81255   0.04033   0.00000  Uiso   1.00
H224   H     0.09196   0.71683   0.45539   0.00000  Uiso   1.00
N225   N     0.16667   0.74999   0.12624   0.00000  Uiso   1.00
N226   N     0.16667   0.75001   0.37377   0.00000  Uiso   1.00
O227   O     0.16667   0.68454   0.28974   0.00000  Uiso   1.00
O228   O     0.16666   0.81547   0.21026   0.00000  Uiso   1.00
O229   O     0.16667   0.68453   0.21026   0.00000  Uiso   1.00
O230   O     0.16666   0.81547   0.28974   0.00000  Uiso   1.00
O231   O     0.09058   0.75000   0.28045   0.00000  Uiso   1.00
O232   O     0.24275   0.75000   0.21956   0.00000  Uiso   1.00
O233   O     0.09058   0.75000   0.20097   0.00000  Uiso   1.00
O234   O     0.24275   0.75001   0.29904   0.00000  Uiso   1.00
Zn235  Zn    0.16667   0.75001   0.30307   0.00000  Uiso   1.00
Zn236  Zn    0.16667   0.75000   0.19693   0.00000  Uiso   1.00
O237   O     0.32126   0.71754   0.19443   0.00000  Uiso   1.00
H238   H     0.01393   0.70643   0.17482   0.00000  Uiso   1.00
O239   O     0.01209   0.78235   0.30565   0.00000  Uiso   1.00
H240   H     0.31943   0.79340   0.32531   0.00000  Uiso   1.00
C241   C     0.50002   0.66388   0.25000   0.00000  Uiso   1.00
C242   C     0.50006   0.83612   0.25000   0.00000  Uiso   1.00
C243   C     0.47639   0.71535   0.04951   0.00000  Uiso   1.00
C244   C     0.54141   0.76890   0.45282   0.00000  Uiso   1.00
C245   C     0.47669   0.71607   0.09919   0.00000  Uiso   1.00
C246   C     0.54053   0.76867   0.40306   0.00000  Uiso   1.00
C247   C     0.52337   0.78390   0.10532   0.00000  Uiso   1.00
C248   C     0.45947   0.73137   0.39246   0.00000  Uiso   1.00
C249   C     0.52370   0.78463   0.05573   0.00000  Uiso   1.00
C250   C     0.45862   0.73116   0.44198   0.00000  Uiso   1.00
C251   C     0.50004   0.75000   0.02669   0.00000  Uiso   1.00
C252   C     0.50002   0.75002   0.47333   0.00000  Uiso   1.00
C253   C     0.40054   0.74900   0.23781   0.00000  Uiso   1.00
C254   C     0.59947   0.75098   0.26220   0.00000  Uiso   1.00
C255   C     0.34603   0.74247   0.23244   0.00000  Uiso   1.00
C256   C     0.65398   0.75746   0.26760   0.00000  Uiso   1.00
C257   C     0.48206   0.54697   0.28717   0.00000  Uiso   1.00
C258   C     0.48275   0.95301   0.20790   0.00000  Uiso   1.00
C259   C     0.48208   0.59295   0.28729   0.00000  Uiso   1.00
C260   C     0.48281   0.90703   0.20781   0.00000  Uiso   1.00
C261   C     0.50021   0.61601   0.25001   0.00000  Uiso   1.00
C262   C     0.50034   0.88401   0.25001   0.00000  Uiso   1.00
C263   C     0.51861   0.59313   0.21278   0.00000  Uiso   1.00
C264   C     0.51822   0.90693   0.29218   0.00000  Uiso   1.00
C265   C     0.51917   0.54715   0.21297   0.00000  Uiso   1.00
C266   C     0.51873   0.95292   0.29211   0.00000  Uiso   1.00
C267   C     0.50074   0.52406   0.25008   0.00000  Uiso   1.00
C268   C     0.50081   0.97596   0.25002   0.00000  Uiso   1.00
H269   H     0.46703   0.52930   0.31564   0.00000  Uiso   1.00
H270   H     0.46814   0.97065   0.17535   0.00000  Uiso   1.00
H271   H     0.46732   0.61042   0.31603   0.00000  Uiso   1.00
H272   H     0.46852   0.88955   0.17508   0.00000  Uiso   1.00
H273   H     0.53316   0.61074   0.18400   0.00000  Uiso   1.00
H274   H     0.53236   0.88937   0.32490   0.00000  Uiso   1.00
H275   H     0.53435   0.52963   0.18450   0.00000  Uiso   1.00
H276   H     0.53345   0.97048   0.32468   0.00000  Uiso   1.00
H277   H     0.45835   0.68743   0.02936   0.00000  Uiso   1.00
H278   H     0.57474   0.78325   0.47496   0.00000  Uiso   1.00
H279   H     0.45832   0.68928   0.11616   0.00000  Uiso   1.00
H280   H     0.57252   0.78336   0.38787   0.00000  Uiso   1.00
H281   H     0.54174   0.81068   0.12712   0.00000  Uiso   1.00
H282   H     0.42746   0.71667   0.36892   0.00000  Uiso   1.00
H283   H     0.54176   0.81255   0.04033   0.00000  Uiso   1.00
H284   H     0.42529   0.71683   0.45539   0.00000  Uiso   1.00
N285   N     0.50000   0.74999   0.12624   0.00000  Uiso   1.00
N286   N     0.50000   0.75001   0.37377   0.00000  Uiso   1.00
O287   O     0.50000   0.68454   0.28974   0.00000  Uiso   1.00
O288   O     0.50000   0.81547   0.21026   0.00000  Uiso   1.00
O289   O     0.50000   0.68453   0.21026   0.00000  Uiso   1.00
O290   O     0.50000   0.81547   0.28974   0.00000  Uiso   1.00
O291   O     0.42392   0.75000   0.28045   0.00000  Uiso   1.00
O292   O     0.57608   0.75000   0.21956   0.00000  Uiso   1.00
O293   O     0.42392   0.75000   0.20097   0.00000  Uiso   1.00
O294   O     0.57608   0.75001   0.29904   0.00000  Uiso   1.00
Zn295  Zn    0.50000   0.75001   0.30307   0.00000  Uiso   1.00
Zn296  Zn    0.50000   0.75000   0.19693   0.00000  Uiso   1.00
O297   O     0.65459   0.71754   0.19443   0.00000  Uiso   1.00
H298   H     0.34727   0.70643   0.17482   0.00000  Uiso   1.00
O299   O     0.34542   0.78235   0.30565   0.00000  Uiso   1.00
H300   H     0.65277   0.79340   0.32531   0.00000  Uiso   1.00
C301   C     0.83335   0.66388   0.25000   0.00000  Uiso   1.00
C302   C     0.83340   0.83612   0.25000   0.00000  Uiso   1.00
C303   C     0.80973   0.71535   0.04951   0.00000  Uiso   1.00
C304   C     0.87474   0.76890   0.45282   0.00000  Uiso   1.00
C305   C     0.81002   0.71607   0.09919   0.00000  Uiso   1.00
C306   C     0.87386   0.76867   0.40306   0.00000  Uiso   1.00
C307   C     0.85670   0.78390   0.10532   0.00000  Uiso   1.00
C308   C     0.79280   0.73137   0.39246   0.00000  Uiso   1.00
C309   C     0.85703   0.78463   0.05573   0.00000  Uiso   1.00
C310   C     0.79195   0.73116   0.44198   0.00000  Uiso   1.00
C311   C     0.83338   0.75000   0.02669   0.00000  Uiso   1.00
C312   C     0.83336   0.75002   0.47333   0.00000  Uiso   1.00
C313   C     0.73387   0.74900   0.23781   0.00000  Uiso   1.00
C314   C     0.93280   0.75098   0.26220   0.00000  Uiso   1.00
C315   C     0.67936   0.74247   0.23244   0.00000  Uiso   1.00
C316   C     0.98732   0.75746   0.26760   0.00000  Uiso   1.00
C317   C     0.81540   0.54697   0.28717   0.00000  Uiso   1.00
C318   C     0.81608   0.95301   0.20790   0.00000  Uiso   1.00
C319   C     0.81542   0.59295   0.28729   0.00000  Uiso   1.00
C320   C     0.81614   0.90703   0.20781   0.00000  Uiso   1.00
C321   C     0.83354   0.61601   0.25001   0.00000  Uiso   1.00
C322   C     0.83368   0.88401   0.25001   0.00000  Uiso   1.00
C323   C     0.85194   0.59313   0.21278   0.00000  Uiso   1.00
C324   C     0.85155   0.90693   0.29218   0.00000  Uiso   1.00
C325   C     0.85251   0.54715   0.21297   0.00000  Uiso   1.00
C326   C     0.85206   0.95292   0.29211   0.00000  Uiso   1.00
C327   C     0.83408   0.52406   0.25008   0.00000  Uiso   1.00
C328   C     0.83414   0.97596   0.25002   0.00000  Uiso   1.00
H329   H     0.80036   0.52930   0.31564   0.00000  Uiso   1.00
H330   H     0.80147   0.97065   0.17535   0.00000  Uiso   1.00
H331   H     0.80066   0.61042   0.31603   0.00000  Uiso   1.00
H332   H     0.80185   0.88955   0.17508   0.00000  Uiso   1.00
H333   H     0.86649   0.61074   0.18400   0.00000  Uiso   1.00
H334   H     0.86569   0.88937   0.32490   0.00000  Uiso   1.00
H335   H     0.86768   0.52963   0.18450   0.00000  Uiso   1.00
H336   H     0.86679   0.97048   0.32468   0.00000  Uiso   1.00
H337   H     0.79169   0.68743   0.02936   0.00000  Uiso   1.00
H338   H     0.90807   0.78325   0.47496   0.00000  Uiso   1.00
H339   H     0.79165   0.68928   0.11616   0.00000  Uiso   1.00
H340   H     0.90585   0.78336   0.38787   0.00000  Uiso   1.00
H341   H     0.87507   0.81068   0.12712   0.00000  Uiso   1.00
H342   H     0.76079   0.71667   0.36892   0.00000  Uiso   1.00
H343   H     0.87509   0.81255   0.04033   0.00000  Uiso   1.00
H344   H     0.75862   0.71683   0.45539   0.00000  Uiso   1.00
N345   N     0.83333   0.74999   0.12624   0.00000  Uiso   1.00
N346   N     0.83333   0.75001   0.37377   0.00000  Uiso   1.00
O347   O     0.83334   0.68454   0.28974   0.00000  Uiso   1.00
O348   O     0.83333   0.81547   0.21026   0.00000  Uiso   1.00
O349   O     0.83334   0.68453   0.21026   0.00000  Uiso   1.00
O350   O     0.83333   0.81547   0.28974   0.00000  Uiso   1.00
O351   O     0.75725   0.75000   0.28045   0.00000  Uiso   1.00
O352   O     0.90942   0.75000   0.21956   0.00000  Uiso   1.00
O353   O     0.75725   0.75000   0.20097   0.00000  Uiso   1.00
O354   O     0.90942   0.75001   0.29904   0.00000  Uiso   1.00
Zn355  Zn    0.83333   0.75001   0.30307   0.00000  Uiso   1.00
Zn356  Zn    0.83333   0.75000   0.19693   0.00000  Uiso   1.00
O357   O     0.98793   0.71754   0.19443   0.00000  Uiso   1.00
H358   H     0.68060   0.70643   0.17482   0.00000  Uiso   1.00
O359   O     0.67876   0.78235   0.30565   0.00000  Uiso   1.00
H360   H     0.98610   0.79340   0.32531   0.00000  Uiso   1.00
C361   C     0.16668   0.16388   0.75000   0.00000  Uiso   1.00
C362   C     0.16673   0.33612   0.75000   0.00000  Uiso   1.00
C363   C     0.14306   0.21535   0.54951   0.00000  Uiso   1.00
C364   C     0.20807   0.26890   0.95282   0.00000  Uiso   1.00
C365   C     0.14335   0.21607   0.59919   0.00000  Uiso   1.00
C366   C     0.20720   0.26867   0.90306   0.00000  Uiso   1.00
C367   C     0.19003   0.28390   0.60532   0.00000  Uiso   1.00
C368   C     0.12614   0.23137   0.89246   0.00000  Uiso   1.00
C369   C     0.19037   0.28463   0.55573   0.00000  Uiso   1.00
C370   C     0.12529   0.23116   0.94198   0.00000  Uiso   1.00
C371   C     0.16671   0.25000   0.52669   0.00000  Uiso   1.00
C372   C     0.16669   0.25002   0.97333   0.00000  Uiso   1.00
C373   C     0.06720   0.24900   0.73781   0.00000  Uiso   1.00
C374   C     0.26613   0.25098   0.76220   0.00000  Uiso   1.00
C375   C     0.01269   0.24247   0.73244   0.00000  Uiso   1.00
C376   C     0.32065   0.25746   0.76760   0.00000  Uiso   1.00
C377   C     0.14873   0.04697   0.78717   0.00000  Uiso   1.00
C378   C     0.14941   0.45301   0.70790   0.00000  Uiso   1.00
C379   C     0.14875   0.09295   0.78729   0.00000  Uiso   1.00
C380   C     0.14947   0.40703   0.70781   0.00000  Uiso   1.00
C381   C     0.16688   0.11601   0.75001   0.00000  Uiso   1.00
C382   C     0.16701   0.38401   0.75001   0.00000  Uiso   1.00
C383   C     0.18528   0.09313   0.71278   0.00000  Uiso   1.00
C384   C     0.18488   0.40693   0.79218   0.00000  Uiso   1.00
C385   C     0.18584   0.04715   0.71297   0.00000  Uiso   1.00
C386   C     0.18540   0.45292   0.79211   0.00000  Uiso   1.00
C387   C     0.16741   0.02406   0.75008   0.00000  Uiso   1.00
C388   C     0.16747   0.47596   0.75002   0.00000  Uiso   1.00
H389   H     0.13370   0.02930   0.81564   0.00000  Uiso   1.00
H390   H     0.13480   0.47065   0.67535   0.00000  Uiso   1.00
H391   H     0.13399   0.11042   0.81603   0.00000  Uiso   1.00
H392   H     0.13519   0.38955   0.67508   0.00000  Uiso   1.00
H393   H     0.19982   0.11074   0.68400   0.00000  Uiso   1.00
H394   H     0.19903   0.38937   0.82490   0.00000  Uiso   1.00
H395   H     0.20102   0.02963   0.68450   0.00000  Uiso   1.00
H396   H     0.20012   0.47048   0.82468   0.00000  Uiso   1.00
H397   H     0.12502   0.18743   0.52936   0.00000  Uiso   1.00
H398   H     0.24141   0.28325   0.97496   0.00000  Uiso   1.00
H399   H     0.12499   0.18928   0.61616   0.00000  Uiso   1.00
H400   H     0.23918   0.28336   0.88787   0.00000  Uiso   1.00
H401   H     0.20840   0.31068   0.62712   0.00000  Uiso   1.00
H402   H     0.09413   0.21667   0.86892   0.00000  Uiso   1.00
H403   H     0.20843   0.31255   0.54033   0.00000  Uiso   1.00
H404   H     0.09196   0.21683   0.95539   0.00000  Uiso   1.00
N405   N     0.16667   0.24999   0.62624   0.00000  Uiso   1.00
N406   N     0.16667   0.25001   0.87377   0.00000  Uiso   1.00
O407   O     0.16667   0.18454   0.78974   0.00000  Uiso   1.00
O408   O     0.16666   0.31547   0.71026   0.00000  Uiso   1.00
O409   O     0.16667   0.18453   0.71026   0.00000  Uiso   1.00
O410   O     0.16666   0.31547   0.78974   0.00000  Uiso   1.00
O411   O     0.09058   0.25000   0.78045   0.00000  Uiso   1.00
O412   O     0.24275   0.25000   0.71956   0.00000  Uiso   1.00
O413   O     0.09058   0.25000   0.70097   0.00000  Uiso   1.00
O414   O     0.24275   0.25001   0.79904   0.00000  Uiso   1.00
Zn415  Zn    0.16667   0.25001   0.80307   0.00000  Uiso   1.00
Zn416  Zn    0.16667   0.25000   0.69693   0.00000  Uiso   1.00
O417   O     0.32126   0.21754   0.69443   0.00000  Uiso   1.00
H418   H     0.01393   0.20643   0.67482   0.00000  Uiso   1.00
O419   O     0.01209   0.28235   0.80565   0.00000  Uiso   1.00
H420   H     0.31943   0.29340   0.82531   0.00000  Uiso   1.00
C421   C     0.50002   0.16388   0.75000   0.00000  Uiso   1.00
C422   C     0.50006   0.33612   0.75000   0.00000  Uiso   1.00
C423   C     0.47639   0.21535   0.54951   0.00000  Uiso   1.00
C424   C     0.54141   0.26890   0.95282   0.00000  Uiso   1.00
C425   C     0.47669   0.21607   0.59919   0.00000  Uiso   1.00
C426   C     0.54053   0.26867   0.90306   0.00000  Uiso   1.00
C427   C     0.52337   0.28390   0.60532   0.00000  Uiso   1.00
C428   C     0.45947   0.23137   0.89246   0.00000  Uiso   1.00
C429   C     0.52370   0.28463   0.55573   0.00000  Uiso   1.00
C430   C     0.45862   0.23116   0.94198   0.00000  Uiso   1.00
C431   C     0.50004   0.25000   0.52669   0.00000  Uiso   1.00
C432   C     0.50002   0.25002   0.97333   0.00000  Uiso   1.00
C433   C     0.40054   0.24900   0.73781   0.00000  Uiso   1.00
C434   C     0.59947   0.25098   0.76220   0.00000  Uiso   1.00
C435   C     0.34603   0.24247   0.73244   0.00000  Uiso   1.00
C436   C     0.65398   0.25746   0.76760   0.00000  Uiso   1.00
C437   C     0.48206   0.04697   0.78717   0.00000  Uiso   1.00
C438   C     0.48275   0.45301   0.70790   0.00000  Uiso   1.00
C439   C     0.48208   0.09295   0.78729   0.00000  Uiso   1.00
C440   C     0.48281   0.40703   0.70781   0.00000  Uiso   1.00
C441   C     0.50021   0.11601   0.75001   0.00000  Uiso   1.00
C442   C     0.50034   0.38401   0.75001   0.00000  Uiso   1.00
C443   C     0.51861   0.09313   0.71278   0.00000  Uiso   1.00
C444   C     0.51822   0.40693   0.79218   0.00000  Uiso   1.00
C445   C     0.51917   0.04715   0.71297   0.00000  Uiso   1.00
C446   C     0.51873   0.45292   0.79211   0.00000  Uiso   1.00
C447   C     0.50074   0.02406   0.75008   0.00000  Uiso   1.00
C448   C     0.50081   0.47596   0.75002   0.00000  Uiso   1.00
H449   H     0.46703   0.02930   0.81564   0.00000  Uiso   1.00
H450   H     0.46814   0.47065   0.67535   0.00000  Uiso   1.00
H451   H     0.46732   0.11042   0.81603   0.00000  Uiso   1.00
H452   H     0.46852   0.38955   0.67508   0.00000  Uiso   1.00
H453   H     0.53316   0.11074   0.68400   0.00000  Uiso   1.00
H454   H     0.53236   0.38937   0.82490   0.00000  Uiso   1.00
H455   H     0.53435   0.02963   0.68450   0.00000  Uiso   1.00
H456   H     0.53345   0.47048   0.82468   0.00000  Uiso   1.00
H457   H     0.45835   0.18743   0.52936   0.00000  Uiso   1.00
H458   H     0.57474   0.28325   0.97496   0.00000  Uiso   1.00
H459   H     0.45832   0.18928   0.61616   0.00000  Uiso   1.00
H460   H     0.57252   0.28336   0.88787   0.00000  Uiso   1.00
H461   H     0.54174   0.31068   0.62712   0.00000  Uiso   1.00
H462   H     0.42746   0.21667   0.86892   0.00000  Uiso   1.00
H463   H     0.54176   0.31255   0.54033   0.00000  Uiso   1.00
H464   H     0.42529   0.21683   0.95539   0.00000  Uiso   1.00
N465   N     0.50000   0.24999   0.62624   0.00000  Uiso   1.00
N466   N     0.50000   0.25001   0.87377   0.00000  Uiso   1.00
O467   O     0.50000   0.18454   0.78974   0.00000  Uiso   1.00
O468   O     0.50000   0.31547   0.71026   0.00000  Uiso   1.00
O469   O     0.50000   0.18453   0.71026   0.00000  Uiso   1.00
O470   O     0.50000   0.31547   0.78974   0.00000  Uiso   1.00
O471   O     0.42392   0.25000   0.78045   0.00000  Uiso   1.00
O472   O     0.57608   0.25000   0.71956   0.00000  Uiso   1.00
O473   O     0.42392   0.25000   0.70097   0.00000  Uiso   1.00
O474   O     0.57608   0.25001   0.79904   0.00000  Uiso   1.00
Zn475  Zn    0.50000   0.25001   0.80307   0.00000  Uiso   1.00
Zn476  Zn    0.50000   0.25000   0.69693   0.00000  Uiso   1.00
O477   O     0.65459   0.21754   0.69443   0.00000  Uiso   1.00
H478   H     0.34727   0.20643   0.67482   0.00000  Uiso   1.00
O479   O     0.34542   0.28235   0.80565   0.00000  Uiso   1.00
H480   H     0.65277   0.29340   0.82531   0.00000  Uiso   1.00
C481   C     0.83335   0.16388   0.75000   0.00000  Uiso   1.00
C482   C     0.83340   0.33612   0.75000   0.00000  Uiso   1.00
C483   C     0.80973   0.21535   0.54951   0.00000  Uiso   1.00
C484   C     0.87474   0.26890   0.95282   0.00000  Uiso   1.00
C485   C     0.81002   0.21607   0.59919   0.00000  Uiso   1.00
C486   C     0.87386   0.26867   0.90306   0.00000  Uiso   1.00
C487   C     0.85670   0.28390   0.60532   0.00000  Uiso   1.00
C488   C     0.79280   0.23137   0.89246   0.00000  Uiso   1.00
C489   C     0.85703   0.28463   0.55573   0.00000  Uiso   1.00
C490   C     0.79195   0.23116   0.94198   0.00000  Uiso   1.00
C491   C     0.83338   0.25000   0.52669   0.00000  Uiso   1.00
C492   C     0.83336   0.25002   0.97333   0.00000  Uiso   1.00
C493   C     0.73387   0.24900   0.73781   0.00000  Uiso   1.00
C494   C     0.93280   0.25098   0.76220   0.00000  Uiso   1.00
C495   C     0.67936   0.24247   0.73244   0.00000  Uiso   1.00
C496   C     0.98732   0.25746   0.76760   0.00000  Uiso   1.00
C497   C     0.81540   0.04697   0.78717   0.00000  Uiso   1.00
C498   C     0.81608   0.45301   0.70790   0.00000  Uiso   1.00
C499   C     0.81542   0.09295   0.78729   0.00000  Uiso   1.00
C500   C     0.81614   0.40703   0.70781   0.00000  Uiso   1.00
C501   C     0.83354   0.11601   0.75001   0.00000  Uiso   1.00
C502   C     0.83368   0.38401   0.75001   0.00000  Uiso   1.00
C503   C     0.85194   0.09313   0.71278   0.00000  Uiso   1.00
C504   C     0.85155   0.40693   0.79218   0.00000  Uiso   1.00
C505   C     0.85251   0.04715   0.71297   0.00000  Uiso   1.00
C506   C     0.85206   0.45292   0.79211   0.00000  Uiso   1.00
C507   C     0.83408   0.02406   0.75008   0.00000  Uiso   1.00
C508   C     0.83414   0.47596   0.75002   0.00000  Uiso   1.00
H509   H     0.80036   0.02930   0.81564   0.00000  Uiso   1.00
H510   H     0.80147   0.47065   0.67535   0.00000  Uiso   1.00
H511   H     0.80066   0.11042   0.81603   0.00000  Uiso   1.00
H512   H     0.80185   0.38955   0.67508   0.00000  Uiso   1.00
H513   H     0.86649   0.11074   0.68400   0.00000  Uiso   1.00
H514   H     0.86569   0.38937   0.82490   0.00000  Uiso   1.00
H515   H     0.86768   0.02963   0.68450   0.00000  Uiso   1.00
H516   H     0.86679   0.47048   0.82468   0.00000  Uiso   1.00
H517   H     0.79169   0.18743   0.52936   0.00000  Uiso   1.00
H518   H     0.90807   0.28325   0.97496   0.00000  Uiso   1.00
H519   H     0.79165   0.18928   0.61616   0.00000  Uiso   1.00
H520   H     0.90585   0.28336   0.88787   0.00000  Uiso   1.00
H521   H     0.87507   0.31068   0.62712   0.00000  Uiso   1.00
H522   H     0.76079   0.21667   0.86892   0.00000  Uiso   1.00
H523   H     0.87509   0.31255   0.54033   0.00000  Uiso   1.00
H524   H     0.75862   0.21683   0.95539   0.00000  Uiso   1.00
N525   N     0.83333   0.24999   0.62624   0.00000  Uiso   1.00
N526   N     0.83333   0.25001   0.87377   0.00000  Uiso   1.00
O527   O     0.83334   0.18454   0.78974   0.00000  Uiso   1.00
O528   O     0.83333   0.31547   0.71026   0.00000  Uiso   1.00
O529   O     0.83334   0.18453   0.71026   0.00000  Uiso   1.00
O530   O     0.83333   0.31547   0.78974   0.00000  Uiso   1.00
O531   O     0.75725   0.25000   0.78045   0.00000  Uiso   1.00
O532   O     0.90942   0.25000   0.71956   0.00000  Uiso   1.00
O533   O     0.75725   0.25000   0.70097   0.00000  Uiso   1.00
O534   O     0.90942   0.25001   0.79904   0.00000  Uiso   1.00
Zn535  Zn    0.83333   0.25001   0.80307   0.00000  Uiso   1.00
Zn536  Zn    0.83333   0.25000   0.69693   0.00000  Uiso   1.00
O537   O     0.98793   0.21754   0.69443   0.00000  Uiso   1.00
H538   H     0.68060   0.20643   0.67482   0.00000  Uiso   1.00
O539   O     0.67876   0.28235   0.80565   0.00000  Uiso   1.00
H540   H     0.98610   0.29340   0.82531   0.00000  Uiso   1.00
C541   C     0.16668   0.66388   0.75000   0.00000  Uiso   1.00
C542   C     0.16673   0.83612   0.75000   0.00000  Uiso   1.00
C543   C     0.14306   0.71535   0.54951   0.00000  Uiso   1.00
C544   C     0.20807   0.76890   0.95282   0.00000  Uiso   1.00
C545   C     0.14335   0.71607   0.59919   0.00000  Uiso   1.00
C546   C     0.20720   0.76867   0.90306   0.00000  Uiso   1.00
C547   C     0.19003   0.78390   0.60532   0.00000  Uiso   1.00
C548   C     0.12614   0.73137   0.89246   0.00000  Uiso   1.00
C549   C     0.19037   0.78463   0.55573   0.00000  Uiso   1.00
C550   C     0.12529   0.73116   0.94198   0.00000  Uiso   1.00
C551   C     0.16671   0.75000   0.52669   0.00000  Uiso   1.00
C552   C     0.16669   0.75002   0.97333   0.00000  Uiso   1.00
C553   C     0.06720   0.74900   0.73781   0.00000  Uiso   1.00
C554   C     0.26613   0.75098   0.76220   0.00000  Uiso   1.00
C555   C     0.01269   0.74247   0.73244   0.00000  Uiso   1.00
C556   C     0.32065   0.75746   0.76760   0.00000  Uiso   1.00
C557   C     0.14873   0.54697   0.78717   0.00000  Uiso   1.00
C558   C     0.14941   0.95301   0.70790   0.00000  Uiso   1.00
C559   C     0.14875   0.59295   0.78729   0.00000  Uiso   1.00
C560   C     0.14947   0.90703   0.70781   0.00000  Uiso   1.00
C561   C     0.16688   0.61601   0.75001   0.00000  Uiso   1.00
C562   C     0.16701   0.88401   0.75001   0.00000  Uiso   1.00
C563   C     0.18528   0.59313   0.71278   0.00000  Uiso   1.00
C564   C     0.18488   0.90693   0.79218   0.00000  Uiso   1.00
C565   C     0.18584   0.54715   0.71297   0.00000  Uiso   1.00
C566   C     0.18540   0.95292   0.79211   0.00000  Uiso   1.00
C567   C     0.16741   0.52406   0.75008   0.00000  Uiso   1.00
C568   C     0.16747   0.97596   0.75002   0.00000  Uiso   1.00
H569   H     0.13370   0.52930   0.81564   0.00000  Uiso   1.00
H570   H     0.13480   0.97065   0.67535   0.00000  Uiso   1.00
H571   H     0.13399   0.61042   0.81603   0.00000  Uiso   1.00
H572   H     0.13519   0.88955   0.67508   0.00000  Uiso   1.00
H573   H     0.19982   0.61074   0.68400   0.00000  Uiso   1.00
H574   H     0.19903   0.88937   0.82490   0.00000  Uiso   1.00
H575   H     0.20102   0.52963   0.68450   0.00000  Uiso   1.00
H576   H     0.20012   0.97048   0.82468   0.00000  Uiso   1.00
H577   H     0.12502   0.68743   0.52936   0.00000  Uiso   1.00
H578   H     0.24141   0.78325   0.97496   0.00000  Uiso   1.00
H579   H     0.12499   0.68928   0.61616   0.00000  Uiso   1.00
H580   H     0.23918   0.78336   0.88787   0.00000  Uiso   1.00
H581   H     0.20840   0.81068   0.62712   0.00000  Uiso   1.00
H582   H     0.09413   0.71667   0.86892   0.00000  Uiso   1.00
H583   H     0.20843   0.81255   0.54033   0.00000  Uiso   1.00
H584   H     0.09196   0.71683   0.95539   0.00000  Uiso   1.00
N585   N     0.16667   0.74999   0.62624   0.00000  Uiso   1.00
N586   N     0.16667   0.75001   0.87377   0.00000  Uiso   1.00
O587   O     0.16667   0.68454   0.78974   0.00000  Uiso   1.00
O588   O     0.16666   0.81547   0.71026   0.00000  Uiso   1.00
O589   O     0.16667   0.68453   0.71026   0.00000  Uiso   1.00
O590   O     0.16666   0.81547   0.78974   0.00000  Uiso   1.00
O591   O     0.09058   0.75000   0.78045   0.00000  Uiso   1.00
O592   O     0.24275   0.75000   0.71956   0.00000  Uiso   1.00
O593   O     0.09058   0.75000   0.70097   0.00000  Uiso   1.00
O594   O     0.24275   0.75001   0.79904   0.00000  Uiso   1.00
Zn595  Zn    0.16667   0.75001   0.80307   0.00000  Uiso   1.00
Zn596  Zn    0.16667   0.75000   0.69693   0.00000  Uiso   1.00
O597   O     0.32126   0.71754   0.69443   0.00000  Uiso   1.00
H598   H     0.01393   0.70643   0.67482   0.00000  Uiso   1.00
O599   O     0.01209   0.78235   0.80565   0.00000  Uiso   1.00
H600   H     0.31943   0.79340   0.82531   0.00000  Uiso   1.00
C601   C     0.50002   0.66388   0.75000   0.00000  Uiso   1.00
C602   C     0.50006   0.83612   0.75000   0.00000  Uiso   1.00
C603   C     0.47639   0.71535   0.54951   0.00000  Uiso   1.00
C604   C     0.54141   0.76890   0.95282   0.00000  Uiso   1.00
C605   C     0.47669   0.71607   0.59919   0.00000  Uiso   1.00
C606   C     0.54053   0.76867   0.90306   0.00000  Uiso   1.00
C607   C     0.52337   0.78390   0.60532   0.00000  Uiso   1.00
C608   C     0.45947   0.73137   0.89246   0.00000  Uiso   1.00
C609   C     0.52370   0.78463   0.55573   0.00000  Uiso   1.00
C610   C     0.45862   0.73116   0.94198   0.00000  Uiso   1.00
C611   C     0.50004   0.75000   0.52669   0.00000  Uiso   1.00
C612   C     0.50002   0.75002   0.97333   0.00000  Uiso   1.00
C613   C     0.40054   0.74900   0.73781   0.00000  Uiso   1.00
C614   C     0.59947   0.75098   0.76220   0.00000  Uiso   1.00
C615   C     0.34603   0.74247   0.73244   0.00000  Uiso   1.00
C616   C     0.65398   0.75746   0.76760   0.00000  Uiso   1.00
C617   C     0.48206   0.54697   0.78717   0.00000  Uiso   1.00
C618   C     0.48275   0.95301   0.70790   0.00000  Uiso   1.00
C619   C     0.48208   0.59295   0.78729   0.00000  Uiso   1.00
C620   C     0.48281   0.90703   0.70781   0.00000  Uiso   1.00
C621   C     0.50021   0.61601   0.75001   0.00000  Uiso   1.00
C622   C     0.50034   0.88401   0.75001   0.00000  Uiso   1.00
C623   C     0.51861   0.59313   0.71278   0.00000  Uiso   1.00
C624   C     0.51822   0.90693   0.79218   0.00000  Uiso   1.00
C625   C     0.51917   0.54715   0.71297   0.00000  Uiso   1.00
C626   C     0.51873   0.95292   0.79211   0.00000  Uiso   1.00
C627   C     0.50074   0.52406   0.75008   0.00000  Uiso   1.00
C628   C     0.50081   0.97596   0.75002   0.00000  Uiso   1.00
H629   H     0.46703   0.52930   0.81564   0.00000  Uiso   1.00
H630   H     0.46814   0.97065   0.67535   0.00000  Uiso   1.00
H631   H     0.46732   0.61042   0.81603   0.00000  Uiso   1.00
H632   H     0.46852   0.88955   0.67508   0.00000  Uiso   1.00
H633   H     0.53316   0.61074   0.68400   0.00000  Uiso   1.00
H634   H     0.53236   0.88937   0.82490   0.00000  Uiso   1.00
H635   H     0.53435   0.52963   0.68450   0.00000  Uiso   1.00
H636   H     0.53345   0.97048   0.82468   0.00000  Uiso   1.00
H637   H     0.45835   0.68743   0.52936   0.00000  Uiso   1.00
H638   H     0.57474   0.78325   0.97496   0.00000  Uiso   1.00
H639   H     0.45832   0.68928   0.61616   0.00000  Uiso   1.00
H640   H     0.57252   0.78336   0.88787   0.00000  Uiso   1.00
H641   H     0.54174   0.81068   0.62712   0.00000  Uiso   1.00
H642   H     0.42746   0.71667   0.86892   0.00000  Uiso   1.00
H643   H     0.54176   0.81255   0.54033   0.00000  Uiso   1.00
H644   H     0.42529   0.71683   0.95539   0.00000  Uiso   1.00
N645   N     0.50000   0.74999   0.62624   0.00000  Uiso   1.00
N646   N     0.50000   0.75001   0.87377   0.00000  Uiso   1.00
O647   O     0.50000   0.68454   0.78974   0.00000  Uiso   1.00
O648   O     0.50000   0.81547   0.71026   0.00000  Uiso   1.00
O649   O     0.50000   0.68453   0.71026   0.00000  Uiso   1.00
O650   O     0.50000   0.81547   0.78974   0.00000  Uiso   1.00
O651   O     0.42392   0.75000   0.78045   0.00000  Uiso   1.00
O652   O     0.57608   0.75000   0.71956   0.00000  Uiso   1.00
O653   O     0.42392   0.75000   0.70097   0.00000  Uiso   1.00
O654   O     0.57608   0.75001   0.79904   0.00000  Uiso   1.00
Zn655  Zn    0.50000   0.75001   0.80307   0.00000  Uiso   1.00
Zn656  Zn    0.50000   0.75000   0.69693   0.00000  Uiso   1.00
O657   O     0.65459   0.71754   0.69443   0.00000  Uiso   1.00
H658   H     0.34727   0.70643   0.67482   0.00000  Uiso   1.00
O659   O     0.34542   0.78235   0.80565   0.00000  Uiso   1.00
H660   H     0.65277   0.79340   0.82531   0.00000  Uiso   1.00
C661   C     0.83335   0.66388   0.75000   0.00000  Uiso   1.00
C662   C     0.83340   0.83612   0.75000   0.00000  Uiso   1.00
C663   C     0.80973   0.71535   0.54951   0.00000  Uiso   1.00
C664   C     0.87474   0.76890   0.95282   0.00000  Uiso   1.00
C665   C     0.81002   0.71607   0.59919   0.00000  Uiso   1.00
C666   C     0.87386   0.76867   0.90306   0.00000  Uiso   1.00
C667   C     0.85670   0.78390   0.60532   0.00000  Uiso   1.00
C668   C     0.79280   0.73137   0.89246   0.00000  Uiso   1.00
C669   C     0.85703   0.78463   0.55573   0.00000  Uiso   1.00
C670   C     0.79195   0.73116   0.94198   0.00000  Uiso   1.00
C671   C     0.83338   0.75000   0.52669   0.00000  Uiso   1.00
C672   C     0.83336   0.75002   0.97333   0.00000  Uiso   1.00
C673   C     0.73387   0.74900   0.73781   0.00000  Uiso   1.00
C674   C     0.93280   0.75098   0.76220   0.00000  Uiso   1.00
C675   C     0.67936   0.74247   0.73244   0.00000  Uiso   1.00
C676   C     0.98732   0.75746   0.76760   0.00000  Uiso   1.00
C677   C     0.81540   0.54697   0.78717   0.00000  Uiso   1.00
C678   C     0.81608   0.95301   0.70790   0.00000  Uiso   1.00
C679   C     0.81542   0.59295   0.78729   0.00000  Uiso   1.00
C680   C     0.81614   0.90703   0.70781   0.00000  Uiso   1.00
C681   C     0.83354   0.61601   0.75001   0.00000  Uiso   1.00
C682   C     0.83368   0.88401   0.75001   0.00000  Uiso   1.00
C683   C     0.85194   0.59313   0.71278   0.00000  Uiso   1.00
C684   C     0.85155   0.90693   0.79218   0.00000  Uiso   1.00
C685   C     0.85251   0.54715   0.71297   0.00000  Uiso   1.00
C686   C     0.85206   0.95292   0.79211   0.00000  Uiso   1.00
C687   C     0.83408   0.52406   0.75008   0.00000  Uiso   1.00
C688   C     0.83414   0.97596   0.75002   0.00000  Uiso   1.00
H689   H     0.80036   0.52930   0.81564   0.00000  Uiso   1.00
H690   H     0.80147   0.97065   0.67535   0.00000  Uiso   1.00
H691   H     0.80066   0.61042   0.81603   0.00000  Uiso   1.00
H692   H     0.80185   0.88955   0.67508   0.00000  Uiso   1.00
H693   H     0.86649   0.61074   0.68400   0.00000  Uiso   1.00
H694   H     0.86569   0.88937   0.82490   0.00000  Uiso   1.00
H695   H     0.86768   0.52963   0.68450   0.00000  Uiso   1.00
H696   H     0.86679   0.97048   0.82468   0.00000  Uiso   1.00
H697   H     0.79169   0.68743   0.52936   0.00000  Uiso   1.00
H698   H     0.90807   0.78325   0.97496   0.00000  Uiso   1.00
H699   H     0.79165   0.68928   0.61616   0.00000  Uiso   1.00
H700   H     0.90585   0.78336   0.88787   0.00000  Uiso   1.00
H701   H     0.87507   0.81068   0.62712   0.00000  Uiso   1.00
H702   H     0.76079   0.71667   0.86892   0.00000  Uiso   1.00
H703   H     0.87509   0.81255   0.54033   0.00000  Uiso   1.00
H704   H     0.75862   0.71683   0.95539   0.00000  Uiso   1.00
N705   N     0.83333   0.74999   0.62624   0.00000  Uiso   1.00
N706   N     0.83333   0.75001   0.87377   0.00000  Uiso   1.00
O707   O     0.83334   0.68454   0.78974   0.00000  Uiso   1.00
O708   O     0.83333   0.81547   0.71026   0.00000  Uiso   1.00
O709   O     0.83334   0.68453   0.71026   0.00000  Uiso   1.00
O710   O     0.83333   0.81547   0.78974   0.00000  Uiso   1.00
O711   O     0.75725   0.75000   0.78045   0.00000  Uiso   1.00
O712   O     0.90942   0.75000   0.71956   0.00000  Uiso   1.00
O713   O     0.75725   0.75000   0.70097   0.00000  Uiso   1.00
O714   O     0.90942   0.75001   0.79904   0.00000  Uiso   1.00
Zn715  Zn    0.83333   0.75001   0.80307   0.00000  Uiso   1.00
Zn716  Zn    0.83333   0.75000   0.69693   0.00000  Uiso   1.00
O717   O     0.98793   0.71754   0.69443   0.00000  Uiso   1.00
H718   H     0.68060   0.70643   0.67482   0.00000  Uiso   1.00
O719   O     0.67876   0.78235   0.80565   0.00000  Uiso   1.00
H720   H     0.98610   0.79340   0.82531   0.00000  Uiso   1.00
loop_
_geom_bond_atom_site_label_1
_geom_bond_atom_site_label_2
_geom_bond_distance
_geom_bond_site_symmetry_2
_ccdc_geom_bond_type
C1     C21     1.437   .     S
C1     O47     1.285   .     A
C1     O49     1.285   .     A
C2     C22     1.438   .     S
C2     O50     1.285   .     A
C2     O48     1.285   .     A
C3     C5      1.406   .     A
C3     C11     1.410   .     A
C3     H37     1.082   .     S
C4     C6      1.406   .     A
C4     C12     1.410   .     A
C4     H38     1.082   .     S
C5     H39     1.082   .     S
C5     N45     1.363   .     A
C6     N46     1.363   .     A
C6     H40     1.082   .     S
C7     N45     1.363   .     A
C7     C9      1.406   .     A
C7     H41     1.082   .     S
C8     H42     1.082   .     S
C8     N46     1.363   .     A
C8     C10     1.406   .     A
C9     C11     1.410   .     A
C9     H43     1.082   .     S
C10    C12     1.410   .     A
C10    H44     1.082   .     S
C11    C372    1.512   1_554 S
C12    C371    1.512   .     S
C13    C15     1.414   .     S
C13    O53     1.280   .     A
C13    O51     1.272   .     A
C14    O52     1.272   .     A
C14    O54     1.280   .     A
C14    C16     1.414   .     S
C15    C136    1.348   1_455 S
C15    O177    1.391   1_455 S
C16    C75     1.348   .     S
C16    O119    1.391   .     S
C17    H29     1.083   .     S
C17    C27     1.399   .     A
C17    C19     1.381   .     A
C18    H30     1.083   .     S
C18    C28     1.399   .     A
C18    C20     1.380   .     A
C19    H31     1.084   .     S
C19    C21     1.399   .     A
C20    H32     1.084   .     S
C20    C22     1.399   .     A
C21    C23     1.399   .     A
C22    C24     1.399   .     A
C23    C25     1.380   .     A
C23    H33     1.084   .     S
C24    C26     1.381   .     A
C24    H34     1.084   .     S
C25    C27     1.399   .     A
C25    H35     1.083   .     S
C26    C28     1.399   .     A
C26    H36     1.083   .     S
C27    C208    1.444   1_545 S
C28    C207    1.444   .     S
N45    Zn56    2.003   .     S
N46    Zn55    2.003   .     S
O47    Zn55    2.001   .     S
O48    Zn56    2.001   .     S
O49    Zn56    2.001   .     S
O50    Zn55    2.001   .     S
O51    Zn55    1.986   .     S
O52    Zn56    1.986   .     S
O53    Zn56    1.993   .     S
O54    Zn55    1.993   .     S
O57    C75     1.391   .     S
O57    H118    0.991   .     S
H58    O177    0.991   1_455 S
O59    C136    1.391   1_455 S
O59    H180    0.991   1_455 S
H60    O119    0.991   .     S
C61    C81     1.437   .     S
C61    O107    1.285   .     A
C61    O109    1.285   .     A
C62    C82     1.438   .     S
C62    O110    1.285   .     A
C62    O108    1.285   .     A
C63    C65     1.406   .     A
C63    C71     1.410   .     A
C63    H97     1.082   .     S
C64    C66     1.406   .     A
C64    C72     1.410   .     A
C64    H98     1.082   .     S
C65    H99     1.082   .     S
C65    N105    1.363   .     A
C66    N106    1.363   .     A
C66    H100    1.082   .     S
C67    N105    1.363   .     A
C67    C69     1.406   .     A
C67    H101    1.082   .     S
C68    H102    1.082   .     S
C68    N106    1.363   .     A
C68    C70     1.406   .     A
C69    C71     1.410   .     A
C69    H103    1.082   .     S
C70    C72     1.410   .     A
C70    H104    1.082   .     S
C71    C432    1.512   1_554 S
C72    C431    1.512   .     S
C73    C75     1.414   .     S
C73    O113    1.280   .     A
C73    O111    1.272   .     A
C74    O112    1.272   .     A
C74    O114    1.280   .     A
C74    C76     1.414   .     S
C76    C135    1.348   .     S
C76    O179    1.391   .     S
C77    H89     1.083   .     S
C77    C87     1.399   .     A
C77    C79     1.381   .     A
C78    H90     1.083   .     S
C78    C88     1.399   .     A
C78    C80     1.380   .     A
C79    H91     1.084   .     S
C79    C81     1.399   .     A
C80    H92     1.084   .     S
C80    C82     1.399   .     A
C81    C83     1.399   .     A
C82    C84     1.399   .     A
C83    C85     1.380   .     A
C83    H93     1.084   .     S
C84    C86     1.381   .     A
C84    H94     1.084   .     S
C85    C87     1.399   .     A
C85    H95     1.083   .     S
C86    C88     1.399   .     A
C86    H96     1.083   .     S
C87    C268    1.444   1_545 S
C88    C267    1.444   .     S
N105   Zn116   2.003   .     S
N106   Zn115   2.003   .     S
O107   Zn115   2.001   .     S
O108   Zn116   2.001   .     S
O109   Zn116   2.001   .     S
O110   Zn115   2.001   .     S
O111   Zn115   1.986   .     S
O112   Zn116   1.986   .     S
O113   Zn116   1.993   .     S
O114   Zn115   1.993   .     S
O117   C135    1.391   .     S
O117   H178    0.991   .     S
H120   O179    0.991   .     S
C121   C141    1.437   .     S
C121   O167    1.285   .     A
C121   O169    1.285   .     A
C122   C142    1.438   .     S
C122   O170    1.285   .     A
C122   O168    1.285   .     A
C123   C125    1.406   .     A
C123   C131    1.410   .     A
C123   H157    1.082   .     S
C124   C126    1.406   .     A
C124   C132    1.410   .     A
C124   H158    1.082   .     S
C125   H159    1.082   .     S
C125   N165    1.363   .     A
C126   N166    1.363   .     A
C126   H160    1.082   .     S
C127   N165    1.363   .     A
C127   C129    1.406   .     A
C127   H161    1.082   .     S
C128   H162    1.082   .     S
C128   N166    1.363   .     A
C128   C130    1.406   .     A
C129   C131    1.410   .     A
C129   H163    1.082   .     S
C130   C132    1.410   .     A
C130   H164    1.082   .     S
C131   C492    1.512   1_554 S
C132   C491    1.512   .     S
C133   C135    1.414   .     S
C133   O173    1.280   .     A
C133   O171    1.272   .     A
C134   O172    1.272   .     A
C134   O174    1.280   .     A
C134   C136    1.414   .     S
C136   C15     1.348   1_655 S
C136   O59     1.391   1_655 S
C137   H149    1.083   .     S
C137   C147    1.399   .     A
C137   C139    1.381   .     A
C138   H150    1.083   .     S
C138   C148    1.399   .     A
C138   C140    1.380   .     A
C139   H151    1.084   .     S
C139   C141    1.399   .     A
C140   H152    1.084   .     S
C140   C142    1.399   .     A
C141   C143    1.399   .     A
C142   C144    1.399   .     A
C143   C145    1.380   .     A
C143   H153    1.084   .     S
C144   C146    1.381   .     A
C144   H154    1.084   .     S
C145   C147    1.399   .     A
C145   H155    1.083   .     S
C146   C148    1.399   .     A
C146   H156    1.083   .     S
C147   C328    1.444   1_545 S
C148   C327    1.444   .     S
N165   Zn176   2.003   .     S
N166   Zn175   2.003   .     S
O167   Zn175   2.001   .     S
O168   Zn176   2.001   .     S
O169   Zn176   2.001   .     S
O170   Zn175   2.001   .     S
O171   Zn175   1.986   .     S
O172   Zn176   1.986   .     S
O173   Zn176   1.993   .     S
O174   Zn175   1.993   .     S
O177   C15     1.391   1_655 S
O177   H58     0.991   1_655 S
H180   O59     0.991   1_655 S
C181   C201    1.437   .     S
C181   O227    1.285   .     A
C181   O229    1.285   .     A
C182   C202    1.438   .     S
C182   O230    1.285   .     A
C182   O228    1.285   .     A
C183   C185    1.406   .     A
C183   C191    1.410   .     A
C183   H217    1.082   .     S
C184   C186    1.406   .     A
C184   C192    1.410   .     A
C184   H218    1.082   .     S
C185   H219    1.082   .     S
C185   N225    1.363   .     A
C186   N226    1.363   .     A
C186   H220    1.082   .     S
C187   N225    1.363   .     A
C187   C189    1.406   .     A
C187   H221    1.082   .     S
C188   H222    1.082   .     S
C188   N226    1.363   .     A
C188   C190    1.406   .     A
C189   C191    1.410   .     A
C189   H223    1.082   .     S
C190   C192    1.410   .     A
C190   H224    1.082   .     S
C191   C552    1.512   1_554 S
C192   C551    1.512   .     S
C193   C195    1.414   .     S
C193   O233    1.280   .     A
C193   O231    1.272   .     A
C194   O232    1.272   .     A
C194   O234    1.280   .     A
C194   C196    1.414   .     S
C195   C316    1.348   1_455 S
C195   O357    1.391   1_455 S
C196   C255    1.348   .     S
C196   O299    1.391   .     S
C197   H209    1.083   .     S
C197   C207    1.399   .     A
C197   C199    1.381   .     A
C198   H210    1.083   .     S
C198   C208    1.399   .     A
C198   C200    1.380   .     A
C199   H211    1.084   .     S
C199   C201    1.399   .     A
C200   H212    1.084   .     S
C200   C202    1.399   .     A
C201   C203    1.399   .     A
C202   C204    1.399   .     A
C203   C205    1.380   .     A
C203   H213    1.084   .     S
C204   C206    1.381   .     A
C204   H214    1.084   .     S
C205   C207    1.399   .     A
C205   H215    1.083   .     S
C206   C208    1.399   .     A
C206   H216    1.083   .     S
C208   C27     1.444   1_565 S
N225   Zn236   2.003   .     S
N226   Zn235   2.003   .     S
O227   Zn235   2.001   .     S
O228   Zn236   2.001   .     S
O229   Zn236   2.001   .     S
O230   Zn235   2.001   .     S
O231   Zn235   1.986   .     S
O232   Zn236   1.986   .     S
O233   Zn236   1.993   .     S
O234   Zn235   1.993   .     S
O237   C255    1.391   .     S
O237   H298    0.991   .     S
H238   O357    0.991   1_455 S
O239   C316    1.391   1_455 S
O239   H360    0.991   1_455 S
H240   O299    0.991   .     S
C241   C261    1.437   .     S
C241   O287    1.285   .     A
C241   O289    1.285   .     A
C242   C262    1.438   .     S
C242   O290    1.285   .     A
C242   O288    1.285   .     A
C243   C245    1.406   .     A
C243   C251    1.410   .     A
C243   H277    1.082   .     S
C244   C246    1.406   .     A
C244   C252    1.410   .     A
C244   H278    1.082   .     S
C245   H279    1.082   .     S
C245   N285    1.363   .     A
C246   N286    1.363   .     A
C246   H280    1.082   .     S
C247   N285    1.363   .     A
C247   C249    1.406   .     A
C247   H281    1.082   .     S
C248   H282    1.082   .     S
C248   N286    1.363   .     A
C248   C250    1.406   .     A
C249   C251    1.410   .     A
C249   H283    1.082   .     S
C250   C252    1.410   .     A
C250   H284    1.082   .     S
C251   C612    1.512   1_554 S
C252   C611    1.512   .     S
C253   C255    1.414   .     S
C253   O293    1.280   .     A
C253   O291    1.272   .     A
C254   O292    1.272   .     A
C254   O294    1.280   .     A
C254   C256    1.414   .     S
C256   C315    1.348   .     S
C256   O359    1.391   .     S
C257   H269    1.083   .     S
C257   C267    1.399   .     A
C257   C259    1.381   .     A
C258   H270    1.083   .     S
C258   C268    1.399   .     A
C258   C260    1.380   .     A
C259   H271    1.084   .     S
C259   C261    1.399   .     A
C260   H272    1.084   .     S
C260   C262    1.399   .     A
C261   C263    1.399   .     A
C262   C264    1.399   .     A
C263   C265    1.380   .     A
C263   H273    1.084   .     S
C264   C266    1.381   .     A
C264   H274    1.084   .     S
C265   C267    1.399   .     A
C265   H275    1.083   .     S
C266   C268    1.399   .     A
C266   H276    1.083   .     S
C268   C87     1.444   1_565 S
N285   Zn296   2.003   .     S
N286   Zn295   2.003   .     S
O287   Zn295   2.001   .     S
O288   Zn296   2.001   .     S
O289   Zn296   2.001   .     S
O290   Zn295   2.001   .     S
O291   Zn295   1.986   .     S
O292   Zn296   1.986   .     S
O293   Zn296   1.993   .     S
O294   Zn295   1.993   .     S
O297   C315    1.391   .     S
O297   H358    0.991   .     S
H300   O359    0.991   .     S
C301   C321    1.437   .     S
C301   O347    1.285   .     A
C301   O349    1.285   .     A
C302   C322    1.438   .     S
C302   O350    1.285   .     A
C302   O348    1.285   .     A
C303   C305    1.406   .     A
C303   C311    1.410   .     A
C303   H337    1.082   .     S
C304   C306    1.406   .     A
C304   C312    1.410   .     A
C304   H338    1.082   .     S
C305   H339    1.082   .     S
C305   N345    1.363   .     A
C306   N346    1.363   .     A
C306   H340    1.082   .     S
C307   N345    1.363   .     A
C307   C309    1.406   .     A
C307   H341    1.082   .     S
C308   H342    1.082   .     S
C308   N346    1.363   .     A
C308   C310    1.406   .     A
C309   C311    1.410   .     A
C309   H343    1.082   .     S
C310   C312    1.410   .     A
C310   H344    1.082   .     S
C311   C672    1.512   1_554 S
C312   C671    1.512   .     S
C313   C315    1.414   .     S
C313   O353    1.280   .     A
C313   O351    1.272   .     A
C314   O352    1.272   .     A
C314   O354    1.280   .     A
C314   C316    1.414   .     S
C316   C195    1.348   1_655 S
C316   O239    1.391   1_655 S
C317   H329    1.083   .     S
C317   C327    1.399   .     A
C317   C319    1.381   .     A
C318   H330    1.083   .     S
C318   C328    1.399   .     A
C318   C320    1.380   .     A
C319   H331    1.084   .     S
C319   C321    1.399   .     A
C320   H332    1.084   .     S
C320   C322    1.399   .     A
C321   C323    1.399   .     A
C322   C324    1.399   .     A
C323   C325    1.380   .     A
C323   H333    1.084   .     S
C324   C326    1.381   .     A
C324   H334    1.084   .     S
C325   C327    1.399   .     A
C325   H335    1.083   .     S
C326   C328    1.399   .     A
C326   H336    1.083   .     S
C328   C147    1.444   1_565 S
N345   Zn356   2.003   .     S
N346   Zn355   2.003   .     S
O347   Zn355   2.001   .     S
O348   Zn356   2.001   .     S
O349   Zn356   2.001   .     S
O350   Zn355   2.001   .     S
O351   Zn355   1.986   .     S
O352   Zn356   1.986   .     S
O353   Zn356   1.993   .     S
O354   Zn355   1.993   .     S
O357   C195    1.391   1_655 S
O357   H238    0.991   1_655 S
H360   O239    0.991   1_655 S
C361   C381    1.437   .     S
C361   O407    1.285   .     A
C361   O409    1.285   .     A
C362   C382    1.438   .     S
C362   O410    1.285   .     A
C362   O408    1.285   .     A
C363   C365    1.406   .     A
C363   C371    1.410   .     A
C363   H397    1.082   .     S
C364   C366    1.406   .     A
C364   C372    1.410   .     A
C364   H398    1.082   .     S
C365   H399    1.082   .     S
C365   N405    1.363   .     A
C366   N406    1.363   .     A
C366   H400    1.082   .     S
C367   N405    1.363   .     A
C367   C369    1.406   .     A
C367   H401    1.082   .     S
C368   H402    1.082   .     S
C368   N406    1.363   .     A
C368   C370    1.406   .     A
C369   C371    1.410   .     A
C369   H403    1.082   .     S
C370   C372    1.410   .     A
C370   H404    1.082   .     S
C372   C11     1.512   1_556 S
C373   C375    1.414   .     S
C373   O413    1.280   .     A
C373   O411    1.272   .     A
C374   O412    1.272   .     A
C374   O414    1.280   .     A
C374   C376    1.414   .     S
C375   C496    1.348   1_455 S
C375   O537    1.391   1_455 S
C376   C435    1.348   .     S
C376   O479    1.391   .     S
C377   H389    1.083   .     S
C377   C387    1.399   .     A
C377   C379    1.381   .     A
C378   H390    1.083   .     S
C378   C388    1.399   .     A
C378   C380    1.380   .     A
C379   H391    1.084   .     S
C379   C381    1.399   .     A
C380   H392    1.084   .     S
C380   C382    1.399   .     A
C381   C383    1.399   .     A
C382   C384    1.399   .     A
C383   C385    1.380   .     A
C383   H393    1.084   .     S
C384   C386    1.381   .     A
C384   H394    1.084   .     S
C385   C387    1.399   .     A
C385   H395    1.083   .     S
C386   C388    1.399   .     A
C386   H396    1.083   .     S
C387   C568    1.444   1_545 S
C388   C567    1.444   .     S
N405   Zn416   2.003   .     S
N406   Zn415   2.003   .     S
O407   Zn415   2.001   .     S
O408   Zn416   2.001   .     S
O409   Zn416   2.001   .     S
O410   Zn415   2.001   .     S
O411   Zn415   1.986   .     S
O412   Zn416   1.986   .     S
O413   Zn416   1.993   .     S
O414   Zn415   1.993   .     S
O417   C435    1.391   .     S
O417   H478    0.991   .     S
H418   O537    0.991   1_455 S
O419   C496    1.391   1_455 S
O419   H540    0.991   1_455 S
H420   O479    0.991   .     S
C421   C441    1.437   .     S
C421   O467    1.285   .     A
C421   O469    1.285   .     A
C422   C442    1.438   .     S
C422   O470    1.285   .     A
C422   O468    1.285   .     A
C423   C425    1.406   .     A
C423   C431    1.410   .     A
C423   H457    1.082   .     S
C424   C426    1.406   .     A
C424   C432    1.410   .     A
C424   H458    1.082   .     S
C425   H459    1.082   .     S
C425   N465    1.363   .     A
C426   N466    1.363   .     A
C426   H460    1.082   .     S
C427   N465    1.363   .     A
C427   C429    1.406   .     A
C427   H461    1.082   .     S
C428   H462    1.082   .     S
C428   N466    1.363   .     A
C428   C430    1.406   .     A
C429   C431    1.410   .     A
C429   H463    1.082   .     S
C430   C432    1.410   .     A
C430   H464    1.082   .     S
C432   C71     1.512   1_556 S
C433   C435    1.414   .     S
C433   O473    1.280   .     A
C433   O471    1.272   .     A
C434   O472    1.272   .     A
C434   O474    1.280   .     A
C434   C436    1.414   .     S
C436   C495    1.348   .     S
C436   O539    1.391   .     S
C437   H449    1.083   .     S
C437   C447    1.399   .     A
C437   C439    1.381   .     A
C438   H450    1.083   .     S
C438   C448    1.399   .     A
C438   C440    1.380   .     A
C439   H451    1.084   .     S
C439   C441    1.399   .     A
C440   H452    1.084   .     S
C440   C442    1.399   .     A
C441   C443    1.399   .     A
C442   C444    1.399   .     A
C443   C445    1.380   .     A
C443   H453    1.084   .     S
C444   C446    1.381   .     A
C444   H454    1.084   .     S
C445   C447    1.399   .     A
C445   H455    1.083   .     S
C446   C448    1.399   .     A
C446   H456    1.083   .     S
C447   C628    1.444   1_545 S
C448   C627    1.444   .     S
N465   Zn476   2.003   .     S
N466   Zn475   2.003   .     S
O467   Zn475   2.001   .     S
O468   Zn476   2.001   .     S
O469   Zn476   2.001   .     S
O470   Zn475   2.001   .     S
O471   Zn475   1.986   .     S
O472   Zn476   1.986   .     S
O473   Zn476   1.993   .     S
O474   Zn475   1.993   .     S
O477   C495    1.391   .     S
O477   H538    0.991   .     S
H480   O539    0.991   .     S
C481   C501    1.437   .     S
C481   O527    1.285   .     A
C481   O529    1.285   .     A
C482   C502    1.438   .     S
C482   O530    1.285   .     A
C482   O528    1.285   .     A
C483   C485    1.406   .     A
C483   C491    1.410   .     A
C483   H517    1.082   .     S
C484   C486    1.406   .     A
C484   C492    1.410   .     A
C484   H518    1.082   .     S
C485   H519    1.082   .     S
C485   N525    1.363   .     A
C486   N526    1.363   .     A
C486   H520    1.082   .     S
C487   N525    1.363   .     A
C487   C489    1.406   .     A
C487   H521    1.082   .     S
C488   H522    1.082   .     S
C488   N526    1.363   .     A
C488   C490    1.406   .     A
C489   C491    1.410   .     A
C489   H523    1.082   .     S
C490   C492    1.410   .     A
C490   H524    1.082   .     S
C492   C131    1.512   1_556 S
C493   C495    1.414   .     S
C493   O533    1.280   .     A
C493   O531    1.272   .     A
C494   O532    1.272   .     A
C494   O534    1.280   .     A
C494   C496    1.414   .     S
C496   C375    1.348   1_655 S
C496   O419    1.391   1_655 S
C497   H509    1.083   .     S
C497   C507    1.399   .     A
C497   C499    1.381   .     A
C498   H510    1.083   .     S
C498   C508    1.399   .     A
C498   C500    1.380   .     A
C499   H511    1.084   .     S
C499   C501    1.399   .     A
C500   H512    1.084   .     S
C500   C502    1.399   .     A
C501   C503    1.399   .     A
C502   C504    1.399   .     A
C503   C505    1.380   .     A
C503   H513    1.084   .     S
C504   C506    1.381   .     A
C504   H514    1.084   .     S
C505   C507    1.399   .     A
C505   H515    1.083   .     S
C506   C508    1.399   .     A
C506   H516    1.083   .     S
C507   C688    1.444   1_545 S
C508   C687    1.444   .     S
N525   Zn536   2.003   .     S
N526   Zn535   2.003   .     S
O527   Zn535   2.001   .     S
O528   Zn536   2.001   .     S
O529   Zn536   2.001   .     S
O530   Zn535   2.001   .     S
O531   Zn535   1.986   .     S
O532   Zn536   1.986   .     S
O533   Zn536   1.993   .     S
O534   Zn535   1.993   .     S
O537   C375    1.391   1_655 S
O537   H418    0.991   1_655 S
H540   O419    0.991   1_655 S
C541   C561    1.437   .     S
C541   O587    1.285   .     A
C541   O589    1.285   .     A
C542   C562    1.438   .     S
C542   O590    1.285   .     A
C542   O588    1.285   .     A
C543   C545    1.406   .     A
C543   C551    1.410   .     A
C543   H577    1.082   .     S
C544   C546    1.406   .     A
C544   C552    1.410   .     A
C544   H578    1.082   .     S
C545   H579    1.082   .     S
C545   N585    1.363   .     A
C546   N586    1.363   .     A
C546   H580    1.082   .     S
C547   N585    1.363   .     A
C547   C549    1.406   .     A
C547   H581    1.082   .     S
C548   H582    1.082   .     S
C548   N586    1.363   .     A
C548   C550    1.406   .     A
C549   C551    1.410   .     A
C549   H583    1.082   .     S
C550   C552    1.410   .     A
C550   H584    1.082   .     S
C552   C191    1.512   1_556 S
C553   C555    1.414   .     S
C553   O593    1.280   .     A
C553   O591    1.272   .     A
C554   O592    1.272   .     A
C554   O594    1.280   .     A
C554   C556    1.414   .     S
C555   C676    1.348   1_455 S
C555   O717    1.391   1_455 S
C556   C615    1.348   .     S
C556   O659    1.391   .     S
C557   H569    1.083   .     S
C557   C567    1.399   .     A
C557   C559    1.381   .     A
C558   H570    1.083   .     S
C558   C568    1.399   .     A
C558   C560    1.380   .     A
C559   H571    1.084   .     S
C559   C561    1.399   .     A
C560   H572    1.084   .     S
C560   C562    1.399   .     A
C561   C563    1.399   .     A
C562   C564    1.399   .     A
C563   C565    1.380   .     A
C563   H573    1.084   .     S
C564   C566    1.381   .     A
C564   H574    1.084   .     S
C565   C567    1.399   .     A
C565   H575    1.083   .     S
C566   C568    1.399   .     A
C566   H576    1.083   .     S
C568   C387    1.444   1_565 S
N585   Zn596   2.003   .     S
N586   Zn595   2.003   .     S
O587   Zn595   2.001   .     S
O588   Zn596   2.001   .     S
O589   Zn596   2.001   .     S
O590   Zn595   2.001   .     S
O591   Zn595   1.986   .     S
O592   Zn596   1.986   .     S
O593   Zn596   1.993   .     S
O594   Zn595   1.993   .     S
O597   C615    1.391   .     S
O597   H658    0.991   .     S
H598   O717    0.991   1_455 S
O599   C676    1.391   1_455 S
O599   H720    0.991   1_455 S
H600   O659    0.991   .     S
C601   C621    1.437   .     S
C601   O647    1.285   .     A
C601   O649    1.285   .     A
C602   C622    1.438   .     S
C602   O650    1.285   .     A
C602   O648    1.285   .     A
C603   C605    1.406   .     A
C603   C611    1.410   .     A
C603   H637    1.082   .     S
C604   C606    1.406   .     A
C604   C612    1.410   .     A
C604   H638    1.082   .     S
C605   H639    1.082   .     S
C605   N645    1.363   .     A
C606   N646    1.363   .     A
C606   H640    1.082   .     S
C607   N645    1.363   .     A
C607   C609    1.406   .     A
C607   H641    1.082   .     S
C608   H642    1.082   .     S
C608   N646    1.363   .     A
C608   C610    1.406   .     A
C609   C611    1.410   .     A
C609   H643    1.082   .     S
C610   C612    1.410   .     A
C610   H644    1.082   .     S
C612   C251    1.512   1_556 S
C613   C615    1.414   .     S
C613   O653    1.280   .     A
C613   O651    1.272   .     A
C614   O652    1.272   .     A
C614   O654    1.280   .     A
C614   C616    1.414   .     S
C616   C675    1.348   .     S
C616   O719    1.391   .     S
C617   H629    1.083   .     S
C617   C627    1.399   .     A
C617   C619    1.381   .     A
C618   H630    1.083   .     S
C618   C628    1.399   .     A
C618   C620    1.380   .     A
C619   H631    1.084   .     S
C619   C621    1.399   .     A
C620   H632    1.084   .     S
C620   C622    1.399   .     A
C621   C623    1.399   .     A
C622   C624    1.399   .     A
C623   C625    1.380   .     A
C623   H633    1.084   .     S
C624   C626    1.381   .     A
C624   H634    1.084   .     S
C625   C627    1.399   .     A
C625   H635    1.083   .     S
C626   C628    1.399   .     A
C626   H636    1.083   .     S
C628   C447    1.444   1_565 S
N645   Zn656   2.003   .     S
N646   Zn655   2.003   .     S
O647   Zn655   2.001   .     S
O648   Zn656   2.001   .     S
O649   Zn656   2.001   .     S
O650   Zn655   2.001   .     S
O651   Zn655   1.986   .     S
O652   Zn656   1.986   .     S
O653   Zn656   1.993   .     S
O654   Zn655   1.993   .     S
O657   C675    1.391   .     S
O657   H718    0.991   .     S
H660   O719    0.991   .     S
C661   C681    1.437   .     S
C661   O707    1.285   .     A
C661   O709    1.285   .     A
C662   C682    1.438   .     S
C662   O710    1.285   .     A
C662   O708    1.285   .     A
C663   C665    1.406   .     A
C663   C671    1.410   .     A
C663   H697    1.082   .     S
C664   C666    1.406   .     A
C664   C672    1.410   .     A
C664   H698    1.082   .     S
C665   H699    1.082   .     S
C665   N705    1.363   .     A
C666   N706    1.363   .     A
C666   H700    1.082   .     S
C667   N705    1.363   .     A
C667   C669    1.406   .     A
C667   H701    1.082   .     S
C668   H702    1.082   .     S
C668   N706    1.363   .     A
C668   C670    1.406   .     A
C669   C671    1.410   .     A
C669   H703    1.082   .     S
C670   C672    1.410   .     A
C670   H704    1.082   .     S
C672   C311    1.512   1_556 S
C673   C675    1.414   .     S
C673   O713    1.280   .     A
C673   O711    1.272   .     A
C674   O712    1.272   .     A
C674   O714    1.280   .     A
C674   C676    1.414   .     S
C676   C555    1.348   1_655 S
C676   O599    1.391   1_655 S
C677   H689    1.083   .     S
C677   C687    1.399   .     A
C677   C679    1.381   .     A
C678   H690    1.083   .     S
C678   C688    1.399   .     A
C678   C680    1.380   .     A
C679   H691    1.084   .     S
C679   C681    1.399   .     A
C680   H692    1.084   .     S
C680   C682    1.399   .     A
C681   C683    1.399   .     A
C682   C684    1.399   .     A
C683   C685    1.380   .     A
C683   H693    1.084   .     S
C684   C686    1.381   .     A
C684   H694    1.084   .     S
C685   C687    1.399   .     A
C685   H695    1.083   .     S
C686   C688    1.399   .     A
C686   H696    1.083   .     S
C688   C507    1.444   1_565 S
N705   Zn716   2.003   .     S
N706   Zn715   2.003   .     S
O707   Zn715   2.001   .     S
O708   Zn716   2.001   .     S
O709   Zn716   2.001   .     S
O710   Zn715   2.001   .     S
O711   Zn715   1.986   .     S
O712   Zn716   1.986   .     S
O713   Zn716   1.993   .     S
O714   Zn715   1.993   .     S
O717   C555    1.391   1_655 S
O717   H598    0.991   1_655 S
H720   O599    0.991   1_655 S
