data_str_m3_o1_o18_pcu_sym.212
_audit_creation_date              2020-01-03
_audit_creation_method            'Materials Studio'
_symmetry_space_group_name_H-M    'P1'
_symmetry_Int_Tables_number       1
_symmetry_cell_setting            triclinic
loop_
_symmetry_equiv_pos_as_xyz
  x,y,z
_cell_length_a                    29.5342
_cell_length_b                    32.1679
_cell_length_c                    30.9993
_cell_angle_alpha                 90.2451
_cell_angle_beta                  66.9581
_cell_angle_gamma                 89.9317
loop_
_atom_site_label
_atom_site_type_symbol
_atom_site_fract_x
_atom_site_fract_y
_atom_site_fract_z
_atom_site_U_iso_or_equiv
_atom_site_adp_type
_atom_site_occupancy
C1     C     0.16667   0.24671   0.25000   0.00000  Uiso   1.00
C2     C     0.16667   0.08662   0.24999   0.00000  Uiso   1.00
C3     C     0.12671   0.12330   0.04191   0.00000  Uiso   1.00
C4     C     0.21867   0.18737   0.44944   0.00000  Uiso   1.00
C5     C     0.09432   0.11269   0.02132   0.00000  Uiso   1.00
C6     C     0.25253   0.19588   0.46910   0.00000  Uiso   1.00
C7     C     0.20900   0.31199   0.24730   0.00000  Uiso   1.00
C8     C     0.12434   0.02134   0.25270   0.00000  Uiso   1.00
C9     C     0.20903   0.02122   0.24725   0.00000  Uiso   1.00
C10    C     0.12435   0.31210   0.25265   0.00000  Uiso   1.00
C11    C     0.16669   0.04247   0.24998   0.00000  Uiso   1.00
C12    C     0.16668   0.29086   0.24996   0.00000  Uiso   1.00
C13    C     0.32112   0.14023   0.22142   0.00000  Uiso   1.00
C14    C     0.01224   0.19318   0.27850   0.00000  Uiso   1.00
C15    C     0.03572   0.14021   0.22146   0.00000  Uiso   1.00
C16    C     0.29762   0.19314   0.27852   0.00000  Uiso   1.00
C17    C     0.13569   0.16569   0.33810   0.00000  Uiso   1.00
C18    C     0.19764   0.16706   0.16178   0.00000  Uiso   1.00
C19    C     0.11581   0.15861   0.38851   0.00000  Uiso   1.00
C20    C     0.21771   0.16950   0.11060   0.00000  Uiso   1.00
C21    C     0.06858   0.11611   0.45548   0.00000  Uiso   1.00
C22    C     0.27678   0.19452   0.03602   0.00000  Uiso   1.00
C23    C     0.07712   0.13052   0.41023   0.00000  Uiso   1.00
C24    C     0.26314   0.18837   0.08434   0.00000  Uiso   1.00
C25    C     0.14323   0.17393   0.41247   0.00000  Uiso   1.00
C26    C     0.18758   0.15572   0.08858   0.00000  Uiso   1.00
C27    C     0.13930   0.15674   0.45503   0.00000  Uiso   1.00
C28    C     0.19938   0.16253   0.04103   0.00000  Uiso   1.00
C29    C     0.10001   0.12877   0.47778   0.00000  Uiso   1.00
C30    C     0.24346   0.18416   0.01501   0.00000  Uiso   1.00
C31    C     0.17457   0.16560   0.47454   0.00000  Uiso   1.00
C32    C     0.16664   0.15051   0.01972   0.00000  Uiso   1.00
H33    H     0.06516   0.09119   0.03993   0.00000  Uiso   1.00
H34    H     0.28547   0.21256   0.44796   0.00000  Uiso   1.00
H35    H     0.15288   0.14220   0.11041   0.00000  Uiso   1.00
H36    H     0.16963   0.19784   0.39536   0.00000  Uiso   1.00
H37    H     0.12072   0.10774   0.07439   0.00000  Uiso   1.00
H38    H     0.22940   0.19697   0.41357   0.00000  Uiso   1.00
H39    H     0.24198   0.29579   0.24525   0.00000  Uiso   1.00
H40    H     0.09128   0.03753   0.25495   0.00000  Uiso   1.00
H41    H     0.24207   0.03732   0.24505   0.00000  Uiso   1.00
H42    H     0.09131   0.29600   0.25486   0.00000  Uiso   1.00
H43    H     0.31236   0.11912   0.19856   0.00000  Uiso   1.00
H44    H     0.02099   0.21428   0.30138   0.00000  Uiso   1.00
H45    H     0.06326   0.11903   0.19865   0.00000  Uiso   1.00
H46    H     0.27006   0.21429   0.30138   0.00000  Uiso   1.00
N47    N     0.04759   0.16668   0.25001   0.00000  Uiso   1.00
N48    N     0.28574   0.16666   0.24999   0.00000  Uiso   1.00
O49    O     0.12846   0.22775   0.25001   0.00000  Uiso   1.00
O50    O     0.20488   0.10558   0.25000   0.00000  Uiso   1.00
O51    O     0.20490   0.22774   0.25000   0.00000  Uiso   1.00
O52    O     0.12843   0.10559   0.25000   0.00000  Uiso   1.00
O53    O     0.10661   0.16667   0.31613   0.00000  Uiso   1.00
O54    O     0.22672   0.16666   0.18388   0.00000  Uiso   1.00
O55    O     0.18305   0.16666   0.31612   0.00000  Uiso   1.00
O56    O     0.15028   0.16667   0.18388   0.00000  Uiso   1.00
Zn57   Zn    0.11562   0.16667   0.25000   0.00000  Uiso   1.00
Zn58   Zn    0.21771   0.16666   0.25000   0.00000  Uiso   1.00
O59    O     0.29447   0.20036   0.10559   0.00000  Uiso   1.00
C60    C     0.28379   0.24198   0.12115   0.00000  Uiso   1.00
H61    H     0.24449   0.24593   0.14524   0.00000  Uiso   1.00
H62    H     0.29207   0.26341   0.09095   0.00000  Uiso   1.00
C63    C     0.31553   0.25428   0.14767   0.00000  Uiso   1.00
H64    H     0.02174   0.25091   0.12456   0.00000  Uiso   1.00
H65    H     0.30807   0.28714   0.15945   0.00000  Uiso   1.00
H66    H     0.30708   0.23412   0.17883   0.00000  Uiso   1.00
O67    O     0.05337   0.11189   0.38463   0.00000  Uiso   1.00
C68    C     0.00946   0.13387   0.39249   0.00000  Uiso   1.00
H69    H     0.01722   0.16674   0.38084   0.00000  Uiso   1.00
H70    H     0.31786   0.13331   0.43018   0.00000  Uiso   1.00
C71    C     0.31628   0.11318   0.36483   0.00000  Uiso   1.00
H72    H     0.30523   0.08116   0.37797   0.00000  Uiso   1.00
H73    H     0.28283   0.13129   0.36881   0.00000  Uiso   1.00
H74    H     0.00754   0.11155   0.32711   0.00000  Uiso   1.00
Br75   Br    0.01733   0.07551   0.48319   0.00000  Uiso   1.00
Br76   Br    0.00731   0.21793   0.00039   0.00000  Uiso   1.00
C77    C     0.50000   0.24671   0.25000   0.00000  Uiso   1.00
C78    C     0.50000   0.08662   0.24999   0.00000  Uiso   1.00
C79    C     0.46004   0.12330   0.04191   0.00000  Uiso   1.00
C80    C     0.55201   0.18737   0.44944   0.00000  Uiso   1.00
C81    C     0.42765   0.11269   0.02132   0.00000  Uiso   1.00
C82    C     0.58586   0.19588   0.46910   0.00000  Uiso   1.00
C83    C     0.54233   0.31199   0.24730   0.00000  Uiso   1.00
C84    C     0.45767   0.02134   0.25270   0.00000  Uiso   1.00
C85    C     0.54236   0.02122   0.24725   0.00000  Uiso   1.00
C86    C     0.45768   0.31210   0.25265   0.00000  Uiso   1.00
C87    C     0.50002   0.04247   0.24998   0.00000  Uiso   1.00
C88    C     0.50001   0.29086   0.24996   0.00000  Uiso   1.00
C89    C     0.65445   0.14023   0.22142   0.00000  Uiso   1.00
C90    C     0.34558   0.19318   0.27850   0.00000  Uiso   1.00
C91    C     0.36905   0.14021   0.22146   0.00000  Uiso   1.00
C92    C     0.63095   0.19314   0.27852   0.00000  Uiso   1.00
C93    C     0.46902   0.16569   0.33810   0.00000  Uiso   1.00
C94    C     0.53097   0.16706   0.16178   0.00000  Uiso   1.00
C95    C     0.44914   0.15861   0.38851   0.00000  Uiso   1.00
C96    C     0.55105   0.16950   0.11060   0.00000  Uiso   1.00
C97    C     0.40192   0.11611   0.45548   0.00000  Uiso   1.00
C98    C     0.61012   0.19452   0.03602   0.00000  Uiso   1.00
C99    C     0.41046   0.13052   0.41023   0.00000  Uiso   1.00
C100   C     0.59647   0.18837   0.08434   0.00000  Uiso   1.00
C101   C     0.47656   0.17393   0.41247   0.00000  Uiso   1.00
C102   C     0.52091   0.15572   0.08858   0.00000  Uiso   1.00
C103   C     0.47264   0.15674   0.45503   0.00000  Uiso   1.00
C104   C     0.53271   0.16253   0.04103   0.00000  Uiso   1.00
C105   C     0.43334   0.12877   0.47778   0.00000  Uiso   1.00
C106   C     0.57679   0.18416   0.01501   0.00000  Uiso   1.00
C107   C     0.50790   0.16560   0.47454   0.00000  Uiso   1.00
C108   C     0.49997   0.15051   0.01972   0.00000  Uiso   1.00
H109   H     0.39850   0.09119   0.03993   0.00000  Uiso   1.00
H110   H     0.61880   0.21256   0.44796   0.00000  Uiso   1.00
H111   H     0.48621   0.14220   0.11041   0.00000  Uiso   1.00
H112   H     0.50297   0.19784   0.39536   0.00000  Uiso   1.00
H113   H     0.45406   0.10774   0.07439   0.00000  Uiso   1.00
H114   H     0.56273   0.19697   0.41357   0.00000  Uiso   1.00
H115   H     0.57531   0.29579   0.24525   0.00000  Uiso   1.00
H116   H     0.42461   0.03753   0.25495   0.00000  Uiso   1.00
H117   H     0.57541   0.03732   0.24505   0.00000  Uiso   1.00
H118   H     0.42464   0.29600   0.25486   0.00000  Uiso   1.00
H119   H     0.64570   0.11912   0.19856   0.00000  Uiso   1.00
H120   H     0.35432   0.21428   0.30138   0.00000  Uiso   1.00
H121   H     0.39659   0.11903   0.19865   0.00000  Uiso   1.00
H122   H     0.60339   0.21429   0.30138   0.00000  Uiso   1.00
N123   N     0.38093   0.16668   0.25001   0.00000  Uiso   1.00
N124   N     0.61907   0.16666   0.24999   0.00000  Uiso   1.00
O125   O     0.46179   0.22775   0.25001   0.00000  Uiso   1.00
O126   O     0.53821   0.10558   0.25000   0.00000  Uiso   1.00
O127   O     0.53823   0.22774   0.25000   0.00000  Uiso   1.00
O128   O     0.46177   0.10559   0.25000   0.00000  Uiso   1.00
O129   O     0.43994   0.16667   0.31613   0.00000  Uiso   1.00
O130   O     0.56006   0.16666   0.18388   0.00000  Uiso   1.00
O131   O     0.51639   0.16666   0.31612   0.00000  Uiso   1.00
O132   O     0.48361   0.16667   0.18388   0.00000  Uiso   1.00
Zn133  Zn    0.44896   0.16667   0.25000   0.00000  Uiso   1.00
Zn134  Zn    0.55104   0.16666   0.25000   0.00000  Uiso   1.00
O135   O     0.62780   0.20036   0.10559   0.00000  Uiso   1.00
C136   C     0.61712   0.24198   0.12115   0.00000  Uiso   1.00
H137   H     0.57782   0.24593   0.14524   0.00000  Uiso   1.00
H138   H     0.62540   0.26341   0.09095   0.00000  Uiso   1.00
C139   C     0.64886   0.25428   0.14767   0.00000  Uiso   1.00
H140   H     0.35507   0.25091   0.12456   0.00000  Uiso   1.00
H141   H     0.64140   0.28714   0.15945   0.00000  Uiso   1.00
H142   H     0.64042   0.23412   0.17883   0.00000  Uiso   1.00
O143   O     0.38670   0.11189   0.38463   0.00000  Uiso   1.00
C144   C     0.34279   0.13387   0.39249   0.00000  Uiso   1.00
H145   H     0.35055   0.16674   0.38084   0.00000  Uiso   1.00
H146   H     0.65119   0.13331   0.43018   0.00000  Uiso   1.00
C147   C     0.64961   0.11318   0.36483   0.00000  Uiso   1.00
H148   H     0.63856   0.08116   0.37797   0.00000  Uiso   1.00
H149   H     0.61616   0.13129   0.36881   0.00000  Uiso   1.00
H150   H     0.34087   0.11155   0.32711   0.00000  Uiso   1.00
Br151  Br    0.35067   0.07551   0.48319   0.00000  Uiso   1.00
Br152  Br    0.34065   0.21793   0.00039   0.00000  Uiso   1.00
C153   C     0.83333   0.24671   0.25000   0.00000  Uiso   1.00
C154   C     0.83334   0.08662   0.24999   0.00000  Uiso   1.00
C155   C     0.79338   0.12330   0.04191   0.00000  Uiso   1.00
C156   C     0.88534   0.18737   0.44944   0.00000  Uiso   1.00
C157   C     0.76098   0.11269   0.02132   0.00000  Uiso   1.00
C158   C     0.91919   0.19588   0.46910   0.00000  Uiso   1.00
C159   C     0.87567   0.31199   0.24730   0.00000  Uiso   1.00
C160   C     0.79100   0.02134   0.25270   0.00000  Uiso   1.00
C161   C     0.87570   0.02122   0.24725   0.00000  Uiso   1.00
C162   C     0.79102   0.31210   0.25265   0.00000  Uiso   1.00
C163   C     0.83335   0.04247   0.24998   0.00000  Uiso   1.00
C164   C     0.83334   0.29086   0.24996   0.00000  Uiso   1.00
C165   C     0.98779   0.14023   0.22142   0.00000  Uiso   1.00
C166   C     0.67891   0.19318   0.27850   0.00000  Uiso   1.00
C167   C     0.70238   0.14021   0.22146   0.00000  Uiso   1.00
C168   C     0.96429   0.19314   0.27852   0.00000  Uiso   1.00
C169   C     0.80236   0.16569   0.33810   0.00000  Uiso   1.00
C170   C     0.86430   0.16706   0.16178   0.00000  Uiso   1.00
C171   C     0.78248   0.15861   0.38851   0.00000  Uiso   1.00
C172   C     0.88438   0.16950   0.11060   0.00000  Uiso   1.00
C173   C     0.73525   0.11611   0.45548   0.00000  Uiso   1.00
C174   C     0.94345   0.19452   0.03602   0.00000  Uiso   1.00
C175   C     0.74379   0.13052   0.41023   0.00000  Uiso   1.00
C176   C     0.92980   0.18837   0.08434   0.00000  Uiso   1.00
C177   C     0.80990   0.17393   0.41247   0.00000  Uiso   1.00
C178   C     0.85425   0.15572   0.08858   0.00000  Uiso   1.00
C179   C     0.80597   0.15674   0.45503   0.00000  Uiso   1.00
C180   C     0.86604   0.16253   0.04103   0.00000  Uiso   1.00
C181   C     0.76667   0.12877   0.47778   0.00000  Uiso   1.00
C182   C     0.91013   0.18416   0.01501   0.00000  Uiso   1.00
C183   C     0.84123   0.16560   0.47454   0.00000  Uiso   1.00
C184   C     0.83330   0.15051   0.01972   0.00000  Uiso   1.00
H185   H     0.73183   0.09119   0.03993   0.00000  Uiso   1.00
H186   H     0.95214   0.21256   0.44796   0.00000  Uiso   1.00
H187   H     0.81955   0.14220   0.11041   0.00000  Uiso   1.00
H188   H     0.83630   0.19784   0.39536   0.00000  Uiso   1.00
H189   H     0.78739   0.10774   0.07439   0.00000  Uiso   1.00
H190   H     0.89607   0.19697   0.41357   0.00000  Uiso   1.00
H191   H     0.90864   0.29579   0.24525   0.00000  Uiso   1.00
H192   H     0.75795   0.03753   0.25495   0.00000  Uiso   1.00
H193   H     0.90874   0.03732   0.24505   0.00000  Uiso   1.00
H194   H     0.75798   0.29600   0.25486   0.00000  Uiso   1.00
H195   H     0.97903   0.11912   0.19856   0.00000  Uiso   1.00
H196   H     0.68765   0.21428   0.30138   0.00000  Uiso   1.00
H197   H     0.72993   0.11903   0.19865   0.00000  Uiso   1.00
H198   H     0.93673   0.21429   0.30138   0.00000  Uiso   1.00
N199   N     0.71426   0.16668   0.25001   0.00000  Uiso   1.00
N200   N     0.95241   0.16666   0.24999   0.00000  Uiso   1.00
O201   O     0.79512   0.22775   0.25001   0.00000  Uiso   1.00
O202   O     0.87154   0.10558   0.25000   0.00000  Uiso   1.00
O203   O     0.87157   0.22774   0.25000   0.00000  Uiso   1.00
O204   O     0.79510   0.10559   0.25000   0.00000  Uiso   1.00
O205   O     0.77328   0.16667   0.31613   0.00000  Uiso   1.00
O206   O     0.89339   0.16666   0.18388   0.00000  Uiso   1.00
O207   O     0.84972   0.16666   0.31612   0.00000  Uiso   1.00
O208   O     0.81695   0.16667   0.18388   0.00000  Uiso   1.00
Zn209  Zn    0.78229   0.16667   0.25000   0.00000  Uiso   1.00
Zn210  Zn    0.88438   0.16666   0.25000   0.00000  Uiso   1.00
O211   O     0.96114   0.20036   0.10559   0.00000  Uiso   1.00
C212   C     0.95046   0.24198   0.12115   0.00000  Uiso   1.00
H213   H     0.91116   0.24593   0.14524   0.00000  Uiso   1.00
H214   H     0.95873   0.26341   0.09095   0.00000  Uiso   1.00
C215   C     0.98220   0.25428   0.14767   0.00000  Uiso   1.00
H216   H     0.68840   0.25091   0.12456   0.00000  Uiso   1.00
H217   H     0.97474   0.28714   0.15945   0.00000  Uiso   1.00
H218   H     0.97375   0.23412   0.17883   0.00000  Uiso   1.00
O219   O     0.72003   0.11189   0.38463   0.00000  Uiso   1.00
C220   C     0.67612   0.13387   0.39249   0.00000  Uiso   1.00
H221   H     0.68389   0.16674   0.38084   0.00000  Uiso   1.00
H222   H     0.98453   0.13331   0.43018   0.00000  Uiso   1.00
C223   C     0.98294   0.11318   0.36483   0.00000  Uiso   1.00
H224   H     0.97190   0.08116   0.37797   0.00000  Uiso   1.00
H225   H     0.94950   0.13129   0.36881   0.00000  Uiso   1.00
H226   H     0.67420   0.11155   0.32711   0.00000  Uiso   1.00
Br227  Br    0.68400   0.07551   0.48319   0.00000  Uiso   1.00
Br228  Br    0.67398   0.21793   0.00039   0.00000  Uiso   1.00
C229   C     0.16667   0.58004   0.25000   0.00000  Uiso   1.00
C230   C     0.16667   0.41995   0.24999   0.00000  Uiso   1.00
C231   C     0.12671   0.45663   0.04191   0.00000  Uiso   1.00
C232   C     0.21867   0.52070   0.44944   0.00000  Uiso   1.00
C233   C     0.09432   0.44602   0.02132   0.00000  Uiso   1.00
C234   C     0.25253   0.52921   0.46910   0.00000  Uiso   1.00
C235   C     0.20900   0.64532   0.24730   0.00000  Uiso   1.00
C236   C     0.12434   0.35467   0.25270   0.00000  Uiso   1.00
C237   C     0.20903   0.35455   0.24725   0.00000  Uiso   1.00
C238   C     0.12435   0.64544   0.25265   0.00000  Uiso   1.00
C239   C     0.16669   0.37580   0.24998   0.00000  Uiso   1.00
C240   C     0.16668   0.62419   0.24996   0.00000  Uiso   1.00
C241   C     0.32112   0.47357   0.22142   0.00000  Uiso   1.00
C242   C     0.01224   0.52651   0.27850   0.00000  Uiso   1.00
C243   C     0.03572   0.47354   0.22146   0.00000  Uiso   1.00
C244   C     0.29762   0.52648   0.27852   0.00000  Uiso   1.00
C245   C     0.13569   0.49902   0.33810   0.00000  Uiso   1.00
C246   C     0.19764   0.50039   0.16178   0.00000  Uiso   1.00
C247   C     0.11581   0.49194   0.38851   0.00000  Uiso   1.00
C248   C     0.21771   0.50283   0.11060   0.00000  Uiso   1.00
C249   C     0.06858   0.44944   0.45548   0.00000  Uiso   1.00
C250   C     0.27678   0.52785   0.03602   0.00000  Uiso   1.00
C251   C     0.07712   0.46385   0.41023   0.00000  Uiso   1.00
C252   C     0.26314   0.52170   0.08434   0.00000  Uiso   1.00
C253   C     0.14323   0.50726   0.41247   0.00000  Uiso   1.00
C254   C     0.18758   0.48905   0.08858   0.00000  Uiso   1.00
C255   C     0.13930   0.49007   0.45503   0.00000  Uiso   1.00
C256   C     0.19938   0.49586   0.04103   0.00000  Uiso   1.00
C257   C     0.10001   0.46210   0.47778   0.00000  Uiso   1.00
C258   C     0.24346   0.51749   0.01501   0.00000  Uiso   1.00
C259   C     0.17457   0.49894   0.47454   0.00000  Uiso   1.00
C260   C     0.16664   0.48384   0.01972   0.00000  Uiso   1.00
H261   H     0.06516   0.42452   0.03993   0.00000  Uiso   1.00
H262   H     0.28547   0.54590   0.44796   0.00000  Uiso   1.00
H263   H     0.15288   0.47553   0.11041   0.00000  Uiso   1.00
H264   H     0.16963   0.53117   0.39536   0.00000  Uiso   1.00
H265   H     0.12072   0.44107   0.07439   0.00000  Uiso   1.00
H266   H     0.22940   0.53030   0.41357   0.00000  Uiso   1.00
H267   H     0.24198   0.62913   0.24525   0.00000  Uiso   1.00
H268   H     0.09128   0.37087   0.25495   0.00000  Uiso   1.00
H269   H     0.24207   0.37065   0.24505   0.00000  Uiso   1.00
H270   H     0.09131   0.62933   0.25486   0.00000  Uiso   1.00
H271   H     0.31236   0.45245   0.19856   0.00000  Uiso   1.00
H272   H     0.02099   0.54761   0.30138   0.00000  Uiso   1.00
H273   H     0.06326   0.45236   0.19865   0.00000  Uiso   1.00
H274   H     0.27006   0.54762   0.30138   0.00000  Uiso   1.00
N275   N     0.04759   0.50001   0.25001   0.00000  Uiso   1.00
N276   N     0.28574   0.49999   0.24999   0.00000  Uiso   1.00
O277   O     0.12846   0.56108   0.25001   0.00000  Uiso   1.00
O278   O     0.20488   0.43892   0.25000   0.00000  Uiso   1.00
O279   O     0.20490   0.56107   0.25000   0.00000  Uiso   1.00
O280   O     0.12843   0.43893   0.25000   0.00000  Uiso   1.00
O281   O     0.10661   0.50001   0.31613   0.00000  Uiso   1.00
O282   O     0.22672   0.49999   0.18388   0.00000  Uiso   1.00
O283   O     0.18305   0.50000   0.31612   0.00000  Uiso   1.00
O284   O     0.15028   0.50000   0.18388   0.00000  Uiso   1.00
Zn285  Zn    0.11562   0.50001   0.25000   0.00000  Uiso   1.00
Zn286  Zn    0.21771   0.49999   0.25000   0.00000  Uiso   1.00
O287   O     0.29447   0.53370   0.10559   0.00000  Uiso   1.00
C288   C     0.28379   0.57531   0.12115   0.00000  Uiso   1.00
H289   H     0.24449   0.57926   0.14524   0.00000  Uiso   1.00
H290   H     0.29207   0.59675   0.09095   0.00000  Uiso   1.00
C291   C     0.31553   0.58761   0.14767   0.00000  Uiso   1.00
H292   H     0.02174   0.58424   0.12456   0.00000  Uiso   1.00
H293   H     0.30807   0.62047   0.15945   0.00000  Uiso   1.00
H294   H     0.30708   0.56746   0.17883   0.00000  Uiso   1.00
O295   O     0.05337   0.44522   0.38463   0.00000  Uiso   1.00
C296   C     0.00946   0.46721   0.39249   0.00000  Uiso   1.00
H297   H     0.01722   0.50008   0.38084   0.00000  Uiso   1.00
H298   H     0.31786   0.46664   0.43018   0.00000  Uiso   1.00
C299   C     0.31628   0.44651   0.36483   0.00000  Uiso   1.00
H300   H     0.30523   0.41450   0.37797   0.00000  Uiso   1.00
H301   H     0.28283   0.46463   0.36881   0.00000  Uiso   1.00
H302   H     0.00754   0.44488   0.32711   0.00000  Uiso   1.00
Br303  Br    0.01733   0.40884   0.48319   0.00000  Uiso   1.00
Br304  Br    0.00731   0.55126   0.00039   0.00000  Uiso   1.00
C305   C     0.50000   0.58004   0.25000   0.00000  Uiso   1.00
C306   C     0.50000   0.41995   0.24999   0.00000  Uiso   1.00
C307   C     0.46004   0.45663   0.04191   0.00000  Uiso   1.00
C308   C     0.55201   0.52070   0.44944   0.00000  Uiso   1.00
C309   C     0.42765   0.44602   0.02132   0.00000  Uiso   1.00
C310   C     0.58586   0.52921   0.46910   0.00000  Uiso   1.00
C311   C     0.54233   0.64532   0.24730   0.00000  Uiso   1.00
C312   C     0.45767   0.35467   0.25270   0.00000  Uiso   1.00
C313   C     0.54236   0.35455   0.24725   0.00000  Uiso   1.00
C314   C     0.45768   0.64544   0.25265   0.00000  Uiso   1.00
C315   C     0.50002   0.37580   0.24998   0.00000  Uiso   1.00
C316   C     0.50001   0.62419   0.24996   0.00000  Uiso   1.00
C317   C     0.65445   0.47357   0.22142   0.00000  Uiso   1.00
C318   C     0.34558   0.52651   0.27850   0.00000  Uiso   1.00
C319   C     0.36905   0.47354   0.22146   0.00000  Uiso   1.00
C320   C     0.63095   0.52648   0.27852   0.00000  Uiso   1.00
C321   C     0.46902   0.49902   0.33810   0.00000  Uiso   1.00
C322   C     0.53097   0.50039   0.16178   0.00000  Uiso   1.00
C323   C     0.44914   0.49194   0.38851   0.00000  Uiso   1.00
C324   C     0.55105   0.50283   0.11060   0.00000  Uiso   1.00
C325   C     0.40192   0.44944   0.45548   0.00000  Uiso   1.00
C326   C     0.61012   0.52785   0.03602   0.00000  Uiso   1.00
C327   C     0.41046   0.46385   0.41023   0.00000  Uiso   1.00
C328   C     0.59647   0.52170   0.08434   0.00000  Uiso   1.00
C329   C     0.47656   0.50726   0.41247   0.00000  Uiso   1.00
C330   C     0.52091   0.48905   0.08858   0.00000  Uiso   1.00
C331   C     0.47264   0.49007   0.45503   0.00000  Uiso   1.00
C332   C     0.53271   0.49586   0.04103   0.00000  Uiso   1.00
C333   C     0.43334   0.46210   0.47778   0.00000  Uiso   1.00
C334   C     0.57679   0.51749   0.01501   0.00000  Uiso   1.00
C335   C     0.50790   0.49894   0.47454   0.00000  Uiso   1.00
C336   C     0.49997   0.48384   0.01972   0.00000  Uiso   1.00
H337   H     0.39850   0.42452   0.03993   0.00000  Uiso   1.00
H338   H     0.61880   0.54590   0.44796   0.00000  Uiso   1.00
H339   H     0.48621   0.47553   0.11041   0.00000  Uiso   1.00
H340   H     0.50297   0.53117   0.39536   0.00000  Uiso   1.00
H341   H     0.45406   0.44107   0.07439   0.00000  Uiso   1.00
H342   H     0.56273   0.53030   0.41357   0.00000  Uiso   1.00
H343   H     0.57531   0.62913   0.24525   0.00000  Uiso   1.00
H344   H     0.42461   0.37087   0.25495   0.00000  Uiso   1.00
H345   H     0.57541   0.37065   0.24505   0.00000  Uiso   1.00
H346   H     0.42464   0.62933   0.25486   0.00000  Uiso   1.00
H347   H     0.64570   0.45245   0.19856   0.00000  Uiso   1.00
H348   H     0.35432   0.54761   0.30138   0.00000  Uiso   1.00
H349   H     0.39659   0.45236   0.19865   0.00000  Uiso   1.00
H350   H     0.60339   0.54762   0.30138   0.00000  Uiso   1.00
N351   N     0.38093   0.50001   0.25001   0.00000  Uiso   1.00
N352   N     0.61907   0.49999   0.24999   0.00000  Uiso   1.00
O353   O     0.46179   0.56108   0.25001   0.00000  Uiso   1.00
O354   O     0.53821   0.43892   0.25000   0.00000  Uiso   1.00
O355   O     0.53823   0.56107   0.25000   0.00000  Uiso   1.00
O356   O     0.46177   0.43893   0.25000   0.00000  Uiso   1.00
O357   O     0.43994   0.50001   0.31613   0.00000  Uiso   1.00
O358   O     0.56006   0.49999   0.18388   0.00000  Uiso   1.00
O359   O     0.51639   0.50000   0.31612   0.00000  Uiso   1.00
O360   O     0.48361   0.50000   0.18388   0.00000  Uiso   1.00
Zn361  Zn    0.44896   0.50001   0.25000   0.00000  Uiso   1.00
Zn362  Zn    0.55104   0.49999   0.25000   0.00000  Uiso   1.00
O363   O     0.62780   0.53370   0.10559   0.00000  Uiso   1.00
C364   C     0.61712   0.57531   0.12115   0.00000  Uiso   1.00
H365   H     0.57782   0.57926   0.14524   0.00000  Uiso   1.00
H366   H     0.62540   0.59675   0.09095   0.00000  Uiso   1.00
C367   C     0.64886   0.58761   0.14767   0.00000  Uiso   1.00
H368   H     0.35507   0.58424   0.12456   0.00000  Uiso   1.00
H369   H     0.64140   0.62047   0.15945   0.00000  Uiso   1.00
H370   H     0.64042   0.56746   0.17883   0.00000  Uiso   1.00
O371   O     0.38670   0.44522   0.38463   0.00000  Uiso   1.00
C372   C     0.34279   0.46721   0.39249   0.00000  Uiso   1.00
H373   H     0.35055   0.50008   0.38084   0.00000  Uiso   1.00
H374   H     0.65119   0.46664   0.43018   0.00000  Uiso   1.00
C375   C     0.64961   0.44651   0.36483   0.00000  Uiso   1.00
H376   H     0.63856   0.41450   0.37797   0.00000  Uiso   1.00
H377   H     0.61616   0.46463   0.36881   0.00000  Uiso   1.00
H378   H     0.34087   0.44488   0.32711   0.00000  Uiso   1.00
Br379  Br    0.35067   0.40884   0.48319   0.00000  Uiso   1.00
Br380  Br    0.34065   0.55126   0.00039   0.00000  Uiso   1.00
C381   C     0.83333   0.58004   0.25000   0.00000  Uiso   1.00
C382   C     0.83334   0.41995   0.24999   0.00000  Uiso   1.00
C383   C     0.79338   0.45663   0.04191   0.00000  Uiso   1.00
C384   C     0.88534   0.52070   0.44944   0.00000  Uiso   1.00
C385   C     0.76098   0.44602   0.02132   0.00000  Uiso   1.00
C386   C     0.91919   0.52921   0.46910   0.00000  Uiso   1.00
C387   C     0.87567   0.64532   0.24730   0.00000  Uiso   1.00
C388   C     0.79100   0.35467   0.25270   0.00000  Uiso   1.00
C389   C     0.87570   0.35455   0.24725   0.00000  Uiso   1.00
C390   C     0.79102   0.64544   0.25265   0.00000  Uiso   1.00
C391   C     0.83335   0.37580   0.24998   0.00000  Uiso   1.00
C392   C     0.83334   0.62419   0.24996   0.00000  Uiso   1.00
C393   C     0.98779   0.47357   0.22142   0.00000  Uiso   1.00
C394   C     0.67891   0.52651   0.27850   0.00000  Uiso   1.00
C395   C     0.70238   0.47354   0.22146   0.00000  Uiso   1.00
C396   C     0.96429   0.52648   0.27852   0.00000  Uiso   1.00
C397   C     0.80236   0.49902   0.33810   0.00000  Uiso   1.00
C398   C     0.86430   0.50039   0.16178   0.00000  Uiso   1.00
C399   C     0.78248   0.49194   0.38851   0.00000  Uiso   1.00
C400   C     0.88438   0.50283   0.11060   0.00000  Uiso   1.00
C401   C     0.73525   0.44944   0.45548   0.00000  Uiso   1.00
C402   C     0.94345   0.52785   0.03602   0.00000  Uiso   1.00
C403   C     0.74379   0.46385   0.41023   0.00000  Uiso   1.00
C404   C     0.92980   0.52170   0.08434   0.00000  Uiso   1.00
C405   C     0.80990   0.50726   0.41247   0.00000  Uiso   1.00
C406   C     0.85425   0.48905   0.08858   0.00000  Uiso   1.00
C407   C     0.80597   0.49007   0.45503   0.00000  Uiso   1.00
C408   C     0.86604   0.49586   0.04103   0.00000  Uiso   1.00
C409   C     0.76667   0.46210   0.47778   0.00000  Uiso   1.00
C410   C     0.91013   0.51749   0.01501   0.00000  Uiso   1.00
C411   C     0.84123   0.49894   0.47454   0.00000  Uiso   1.00
C412   C     0.83330   0.48384   0.01972   0.00000  Uiso   1.00
H413   H     0.73183   0.42452   0.03993   0.00000  Uiso   1.00
H414   H     0.95214   0.54590   0.44796   0.00000  Uiso   1.00
H415   H     0.81955   0.47553   0.11041   0.00000  Uiso   1.00
H416   H     0.83630   0.53117   0.39536   0.00000  Uiso   1.00
H417   H     0.78739   0.44107   0.07439   0.00000  Uiso   1.00
H418   H     0.89607   0.53030   0.41357   0.00000  Uiso   1.00
H419   H     0.90864   0.62913   0.24525   0.00000  Uiso   1.00
H420   H     0.75795   0.37087   0.25495   0.00000  Uiso   1.00
H421   H     0.90874   0.37065   0.24505   0.00000  Uiso   1.00
H422   H     0.75798   0.62933   0.25486   0.00000  Uiso   1.00
H423   H     0.97903   0.45245   0.19856   0.00000  Uiso   1.00
H424   H     0.68765   0.54761   0.30138   0.00000  Uiso   1.00
H425   H     0.72993   0.45236   0.19865   0.00000  Uiso   1.00
H426   H     0.93673   0.54762   0.30138   0.00000  Uiso   1.00
N427   N     0.71426   0.50001   0.25001   0.00000  Uiso   1.00
N428   N     0.95241   0.49999   0.24999   0.00000  Uiso   1.00
O429   O     0.79512   0.56108   0.25001   0.00000  Uiso   1.00
O430   O     0.87154   0.43892   0.25000   0.00000  Uiso   1.00
O431   O     0.87157   0.56107   0.25000   0.00000  Uiso   1.00
O432   O     0.79510   0.43893   0.25000   0.00000  Uiso   1.00
O433   O     0.77328   0.50001   0.31613   0.00000  Uiso   1.00
O434   O     0.89339   0.49999   0.18388   0.00000  Uiso   1.00
O435   O     0.84972   0.50000   0.31612   0.00000  Uiso   1.00
O436   O     0.81695   0.50000   0.18388   0.00000  Uiso   1.00
Zn437  Zn    0.78229   0.50001   0.25000   0.00000  Uiso   1.00
Zn438  Zn    0.88438   0.49999   0.25000   0.00000  Uiso   1.00
O439   O     0.96114   0.53370   0.10559   0.00000  Uiso   1.00
C440   C     0.95046   0.57531   0.12115   0.00000  Uiso   1.00
H441   H     0.91116   0.57926   0.14524   0.00000  Uiso   1.00
H442   H     0.95873   0.59675   0.09095   0.00000  Uiso   1.00
C443   C     0.98220   0.58761   0.14767   0.00000  Uiso   1.00
H444   H     0.68840   0.58424   0.12456   0.00000  Uiso   1.00
H445   H     0.97474   0.62047   0.15945   0.00000  Uiso   1.00
H446   H     0.97375   0.56746   0.17883   0.00000  Uiso   1.00
O447   O     0.72003   0.44522   0.38463   0.00000  Uiso   1.00
C448   C     0.67612   0.46721   0.39249   0.00000  Uiso   1.00
H449   H     0.68389   0.50008   0.38084   0.00000  Uiso   1.00
H450   H     0.98453   0.46664   0.43018   0.00000  Uiso   1.00
C451   C     0.98294   0.44651   0.36483   0.00000  Uiso   1.00
H452   H     0.97190   0.41450   0.37797   0.00000  Uiso   1.00
H453   H     0.94950   0.46463   0.36881   0.00000  Uiso   1.00
H454   H     0.67420   0.44488   0.32711   0.00000  Uiso   1.00
Br455  Br    0.68400   0.40884   0.48319   0.00000  Uiso   1.00
Br456  Br    0.67398   0.55126   0.00039   0.00000  Uiso   1.00
C457   C     0.16667   0.91338   0.25000   0.00000  Uiso   1.00
C458   C     0.16667   0.75329   0.24999   0.00000  Uiso   1.00
C459   C     0.12671   0.78997   0.04191   0.00000  Uiso   1.00
C460   C     0.21867   0.85403   0.44944   0.00000  Uiso   1.00
C461   C     0.09432   0.77935   0.02132   0.00000  Uiso   1.00
C462   C     0.25253   0.86255   0.46910   0.00000  Uiso   1.00
C463   C     0.20900   0.97865   0.24730   0.00000  Uiso   1.00
C464   C     0.12434   0.68800   0.25270   0.00000  Uiso   1.00
C465   C     0.20903   0.68789   0.24725   0.00000  Uiso   1.00
C466   C     0.12435   0.97877   0.25265   0.00000  Uiso   1.00
C467   C     0.16669   0.70913   0.24998   0.00000  Uiso   1.00
C468   C     0.16668   0.95753   0.24996   0.00000  Uiso   1.00
C469   C     0.32112   0.80690   0.22142   0.00000  Uiso   1.00
C470   C     0.01224   0.85985   0.27850   0.00000  Uiso   1.00
C471   C     0.03572   0.80688   0.22146   0.00000  Uiso   1.00
C472   C     0.29762   0.85981   0.27852   0.00000  Uiso   1.00
C473   C     0.13569   0.83235   0.33810   0.00000  Uiso   1.00
C474   C     0.19764   0.83372   0.16178   0.00000  Uiso   1.00
C475   C     0.11581   0.82527   0.38851   0.00000  Uiso   1.00
C476   C     0.21771   0.83616   0.11060   0.00000  Uiso   1.00
C477   C     0.06858   0.78278   0.45548   0.00000  Uiso   1.00
C478   C     0.27678   0.86119   0.03602   0.00000  Uiso   1.00
C479   C     0.07712   0.79718   0.41023   0.00000  Uiso   1.00
C480   C     0.26314   0.85504   0.08434   0.00000  Uiso   1.00
C481   C     0.14323   0.84060   0.41247   0.00000  Uiso   1.00
C482   C     0.18758   0.82238   0.08858   0.00000  Uiso   1.00
C483   C     0.13930   0.82340   0.45503   0.00000  Uiso   1.00
C484   C     0.19938   0.82919   0.04103   0.00000  Uiso   1.00
C485   C     0.10001   0.79543   0.47778   0.00000  Uiso   1.00
C486   C     0.24346   0.85082   0.01501   0.00000  Uiso   1.00
C487   C     0.17457   0.83227   0.47454   0.00000  Uiso   1.00
C488   C     0.16664   0.81717   0.01972   0.00000  Uiso   1.00
H489   H     0.06516   0.75785   0.03993   0.00000  Uiso   1.00
H490   H     0.28547   0.87923   0.44796   0.00000  Uiso   1.00
H491   H     0.15288   0.80887   0.11041   0.00000  Uiso   1.00
H492   H     0.16963   0.86450   0.39536   0.00000  Uiso   1.00
H493   H     0.12072   0.77441   0.07439   0.00000  Uiso   1.00
H494   H     0.22940   0.86364   0.41357   0.00000  Uiso   1.00
H495   H     0.24198   0.96246   0.24525   0.00000  Uiso   1.00
H496   H     0.09128   0.70420   0.25495   0.00000  Uiso   1.00
H497   H     0.24207   0.70399   0.24505   0.00000  Uiso   1.00
H498   H     0.09131   0.96267   0.25486   0.00000  Uiso   1.00
H499   H     0.31236   0.78578   0.19856   0.00000  Uiso   1.00
H500   H     0.02099   0.88095   0.30138   0.00000  Uiso   1.00
H501   H     0.06326   0.78569   0.19865   0.00000  Uiso   1.00
H502   H     0.27006   0.88095   0.30138   0.00000  Uiso   1.00
N503   N     0.04759   0.83334   0.25001   0.00000  Uiso   1.00
N504   N     0.28574   0.83332   0.24999   0.00000  Uiso   1.00
O505   O     0.12846   0.89442   0.25001   0.00000  Uiso   1.00
O506   O     0.20488   0.77225   0.25000   0.00000  Uiso   1.00
O507   O     0.20490   0.89441   0.25000   0.00000  Uiso   1.00
O508   O     0.12843   0.77226   0.25000   0.00000  Uiso   1.00
O509   O     0.10661   0.83334   0.31613   0.00000  Uiso   1.00
O510   O     0.22672   0.83333   0.18388   0.00000  Uiso   1.00
O511   O     0.18305   0.83333   0.31612   0.00000  Uiso   1.00
O512   O     0.15028   0.83334   0.18388   0.00000  Uiso   1.00
Zn513  Zn    0.11562   0.83334   0.25000   0.00000  Uiso   1.00
Zn514  Zn    0.21771   0.83333   0.25000   0.00000  Uiso   1.00
O515   O     0.29447   0.86703   0.10559   0.00000  Uiso   1.00
C516   C     0.28379   0.90864   0.12115   0.00000  Uiso   1.00
H517   H     0.24449   0.91259   0.14524   0.00000  Uiso   1.00
H518   H     0.29207   0.93008   0.09095   0.00000  Uiso   1.00
C519   C     0.31553   0.92094   0.14767   0.00000  Uiso   1.00
H520   H     0.02174   0.91757   0.12456   0.00000  Uiso   1.00
H521   H     0.30807   0.95380   0.15945   0.00000  Uiso   1.00
H522   H     0.30708   0.90079   0.17883   0.00000  Uiso   1.00
O523   O     0.05337   0.77855   0.38463   0.00000  Uiso   1.00
C524   C     0.00946   0.80054   0.39249   0.00000  Uiso   1.00
H525   H     0.01722   0.83341   0.38084   0.00000  Uiso   1.00
H526   H     0.31786   0.79998   0.43018   0.00000  Uiso   1.00
C527   C     0.31628   0.77985   0.36483   0.00000  Uiso   1.00
H528   H     0.30523   0.74783   0.37797   0.00000  Uiso   1.00
H529   H     0.28283   0.79796   0.36881   0.00000  Uiso   1.00
H530   H     0.00754   0.77822   0.32711   0.00000  Uiso   1.00
Br531  Br    0.01733   0.74217   0.48319   0.00000  Uiso   1.00
Br532  Br    0.00731   0.88459   0.00039   0.00000  Uiso   1.00
C533   C     0.50000   0.91338   0.25000   0.00000  Uiso   1.00
C534   C     0.50000   0.75329   0.24999   0.00000  Uiso   1.00
C535   C     0.46004   0.78997   0.04191   0.00000  Uiso   1.00
C536   C     0.55201   0.85403   0.44944   0.00000  Uiso   1.00
C537   C     0.42765   0.77935   0.02132   0.00000  Uiso   1.00
C538   C     0.58586   0.86255   0.46910   0.00000  Uiso   1.00
C539   C     0.54233   0.97865   0.24730   0.00000  Uiso   1.00
C540   C     0.45767   0.68800   0.25270   0.00000  Uiso   1.00
C541   C     0.54236   0.68789   0.24725   0.00000  Uiso   1.00
C542   C     0.45768   0.97877   0.25265   0.00000  Uiso   1.00
C543   C     0.50002   0.70913   0.24998   0.00000  Uiso   1.00
C544   C     0.50001   0.95753   0.24996   0.00000  Uiso   1.00
C545   C     0.65445   0.80690   0.22142   0.00000  Uiso   1.00
C546   C     0.34558   0.85985   0.27850   0.00000  Uiso   1.00
C547   C     0.36905   0.80688   0.22146   0.00000  Uiso   1.00
C548   C     0.63095   0.85981   0.27852   0.00000  Uiso   1.00
C549   C     0.46902   0.83235   0.33810   0.00000  Uiso   1.00
C550   C     0.53097   0.83372   0.16178   0.00000  Uiso   1.00
C551   C     0.44914   0.82527   0.38851   0.00000  Uiso   1.00
C552   C     0.55105   0.83616   0.11060   0.00000  Uiso   1.00
C553   C     0.40192   0.78278   0.45548   0.00000  Uiso   1.00
C554   C     0.61012   0.86119   0.03602   0.00000  Uiso   1.00
C555   C     0.41046   0.79718   0.41023   0.00000  Uiso   1.00
C556   C     0.59647   0.85504   0.08434   0.00000  Uiso   1.00
C557   C     0.47656   0.84060   0.41247   0.00000  Uiso   1.00
C558   C     0.52091   0.82238   0.08858   0.00000  Uiso   1.00
C559   C     0.47264   0.82340   0.45503   0.00000  Uiso   1.00
C560   C     0.53271   0.82919   0.04103   0.00000  Uiso   1.00
C561   C     0.43334   0.79543   0.47778   0.00000  Uiso   1.00
C562   C     0.57679   0.85082   0.01501   0.00000  Uiso   1.00
C563   C     0.50790   0.83227   0.47454   0.00000  Uiso   1.00
C564   C     0.49997   0.81717   0.01972   0.00000  Uiso   1.00
H565   H     0.39850   0.75785   0.03993   0.00000  Uiso   1.00
H566   H     0.61880   0.87923   0.44796   0.00000  Uiso   1.00
H567   H     0.48621   0.80887   0.11041   0.00000  Uiso   1.00
H568   H     0.50297   0.86450   0.39536   0.00000  Uiso   1.00
H569   H     0.45406   0.77441   0.07439   0.00000  Uiso   1.00
H570   H     0.56273   0.86364   0.41357   0.00000  Uiso   1.00
H571   H     0.57531   0.96246   0.24525   0.00000  Uiso   1.00
H572   H     0.42461   0.70420   0.25495   0.00000  Uiso   1.00
H573   H     0.57541   0.70399   0.24505   0.00000  Uiso   1.00
H574   H     0.42464   0.96267   0.25486   0.00000  Uiso   1.00
H575   H     0.64570   0.78578   0.19856   0.00000  Uiso   1.00
H576   H     0.35432   0.88095   0.30138   0.00000  Uiso   1.00
H577   H     0.39659   0.78569   0.19865   0.00000  Uiso   1.00
H578   H     0.60339   0.88095   0.30138   0.00000  Uiso   1.00
N579   N     0.38093   0.83334   0.25001   0.00000  Uiso   1.00
N580   N     0.61907   0.83332   0.24999   0.00000  Uiso   1.00
O581   O     0.46179   0.89442   0.25001   0.00000  Uiso   1.00
O582   O     0.53821   0.77225   0.25000   0.00000  Uiso   1.00
O583   O     0.53823   0.89441   0.25000   0.00000  Uiso   1.00
O584   O     0.46177   0.77226   0.25000   0.00000  Uiso   1.00
O585   O     0.43994   0.83334   0.31613   0.00000  Uiso   1.00
O586   O     0.56006   0.83333   0.18388   0.00000  Uiso   1.00
O587   O     0.51639   0.83333   0.31612   0.00000  Uiso   1.00
O588   O     0.48361   0.83334   0.18388   0.00000  Uiso   1.00
Zn589  Zn    0.44896   0.83334   0.25000   0.00000  Uiso   1.00
Zn590  Zn    0.55104   0.83333   0.25000   0.00000  Uiso   1.00
O591   O     0.62780   0.86703   0.10559   0.00000  Uiso   1.00
C592   C     0.61712   0.90864   0.12115   0.00000  Uiso   1.00
H593   H     0.57782   0.91259   0.14524   0.00000  Uiso   1.00
H594   H     0.62540   0.93008   0.09095   0.00000  Uiso   1.00
C595   C     0.64886   0.92094   0.14767   0.00000  Uiso   1.00
H596   H     0.35507   0.91757   0.12456   0.00000  Uiso   1.00
H597   H     0.64140   0.95380   0.15945   0.00000  Uiso   1.00
H598   H     0.64042   0.90079   0.17883   0.00000  Uiso   1.00
O599   O     0.38670   0.77855   0.38463   0.00000  Uiso   1.00
C600   C     0.34279   0.80054   0.39249   0.00000  Uiso   1.00
H601   H     0.35055   0.83341   0.38084   0.00000  Uiso   1.00
H602   H     0.65119   0.79998   0.43018   0.00000  Uiso   1.00
C603   C     0.64961   0.77985   0.36483   0.00000  Uiso   1.00
H604   H     0.63856   0.74783   0.37797   0.00000  Uiso   1.00
H605   H     0.61616   0.79796   0.36881   0.00000  Uiso   1.00
H606   H     0.34087   0.77822   0.32711   0.00000  Uiso   1.00
Br607  Br    0.35067   0.74217   0.48319   0.00000  Uiso   1.00
Br608  Br    0.34065   0.88459   0.00039   0.00000  Uiso   1.00
C609   C     0.83333   0.91338   0.25000   0.00000  Uiso   1.00
C610   C     0.83334   0.75329   0.24999   0.00000  Uiso   1.00
C611   C     0.79338   0.78997   0.04191   0.00000  Uiso   1.00
C612   C     0.88534   0.85403   0.44944   0.00000  Uiso   1.00
C613   C     0.76098   0.77935   0.02132   0.00000  Uiso   1.00
C614   C     0.91919   0.86255   0.46910   0.00000  Uiso   1.00
C615   C     0.87567   0.97865   0.24730   0.00000  Uiso   1.00
C616   C     0.79100   0.68800   0.25270   0.00000  Uiso   1.00
C617   C     0.87570   0.68789   0.24725   0.00000  Uiso   1.00
C618   C     0.79102   0.97877   0.25265   0.00000  Uiso   1.00
C619   C     0.83335   0.70913   0.24998   0.00000  Uiso   1.00
C620   C     0.83334   0.95753   0.24996   0.00000  Uiso   1.00
C621   C     0.98779   0.80690   0.22142   0.00000  Uiso   1.00
C622   C     0.67891   0.85985   0.27850   0.00000  Uiso   1.00
C623   C     0.70238   0.80688   0.22146   0.00000  Uiso   1.00
C624   C     0.96429   0.85981   0.27852   0.00000  Uiso   1.00
C625   C     0.80236   0.83235   0.33810   0.00000  Uiso   1.00
C626   C     0.86430   0.83372   0.16178   0.00000  Uiso   1.00
C627   C     0.78248   0.82527   0.38851   0.00000  Uiso   1.00
C628   C     0.88438   0.83616   0.11060   0.00000  Uiso   1.00
C629   C     0.73525   0.78278   0.45548   0.00000  Uiso   1.00
C630   C     0.94345   0.86119   0.03602   0.00000  Uiso   1.00
C631   C     0.74379   0.79718   0.41023   0.00000  Uiso   1.00
C632   C     0.92980   0.85504   0.08434   0.00000  Uiso   1.00
C633   C     0.80990   0.84060   0.41247   0.00000  Uiso   1.00
C634   C     0.85425   0.82238   0.08858   0.00000  Uiso   1.00
C635   C     0.80597   0.82340   0.45503   0.00000  Uiso   1.00
C636   C     0.86604   0.82919   0.04103   0.00000  Uiso   1.00
C637   C     0.76667   0.79543   0.47778   0.00000  Uiso   1.00
C638   C     0.91013   0.85082   0.01501   0.00000  Uiso   1.00
C639   C     0.84123   0.83227   0.47454   0.00000  Uiso   1.00
C640   C     0.83330   0.81717   0.01972   0.00000  Uiso   1.00
H641   H     0.73183   0.75785   0.03993   0.00000  Uiso   1.00
H642   H     0.95214   0.87923   0.44796   0.00000  Uiso   1.00
H643   H     0.81955   0.80887   0.11041   0.00000  Uiso   1.00
H644   H     0.83630   0.86450   0.39536   0.00000  Uiso   1.00
H645   H     0.78739   0.77441   0.07439   0.00000  Uiso   1.00
H646   H     0.89607   0.86364   0.41357   0.00000  Uiso   1.00
H647   H     0.90864   0.96246   0.24525   0.00000  Uiso   1.00
H648   H     0.75795   0.70420   0.25495   0.00000  Uiso   1.00
H649   H     0.90874   0.70399   0.24505   0.00000  Uiso   1.00
H650   H     0.75798   0.96267   0.25486   0.00000  Uiso   1.00
H651   H     0.97903   0.78578   0.19856   0.00000  Uiso   1.00
H652   H     0.68765   0.88095   0.30138   0.00000  Uiso   1.00
H653   H     0.72993   0.78569   0.19865   0.00000  Uiso   1.00
H654   H     0.93673   0.88095   0.30138   0.00000  Uiso   1.00
N655   N     0.71426   0.83334   0.25001   0.00000  Uiso   1.00
N656   N     0.95241   0.83332   0.24999   0.00000  Uiso   1.00
O657   O     0.79512   0.89442   0.25001   0.00000  Uiso   1.00
O658   O     0.87154   0.77225   0.25000   0.00000  Uiso   1.00
O659   O     0.87157   0.89441   0.25000   0.00000  Uiso   1.00
O660   O     0.79510   0.77226   0.25000   0.00000  Uiso   1.00
O661   O     0.77328   0.83334   0.31613   0.00000  Uiso   1.00
O662   O     0.89339   0.83333   0.18388   0.00000  Uiso   1.00
O663   O     0.84972   0.83333   0.31612   0.00000  Uiso   1.00
O664   O     0.81695   0.83334   0.18388   0.00000  Uiso   1.00
Zn665  Zn    0.78229   0.83334   0.25000   0.00000  Uiso   1.00
Zn666  Zn    0.88438   0.83333   0.25000   0.00000  Uiso   1.00
O667   O     0.96114   0.86703   0.10559   0.00000  Uiso   1.00
C668   C     0.95046   0.90864   0.12115   0.00000  Uiso   1.00
H669   H     0.91116   0.91259   0.14524   0.00000  Uiso   1.00
H670   H     0.95873   0.93008   0.09095   0.00000  Uiso   1.00
C671   C     0.98220   0.92094   0.14767   0.00000  Uiso   1.00
H672   H     0.68840   0.91757   0.12456   0.00000  Uiso   1.00
H673   H     0.97474   0.95380   0.15945   0.00000  Uiso   1.00
H674   H     0.97375   0.90079   0.17883   0.00000  Uiso   1.00
O675   O     0.72003   0.77855   0.38463   0.00000  Uiso   1.00
C676   C     0.67612   0.80054   0.39249   0.00000  Uiso   1.00
H677   H     0.68389   0.83341   0.38084   0.00000  Uiso   1.00
H678   H     0.98453   0.79998   0.43018   0.00000  Uiso   1.00
C679   C     0.98294   0.77985   0.36483   0.00000  Uiso   1.00
H680   H     0.97190   0.74783   0.37797   0.00000  Uiso   1.00
H681   H     0.94950   0.79796   0.36881   0.00000  Uiso   1.00
H682   H     0.67420   0.77822   0.32711   0.00000  Uiso   1.00
Br683  Br    0.68400   0.74217   0.48319   0.00000  Uiso   1.00
Br684  Br    0.67398   0.88459   0.00039   0.00000  Uiso   1.00
C685   C     0.16667   0.24671   0.75000   0.00000  Uiso   1.00
C686   C     0.16667   0.08662   0.74999   0.00000  Uiso   1.00
C687   C     0.12671   0.12330   0.54191   0.00000  Uiso   1.00
C688   C     0.21867   0.18737   0.94944   0.00000  Uiso   1.00
C689   C     0.09432   0.11269   0.52132   0.00000  Uiso   1.00
C690   C     0.25253   0.19588   0.96910   0.00000  Uiso   1.00
C691   C     0.20900   0.31199   0.74730   0.00000  Uiso   1.00
C692   C     0.12434   0.02134   0.75270   0.00000  Uiso   1.00
C693   C     0.20903   0.02122   0.74725   0.00000  Uiso   1.00
C694   C     0.12435   0.31210   0.75265   0.00000  Uiso   1.00
C695   C     0.16669   0.04247   0.74998   0.00000  Uiso   1.00
C696   C     0.16668   0.29086   0.74996   0.00000  Uiso   1.00
C697   C     0.32112   0.14023   0.72142   0.00000  Uiso   1.00
C698   C     0.01224   0.19318   0.77850   0.00000  Uiso   1.00
C699   C     0.03572   0.14021   0.72146   0.00000  Uiso   1.00
C700   C     0.29762   0.19314   0.77852   0.00000  Uiso   1.00
C701   C     0.13569   0.16569   0.83810   0.00000  Uiso   1.00
C702   C     0.19764   0.16706   0.66178   0.00000  Uiso   1.00
C703   C     0.11581   0.15861   0.88851   0.00000  Uiso   1.00
C704   C     0.21771   0.16950   0.61060   0.00000  Uiso   1.00
C705   C     0.06858   0.11611   0.95548   0.00000  Uiso   1.00
C706   C     0.27678   0.19452   0.53602   0.00000  Uiso   1.00
C707   C     0.07712   0.13052   0.91023   0.00000  Uiso   1.00
C708   C     0.26314   0.18837   0.58434   0.00000  Uiso   1.00
C709   C     0.14323   0.17393   0.91247   0.00000  Uiso   1.00
C710   C     0.18758   0.15572   0.58858   0.00000  Uiso   1.00
C711   C     0.13930   0.15674   0.95503   0.00000  Uiso   1.00
C712   C     0.19938   0.16253   0.54103   0.00000  Uiso   1.00
C713   C     0.10001   0.12877   0.97778   0.00000  Uiso   1.00
C714   C     0.24346   0.18416   0.51501   0.00000  Uiso   1.00
C715   C     0.17457   0.16560   0.97454   0.00000  Uiso   1.00
C716   C     0.16664   0.15051   0.51972   0.00000  Uiso   1.00
H717   H     0.06516   0.09119   0.53993   0.00000  Uiso   1.00
H718   H     0.28547   0.21256   0.94796   0.00000  Uiso   1.00
H719   H     0.15288   0.14220   0.61041   0.00000  Uiso   1.00
H720   H     0.16963   0.19784   0.89536   0.00000  Uiso   1.00
H721   H     0.12072   0.10774   0.57439   0.00000  Uiso   1.00
H722   H     0.22940   0.19697   0.91357   0.00000  Uiso   1.00
H723   H     0.24198   0.29579   0.74525   0.00000  Uiso   1.00
H724   H     0.09128   0.03753   0.75495   0.00000  Uiso   1.00
H725   H     0.24207   0.03732   0.74505   0.00000  Uiso   1.00
H726   H     0.09131   0.29600   0.75486   0.00000  Uiso   1.00
H727   H     0.31236   0.11912   0.69856   0.00000  Uiso   1.00
H728   H     0.02099   0.21428   0.80138   0.00000  Uiso   1.00
H729   H     0.06326   0.11903   0.69865   0.00000  Uiso   1.00
H730   H     0.27006   0.21429   0.80138   0.00000  Uiso   1.00
N731   N     0.04759   0.16668   0.75001   0.00000  Uiso   1.00
N732   N     0.28574   0.16666   0.74999   0.00000  Uiso   1.00
O733   O     0.12846   0.22775   0.75001   0.00000  Uiso   1.00
O734   O     0.20488   0.10558   0.75000   0.00000  Uiso   1.00
O735   O     0.20490   0.22774   0.75000   0.00000  Uiso   1.00
O736   O     0.12843   0.10559   0.75000   0.00000  Uiso   1.00
O737   O     0.10661   0.16667   0.81613   0.00000  Uiso   1.00
O738   O     0.22672   0.16666   0.68388   0.00000  Uiso   1.00
O739   O     0.18305   0.16666   0.81612   0.00000  Uiso   1.00
O740   O     0.15028   0.16667   0.68388   0.00000  Uiso   1.00
Zn741  Zn    0.11562   0.16667   0.75000   0.00000  Uiso   1.00
Zn742  Zn    0.21771   0.16666   0.75000   0.00000  Uiso   1.00
O743   O     0.29447   0.20036   0.60559   0.00000  Uiso   1.00
C744   C     0.28379   0.24198   0.62115   0.00000  Uiso   1.00
H745   H     0.24449   0.24593   0.64524   0.00000  Uiso   1.00
H746   H     0.29207   0.26341   0.59095   0.00000  Uiso   1.00
C747   C     0.31553   0.25428   0.64767   0.00000  Uiso   1.00
H748   H     0.02174   0.25091   0.62456   0.00000  Uiso   1.00
H749   H     0.30807   0.28714   0.65945   0.00000  Uiso   1.00
H750   H     0.30708   0.23412   0.67883   0.00000  Uiso   1.00
O751   O     0.05337   0.11189   0.88463   0.00000  Uiso   1.00
C752   C     0.00946   0.13387   0.89249   0.00000  Uiso   1.00
H753   H     0.01722   0.16674   0.88084   0.00000  Uiso   1.00
H754   H     0.31786   0.13331   0.93018   0.00000  Uiso   1.00
C755   C     0.31628   0.11318   0.86483   0.00000  Uiso   1.00
H756   H     0.30523   0.08116   0.87797   0.00000  Uiso   1.00
H757   H     0.28283   0.13129   0.86881   0.00000  Uiso   1.00
H758   H     0.00754   0.11155   0.82711   0.00000  Uiso   1.00
Br759  Br    0.01733   0.07551   0.98319   0.00000  Uiso   1.00
Br760  Br    0.00731   0.21793   0.50039   0.00000  Uiso   1.00
C761   C     0.50000   0.24671   0.75000   0.00000  Uiso   1.00
C762   C     0.50000   0.08662   0.74999   0.00000  Uiso   1.00
C763   C     0.46004   0.12330   0.54191   0.00000  Uiso   1.00
C764   C     0.55201   0.18737   0.94944   0.00000  Uiso   1.00
C765   C     0.42765   0.11269   0.52132   0.00000  Uiso   1.00
C766   C     0.58586   0.19588   0.96910   0.00000  Uiso   1.00
C767   C     0.54233   0.31199   0.74730   0.00000  Uiso   1.00
C768   C     0.45767   0.02134   0.75270   0.00000  Uiso   1.00
C769   C     0.54236   0.02122   0.74725   0.00000  Uiso   1.00
C770   C     0.45768   0.31210   0.75265   0.00000  Uiso   1.00
C771   C     0.50002   0.04247   0.74998   0.00000  Uiso   1.00
C772   C     0.50001   0.29086   0.74996   0.00000  Uiso   1.00
C773   C     0.65445   0.14023   0.72142   0.00000  Uiso   1.00
C774   C     0.34558   0.19318   0.77850   0.00000  Uiso   1.00
C775   C     0.36905   0.14021   0.72146   0.00000  Uiso   1.00
C776   C     0.63095   0.19314   0.77852   0.00000  Uiso   1.00
C777   C     0.46902   0.16569   0.83810   0.00000  Uiso   1.00
C778   C     0.53097   0.16706   0.66178   0.00000  Uiso   1.00
C779   C     0.44914   0.15861   0.88851   0.00000  Uiso   1.00
C780   C     0.55105   0.16950   0.61060   0.00000  Uiso   1.00
C781   C     0.40192   0.11611   0.95548   0.00000  Uiso   1.00
C782   C     0.61012   0.19452   0.53602   0.00000  Uiso   1.00
C783   C     0.41046   0.13052   0.91023   0.00000  Uiso   1.00
C784   C     0.59647   0.18837   0.58434   0.00000  Uiso   1.00
C785   C     0.47656   0.17393   0.91247   0.00000  Uiso   1.00
C786   C     0.52091   0.15572   0.58858   0.00000  Uiso   1.00
C787   C     0.47264   0.15674   0.95503   0.00000  Uiso   1.00
C788   C     0.53271   0.16253   0.54103   0.00000  Uiso   1.00
C789   C     0.43334   0.12877   0.97778   0.00000  Uiso   1.00
C790   C     0.57679   0.18416   0.51501   0.00000  Uiso   1.00
C791   C     0.50790   0.16560   0.97454   0.00000  Uiso   1.00
C792   C     0.49997   0.15051   0.51972   0.00000  Uiso   1.00
H793   H     0.39850   0.09119   0.53993   0.00000  Uiso   1.00
H794   H     0.61880   0.21256   0.94796   0.00000  Uiso   1.00
H795   H     0.48621   0.14220   0.61041   0.00000  Uiso   1.00
H796   H     0.50297   0.19784   0.89536   0.00000  Uiso   1.00
H797   H     0.45406   0.10774   0.57439   0.00000  Uiso   1.00
H798   H     0.56273   0.19697   0.91357   0.00000  Uiso   1.00
H799   H     0.57531   0.29579   0.74525   0.00000  Uiso   1.00
H800   H     0.42461   0.03753   0.75495   0.00000  Uiso   1.00
H801   H     0.57541   0.03732   0.74505   0.00000  Uiso   1.00
H802   H     0.42464   0.29600   0.75486   0.00000  Uiso   1.00
H803   H     0.64570   0.11912   0.69856   0.00000  Uiso   1.00
H804   H     0.35432   0.21428   0.80138   0.00000  Uiso   1.00
H805   H     0.39659   0.11903   0.69865   0.00000  Uiso   1.00
H806   H     0.60339   0.21429   0.80138   0.00000  Uiso   1.00
N807   N     0.38093   0.16668   0.75001   0.00000  Uiso   1.00
N808   N     0.61907   0.16666   0.74999   0.00000  Uiso   1.00
O809   O     0.46179   0.22775   0.75001   0.00000  Uiso   1.00
O810   O     0.53821   0.10558   0.75000   0.00000  Uiso   1.00
O811   O     0.53823   0.22774   0.75000   0.00000  Uiso   1.00
O812   O     0.46177   0.10559   0.75000   0.00000  Uiso   1.00
O813   O     0.43994   0.16667   0.81613   0.00000  Uiso   1.00
O814   O     0.56006   0.16666   0.68388   0.00000  Uiso   1.00
O815   O     0.51639   0.16666   0.81612   0.00000  Uiso   1.00
O816   O     0.48361   0.16667   0.68388   0.00000  Uiso   1.00
Zn817  Zn    0.44896   0.16667   0.75000   0.00000  Uiso   1.00
Zn818  Zn    0.55104   0.16666   0.75000   0.00000  Uiso   1.00
O819   O     0.62780   0.20036   0.60559   0.00000  Uiso   1.00
C820   C     0.61712   0.24198   0.62115   0.00000  Uiso   1.00
H821   H     0.57782   0.24593   0.64524   0.00000  Uiso   1.00
H822   H     0.62540   0.26341   0.59095   0.00000  Uiso   1.00
C823   C     0.64886   0.25428   0.64767   0.00000  Uiso   1.00
H824   H     0.35507   0.25091   0.62456   0.00000  Uiso   1.00
H825   H     0.64140   0.28714   0.65945   0.00000  Uiso   1.00
H826   H     0.64042   0.23412   0.67883   0.00000  Uiso   1.00
O827   O     0.38670   0.11189   0.88463   0.00000  Uiso   1.00
C828   C     0.34279   0.13387   0.89249   0.00000  Uiso   1.00
H829   H     0.35055   0.16674   0.88084   0.00000  Uiso   1.00
H830   H     0.65119   0.13331   0.93018   0.00000  Uiso   1.00
C831   C     0.64961   0.11318   0.86483   0.00000  Uiso   1.00
H832   H     0.63856   0.08116   0.87797   0.00000  Uiso   1.00
H833   H     0.61616   0.13129   0.86881   0.00000  Uiso   1.00
H834   H     0.34087   0.11155   0.82711   0.00000  Uiso   1.00
Br835  Br    0.35067   0.07551   0.98319   0.00000  Uiso   1.00
Br836  Br    0.34065   0.21793   0.50039   0.00000  Uiso   1.00
C837   C     0.83333   0.24671   0.75000   0.00000  Uiso   1.00
C838   C     0.83334   0.08662   0.74999   0.00000  Uiso   1.00
C839   C     0.79338   0.12330   0.54191   0.00000  Uiso   1.00
C840   C     0.88534   0.18737   0.94944   0.00000  Uiso   1.00
C841   C     0.76098   0.11269   0.52132   0.00000  Uiso   1.00
C842   C     0.91919   0.19588   0.96910   0.00000  Uiso   1.00
C843   C     0.87567   0.31199   0.74730   0.00000  Uiso   1.00
C844   C     0.79100   0.02134   0.75270   0.00000  Uiso   1.00
C845   C     0.87570   0.02122   0.74725   0.00000  Uiso   1.00
C846   C     0.79102   0.31210   0.75265   0.00000  Uiso   1.00
C847   C     0.83335   0.04247   0.74998   0.00000  Uiso   1.00
C848   C     0.83334   0.29086   0.74996   0.00000  Uiso   1.00
C849   C     0.98779   0.14023   0.72142   0.00000  Uiso   1.00
C850   C     0.67891   0.19318   0.77850   0.00000  Uiso   1.00
C851   C     0.70238   0.14021   0.72146   0.00000  Uiso   1.00
C852   C     0.96429   0.19314   0.77852   0.00000  Uiso   1.00
C853   C     0.80236   0.16569   0.83810   0.00000  Uiso   1.00
C854   C     0.86430   0.16706   0.66178   0.00000  Uiso   1.00
C855   C     0.78248   0.15861   0.88851   0.00000  Uiso   1.00
C856   C     0.88438   0.16950   0.61060   0.00000  Uiso   1.00
C857   C     0.73525   0.11611   0.95548   0.00000  Uiso   1.00
C858   C     0.94345   0.19452   0.53602   0.00000  Uiso   1.00
C859   C     0.74379   0.13052   0.91023   0.00000  Uiso   1.00
C860   C     0.92980   0.18837   0.58434   0.00000  Uiso   1.00
C861   C     0.80990   0.17393   0.91247   0.00000  Uiso   1.00
C862   C     0.85425   0.15572   0.58858   0.00000  Uiso   1.00
C863   C     0.80597   0.15674   0.95503   0.00000  Uiso   1.00
C864   C     0.86604   0.16253   0.54103   0.00000  Uiso   1.00
C865   C     0.76667   0.12877   0.97778   0.00000  Uiso   1.00
C866   C     0.91013   0.18416   0.51501   0.00000  Uiso   1.00
C867   C     0.84123   0.16560   0.97454   0.00000  Uiso   1.00
C868   C     0.83330   0.15051   0.51972   0.00000  Uiso   1.00
H869   H     0.73183   0.09119   0.53993   0.00000  Uiso   1.00
H870   H     0.95214   0.21256   0.94796   0.00000  Uiso   1.00
H871   H     0.81955   0.14220   0.61041   0.00000  Uiso   1.00
H872   H     0.83630   0.19784   0.89536   0.00000  Uiso   1.00
H873   H     0.78739   0.10774   0.57439   0.00000  Uiso   1.00
H874   H     0.89607   0.19697   0.91357   0.00000  Uiso   1.00
H875   H     0.90864   0.29579   0.74525   0.00000  Uiso   1.00
H876   H     0.75795   0.03753   0.75495   0.00000  Uiso   1.00
H877   H     0.90874   0.03732   0.74505   0.00000  Uiso   1.00
H878   H     0.75798   0.29600   0.75486   0.00000  Uiso   1.00
H879   H     0.97903   0.11912   0.69856   0.00000  Uiso   1.00
H880   H     0.68765   0.21428   0.80138   0.00000  Uiso   1.00
H881   H     0.72993   0.11903   0.69865   0.00000  Uiso   1.00
H882   H     0.93673   0.21429   0.80138   0.00000  Uiso   1.00
N883   N     0.71426   0.16668   0.75001   0.00000  Uiso   1.00
N884   N     0.95241   0.16666   0.74999   0.00000  Uiso   1.00
O885   O     0.79512   0.22775   0.75001   0.00000  Uiso   1.00
O886   O     0.87154   0.10558   0.75000   0.00000  Uiso   1.00
O887   O     0.87157   0.22774   0.75000   0.00000  Uiso   1.00
O888   O     0.79510   0.10559   0.75000   0.00000  Uiso   1.00
O889   O     0.77328   0.16667   0.81613   0.00000  Uiso   1.00
O890   O     0.89339   0.16666   0.68388   0.00000  Uiso   1.00
O891   O     0.84972   0.16666   0.81612   0.00000  Uiso   1.00
O892   O     0.81695   0.16667   0.68388   0.00000  Uiso   1.00
Zn893  Zn    0.78229   0.16667   0.75000   0.00000  Uiso   1.00
Zn894  Zn    0.88438   0.16666   0.75000   0.00000  Uiso   1.00
O895   O     0.96114   0.20036   0.60559   0.00000  Uiso   1.00
C896   C     0.95046   0.24198   0.62115   0.00000  Uiso   1.00
H897   H     0.91116   0.24593   0.64524   0.00000  Uiso   1.00
H898   H     0.95873   0.26341   0.59095   0.00000  Uiso   1.00
C899   C     0.98220   0.25428   0.64767   0.00000  Uiso   1.00
H900   H     0.68840   0.25091   0.62456   0.00000  Uiso   1.00
H901   H     0.97474   0.28714   0.65945   0.00000  Uiso   1.00
H902   H     0.97375   0.23412   0.67883   0.00000  Uiso   1.00
O903   O     0.72003   0.11189   0.88463   0.00000  Uiso   1.00
C904   C     0.67612   0.13387   0.89249   0.00000  Uiso   1.00
H905   H     0.68389   0.16674   0.88084   0.00000  Uiso   1.00
H906   H     0.98453   0.13331   0.93018   0.00000  Uiso   1.00
C907   C     0.98294   0.11318   0.86483   0.00000  Uiso   1.00
H908   H     0.97190   0.08116   0.87797   0.00000  Uiso   1.00
H909   H     0.94950   0.13129   0.86881   0.00000  Uiso   1.00
H910   H     0.67420   0.11155   0.82711   0.00000  Uiso   1.00
Br911  Br    0.68400   0.07551   0.98319   0.00000  Uiso   1.00
Br912  Br    0.67398   0.21793   0.50039   0.00000  Uiso   1.00
C913   C     0.16667   0.58004   0.75000   0.00000  Uiso   1.00
C914   C     0.16667   0.41995   0.74999   0.00000  Uiso   1.00
C915   C     0.12671   0.45663   0.54191   0.00000  Uiso   1.00
C916   C     0.21867   0.52070   0.94944   0.00000  Uiso   1.00
C917   C     0.09432   0.44602   0.52132   0.00000  Uiso   1.00
C918   C     0.25253   0.52921   0.96910   0.00000  Uiso   1.00
C919   C     0.20900   0.64532   0.74730   0.00000  Uiso   1.00
C920   C     0.12434   0.35467   0.75270   0.00000  Uiso   1.00
C921   C     0.20903   0.35455   0.74725   0.00000  Uiso   1.00
C922   C     0.12435   0.64544   0.75265   0.00000  Uiso   1.00
C923   C     0.16669   0.37580   0.74998   0.00000  Uiso   1.00
C924   C     0.16668   0.62419   0.74996   0.00000  Uiso   1.00
C925   C     0.32112   0.47357   0.72142   0.00000  Uiso   1.00
C926   C     0.01224   0.52651   0.77850   0.00000  Uiso   1.00
C927   C     0.03572   0.47354   0.72146   0.00000  Uiso   1.00
C928   C     0.29762   0.52648   0.77852   0.00000  Uiso   1.00
C929   C     0.13569   0.49902   0.83810   0.00000  Uiso   1.00
C930   C     0.19764   0.50039   0.66178   0.00000  Uiso   1.00
C931   C     0.11581   0.49194   0.88851   0.00000  Uiso   1.00
C932   C     0.21771   0.50283   0.61060   0.00000  Uiso   1.00
C933   C     0.06858   0.44944   0.95548   0.00000  Uiso   1.00
C934   C     0.27678   0.52785   0.53602   0.00000  Uiso   1.00
C935   C     0.07712   0.46385   0.91023   0.00000  Uiso   1.00
C936   C     0.26314   0.52170   0.58434   0.00000  Uiso   1.00
C937   C     0.14323   0.50726   0.91247   0.00000  Uiso   1.00
C938   C     0.18758   0.48905   0.58858   0.00000  Uiso   1.00
C939   C     0.13930   0.49007   0.95503   0.00000  Uiso   1.00
C940   C     0.19938   0.49586   0.54103   0.00000  Uiso   1.00
C941   C     0.10001   0.46210   0.97778   0.00000  Uiso   1.00
C942   C     0.24346   0.51749   0.51501   0.00000  Uiso   1.00
C943   C     0.17457   0.49894   0.97454   0.00000  Uiso   1.00
C944   C     0.16664   0.48384   0.51972   0.00000  Uiso   1.00
H945   H     0.06516   0.42452   0.53993   0.00000  Uiso   1.00
H946   H     0.28547   0.54590   0.94796   0.00000  Uiso   1.00
H947   H     0.15288   0.47553   0.61041   0.00000  Uiso   1.00
H948   H     0.16963   0.53117   0.89536   0.00000  Uiso   1.00
H949   H     0.12072   0.44107   0.57439   0.00000  Uiso   1.00
H950   H     0.22940   0.53030   0.91357   0.00000  Uiso   1.00
H951   H     0.24198   0.62913   0.74525   0.00000  Uiso   1.00
H952   H     0.09128   0.37087   0.75495   0.00000  Uiso   1.00
H953   H     0.24207   0.37065   0.74505   0.00000  Uiso   1.00
H954   H     0.09131   0.62933   0.75486   0.00000  Uiso   1.00
H955   H     0.31236   0.45245   0.69856   0.00000  Uiso   1.00
H956   H     0.02099   0.54761   0.80138   0.00000  Uiso   1.00
H957   H     0.06326   0.45236   0.69865   0.00000  Uiso   1.00
H958   H     0.27006   0.54762   0.80138   0.00000  Uiso   1.00
N959   N     0.04759   0.50001   0.75001   0.00000  Uiso   1.00
N960   N     0.28574   0.49999   0.74999   0.00000  Uiso   1.00
O961   O     0.12846   0.56108   0.75001   0.00000  Uiso   1.00
O962   O     0.20488   0.43892   0.75000   0.00000  Uiso   1.00
O963   O     0.20490   0.56107   0.75000   0.00000  Uiso   1.00
O964   O     0.12843   0.43893   0.75000   0.00000  Uiso   1.00
O965   O     0.10661   0.50001   0.81613   0.00000  Uiso   1.00
O966   O     0.22672   0.49999   0.68388   0.00000  Uiso   1.00
O967   O     0.18305   0.50000   0.81612   0.00000  Uiso   1.00
O968   O     0.15028   0.50000   0.68388   0.00000  Uiso   1.00
Zn969  Zn    0.11562   0.50001   0.75000   0.00000  Uiso   1.00
Zn970  Zn    0.21771   0.49999   0.75000   0.00000  Uiso   1.00
O971   O     0.29447   0.53370   0.60559   0.00000  Uiso   1.00
C972   C     0.28379   0.57531   0.62115   0.00000  Uiso   1.00
H973   H     0.24449   0.57926   0.64524   0.00000  Uiso   1.00
H974   H     0.29207   0.59675   0.59095   0.00000  Uiso   1.00
C975   C     0.31553   0.58761   0.64767   0.00000  Uiso   1.00
H976   H     0.02174   0.58424   0.62456   0.00000  Uiso   1.00
H977   H     0.30807   0.62047   0.65945   0.00000  Uiso   1.00
H978   H     0.30708   0.56746   0.67883   0.00000  Uiso   1.00
O979   O     0.05337   0.44522   0.88463   0.00000  Uiso   1.00
C980   C     0.00946   0.46721   0.89249   0.00000  Uiso   1.00
H981   H     0.01722   0.50008   0.88084   0.00000  Uiso   1.00
H982   H     0.31786   0.46664   0.93018   0.00000  Uiso   1.00
C983   C     0.31628   0.44651   0.86483   0.00000  Uiso   1.00
H984   H     0.30523   0.41450   0.87797   0.00000  Uiso   1.00
H985   H     0.28283   0.46463   0.86881   0.00000  Uiso   1.00
H986   H     0.00754   0.44488   0.82711   0.00000  Uiso   1.00
Br987  Br    0.01733   0.40884   0.98319   0.00000  Uiso   1.00
Br988  Br    0.00731   0.55126   0.50039   0.00000  Uiso   1.00
C989   C     0.50000   0.58004   0.75000   0.00000  Uiso   1.00
C990   C     0.50000   0.41995   0.74999   0.00000  Uiso   1.00
C991   C     0.46004   0.45663   0.54191   0.00000  Uiso   1.00
C992   C     0.55201   0.52070   0.94944   0.00000  Uiso   1.00
C993   C     0.42765   0.44602   0.52132   0.00000  Uiso   1.00
C994   C     0.58586   0.52921   0.96910   0.00000  Uiso   1.00
C995   C     0.54233   0.64532   0.74730   0.00000  Uiso   1.00
C996   C     0.45767   0.35467   0.75270   0.00000  Uiso   1.00
C997   C     0.54236   0.35455   0.74725   0.00000  Uiso   1.00
C998   C     0.45768   0.64544   0.75265   0.00000  Uiso   1.00
C999   C     0.50002   0.37580   0.74998   0.00000  Uiso   1.00
C1000  C     0.50001   0.62419   0.74996   0.00000  Uiso   1.00
C1001  C     0.65445   0.47357   0.72142   0.00000  Uiso   1.00
C1002  C     0.34558   0.52651   0.77850   0.00000  Uiso   1.00
C1003  C     0.36905   0.47354   0.72146   0.00000  Uiso   1.00
C1004  C     0.63095   0.52648   0.77852   0.00000  Uiso   1.00
C1005  C     0.46902   0.49902   0.83810   0.00000  Uiso   1.00
C1006  C     0.53097   0.50039   0.66178   0.00000  Uiso   1.00
C1007  C     0.44914   0.49194   0.88851   0.00000  Uiso   1.00
C1008  C     0.55105   0.50283   0.61060   0.00000  Uiso   1.00
C1009  C     0.40192   0.44944   0.95548   0.00000  Uiso   1.00
C1010  C     0.61012   0.52785   0.53602   0.00000  Uiso   1.00
C1011  C     0.41046   0.46385   0.91023   0.00000  Uiso   1.00
C1012  C     0.59647   0.52170   0.58434   0.00000  Uiso   1.00
C1013  C     0.47656   0.50726   0.91247   0.00000  Uiso   1.00
C1014  C     0.52091   0.48905   0.58858   0.00000  Uiso   1.00
C1015  C     0.47264   0.49007   0.95503   0.00000  Uiso   1.00
C1016  C     0.53271   0.49586   0.54103   0.00000  Uiso   1.00
C1017  C     0.43334   0.46210   0.97778   0.00000  Uiso   1.00
C1018  C     0.57679   0.51749   0.51501   0.00000  Uiso   1.00
C1019  C     0.50790   0.49894   0.97454   0.00000  Uiso   1.00
C1020  C     0.49997   0.48384   0.51972   0.00000  Uiso   1.00
H1021  H     0.39850   0.42452   0.53993   0.00000  Uiso   1.00
H1022  H     0.61880   0.54590   0.94796   0.00000  Uiso   1.00
H1023  H     0.48621   0.47553   0.61041   0.00000  Uiso   1.00
H1024  H     0.50297   0.53117   0.89536   0.00000  Uiso   1.00
H1025  H     0.45406   0.44107   0.57439   0.00000  Uiso   1.00
H1026  H     0.56273   0.53030   0.91357   0.00000  Uiso   1.00
H1027  H     0.57531   0.62913   0.74525   0.00000  Uiso   1.00
H1028  H     0.42461   0.37087   0.75495   0.00000  Uiso   1.00
H1029  H     0.57541   0.37065   0.74505   0.00000  Uiso   1.00
H1030  H     0.42464   0.62933   0.75486   0.00000  Uiso   1.00
H1031  H     0.64570   0.45245   0.69856   0.00000  Uiso   1.00
H1032  H     0.35432   0.54761   0.80138   0.00000  Uiso   1.00
H1033  H     0.39659   0.45236   0.69865   0.00000  Uiso   1.00
H1034  H     0.60339   0.54762   0.80138   0.00000  Uiso   1.00
N1035  N     0.38093   0.50001   0.75001   0.00000  Uiso   1.00
N1036  N     0.61907   0.49999   0.74999   0.00000  Uiso   1.00
O1037  O     0.46179   0.56108   0.75001   0.00000  Uiso   1.00
O1038  O     0.53821   0.43892   0.75000   0.00000  Uiso   1.00
O1039  O     0.53823   0.56107   0.75000   0.00000  Uiso   1.00
O1040  O     0.46177   0.43893   0.75000   0.00000  Uiso   1.00
O1041  O     0.43994   0.50001   0.81613   0.00000  Uiso   1.00
O1042  O     0.56006   0.49999   0.68388   0.00000  Uiso   1.00
O1043  O     0.51639   0.50000   0.81612   0.00000  Uiso   1.00
O1044  O     0.48361   0.50000   0.68388   0.00000  Uiso   1.00
Zn1045 Zn    0.44896   0.50001   0.75000   0.00000  Uiso   1.00
Zn1046 Zn    0.55104   0.49999   0.75000   0.00000  Uiso   1.00
O1047  O     0.62780   0.53370   0.60559   0.00000  Uiso   1.00
C1048  C     0.61712   0.57531   0.62115   0.00000  Uiso   1.00
H1049  H     0.57782   0.57926   0.64524   0.00000  Uiso   1.00
H1050  H     0.62540   0.59675   0.59095   0.00000  Uiso   1.00
C1051  C     0.64886   0.58761   0.64767   0.00000  Uiso   1.00
H1052  H     0.35507   0.58424   0.62456   0.00000  Uiso   1.00
H1053  H     0.64140   0.62047   0.65945   0.00000  Uiso   1.00
H1054  H     0.64042   0.56746   0.67883   0.00000  Uiso   1.00
O1055  O     0.38670   0.44522   0.88463   0.00000  Uiso   1.00
C1056  C     0.34279   0.46721   0.89249   0.00000  Uiso   1.00
H1057  H     0.35055   0.50008   0.88084   0.00000  Uiso   1.00
H1058  H     0.65119   0.46664   0.93018   0.00000  Uiso   1.00
C1059  C     0.64961   0.44651   0.86483   0.00000  Uiso   1.00
H1060  H     0.63856   0.41450   0.87797   0.00000  Uiso   1.00
H1061  H     0.61616   0.46463   0.86881   0.00000  Uiso   1.00
H1062  H     0.34087   0.44488   0.82711   0.00000  Uiso   1.00
Br1063 Br    0.35067   0.40884   0.98319   0.00000  Uiso   1.00
Br1064 Br    0.34065   0.55126   0.50039   0.00000  Uiso   1.00
C1065  C     0.83333   0.58004   0.75000   0.00000  Uiso   1.00
C1066  C     0.83334   0.41995   0.74999   0.00000  Uiso   1.00
C1067  C     0.79338   0.45663   0.54191   0.00000  Uiso   1.00
C1068  C     0.88534   0.52070   0.94944   0.00000  Uiso   1.00
C1069  C     0.76098   0.44602   0.52132   0.00000  Uiso   1.00
C1070  C     0.91919   0.52921   0.96910   0.00000  Uiso   1.00
C1071  C     0.87567   0.64532   0.74730   0.00000  Uiso   1.00
C1072  C     0.79100   0.35467   0.75270   0.00000  Uiso   1.00
C1073  C     0.87570   0.35455   0.74725   0.00000  Uiso   1.00
C1074  C     0.79102   0.64544   0.75265   0.00000  Uiso   1.00
C1075  C     0.83335   0.37580   0.74998   0.00000  Uiso   1.00
C1076  C     0.83334   0.62419   0.74996   0.00000  Uiso   1.00
C1077  C     0.98779   0.47357   0.72142   0.00000  Uiso   1.00
C1078  C     0.67891   0.52651   0.77850   0.00000  Uiso   1.00
C1079  C     0.70238   0.47354   0.72146   0.00000  Uiso   1.00
C1080  C     0.96429   0.52648   0.77852   0.00000  Uiso   1.00
C1081  C     0.80236   0.49902   0.83810   0.00000  Uiso   1.00
C1082  C     0.86430   0.50039   0.66178   0.00000  Uiso   1.00
C1083  C     0.78248   0.49194   0.88851   0.00000  Uiso   1.00
C1084  C     0.88438   0.50283   0.61060   0.00000  Uiso   1.00
C1085  C     0.73525   0.44944   0.95548   0.00000  Uiso   1.00
C1086  C     0.94345   0.52785   0.53602   0.00000  Uiso   1.00
C1087  C     0.74379   0.46385   0.91023   0.00000  Uiso   1.00
C1088  C     0.92980   0.52170   0.58434   0.00000  Uiso   1.00
C1089  C     0.80990   0.50726   0.91247   0.00000  Uiso   1.00
C1090  C     0.85425   0.48905   0.58858   0.00000  Uiso   1.00
C1091  C     0.80597   0.49007   0.95503   0.00000  Uiso   1.00
C1092  C     0.86604   0.49586   0.54103   0.00000  Uiso   1.00
C1093  C     0.76667   0.46210   0.97778   0.00000  Uiso   1.00
C1094  C     0.91013   0.51749   0.51501   0.00000  Uiso   1.00
C1095  C     0.84123   0.49894   0.97454   0.00000  Uiso   1.00
C1096  C     0.83330   0.48384   0.51972   0.00000  Uiso   1.00
H1097  H     0.73183   0.42452   0.53993   0.00000  Uiso   1.00
H1098  H     0.95214   0.54590   0.94796   0.00000  Uiso   1.00
H1099  H     0.81955   0.47553   0.61041   0.00000  Uiso   1.00
H1100  H     0.83630   0.53117   0.89536   0.00000  Uiso   1.00
H1101  H     0.78739   0.44107   0.57439   0.00000  Uiso   1.00
H1102  H     0.89607   0.53030   0.91357   0.00000  Uiso   1.00
H1103  H     0.90864   0.62913   0.74525   0.00000  Uiso   1.00
H1104  H     0.75795   0.37087   0.75495   0.00000  Uiso   1.00
H1105  H     0.90874   0.37065   0.74505   0.00000  Uiso   1.00
H1106  H     0.75798   0.62933   0.75486   0.00000  Uiso   1.00
H1107  H     0.97903   0.45245   0.69856   0.00000  Uiso   1.00
H1108  H     0.68765   0.54761   0.80138   0.00000  Uiso   1.00
H1109  H     0.72993   0.45236   0.69865   0.00000  Uiso   1.00
H1110  H     0.93673   0.54762   0.80138   0.00000  Uiso   1.00
N1111  N     0.71426   0.50001   0.75001   0.00000  Uiso   1.00
N1112  N     0.95241   0.49999   0.74999   0.00000  Uiso   1.00
O1113  O     0.79512   0.56108   0.75001   0.00000  Uiso   1.00
O1114  O     0.87154   0.43892   0.75000   0.00000  Uiso   1.00
O1115  O     0.87157   0.56107   0.75000   0.00000  Uiso   1.00
O1116  O     0.79510   0.43893   0.75000   0.00000  Uiso   1.00
O1117  O     0.77328   0.50001   0.81613   0.00000  Uiso   1.00
O1118  O     0.89339   0.49999   0.68388   0.00000  Uiso   1.00
O1119  O     0.84972   0.50000   0.81612   0.00000  Uiso   1.00
O1120  O     0.81695   0.50000   0.68388   0.00000  Uiso   1.00
Zn1121 Zn    0.78229   0.50001   0.75000   0.00000  Uiso   1.00
Zn1122 Zn    0.88438   0.49999   0.75000   0.00000  Uiso   1.00
O1123  O     0.96114   0.53370   0.60559   0.00000  Uiso   1.00
C1124  C     0.95046   0.57531   0.62115   0.00000  Uiso   1.00
H1125  H     0.91116   0.57926   0.64524   0.00000  Uiso   1.00
H1126  H     0.95873   0.59675   0.59095   0.00000  Uiso   1.00
C1127  C     0.98220   0.58761   0.64767   0.00000  Uiso   1.00
H1128  H     0.68840   0.58424   0.62456   0.00000  Uiso   1.00
H1129  H     0.97474   0.62047   0.65945   0.00000  Uiso   1.00
H1130  H     0.97375   0.56746   0.67883   0.00000  Uiso   1.00
O1131  O     0.72003   0.44522   0.88463   0.00000  Uiso   1.00
C1132  C     0.67612   0.46721   0.89249   0.00000  Uiso   1.00
H1133  H     0.68389   0.50008   0.88084   0.00000  Uiso   1.00
H1134  H     0.98453   0.46664   0.93018   0.00000  Uiso   1.00
C1135  C     0.98294   0.44651   0.86483   0.00000  Uiso   1.00
H1136  H     0.97190   0.41450   0.87797   0.00000  Uiso   1.00
H1137  H     0.94950   0.46463   0.86881   0.00000  Uiso   1.00
H1138  H     0.67420   0.44488   0.82711   0.00000  Uiso   1.00
Br1139 Br    0.68400   0.40884   0.98319   0.00000  Uiso   1.00
Br1140 Br    0.67398   0.55126   0.50039   0.00000  Uiso   1.00
C1141  C     0.16667   0.91338   0.75000   0.00000  Uiso   1.00
C1142  C     0.16667   0.75329   0.74999   0.00000  Uiso   1.00
C1143  C     0.12671   0.78997   0.54191   0.00000  Uiso   1.00
C1144  C     0.21867   0.85403   0.94944   0.00000  Uiso   1.00
C1145  C     0.09432   0.77935   0.52132   0.00000  Uiso   1.00
C1146  C     0.25253   0.86255   0.96910   0.00000  Uiso   1.00
C1147  C     0.20900   0.97865   0.74730   0.00000  Uiso   1.00
C1148  C     0.12434   0.68800   0.75270   0.00000  Uiso   1.00
C1149  C     0.20903   0.68789   0.74725   0.00000  Uiso   1.00
C1150  C     0.12435   0.97877   0.75265   0.00000  Uiso   1.00
C1151  C     0.16669   0.70913   0.74998   0.00000  Uiso   1.00
C1152  C     0.16668   0.95753   0.74996   0.00000  Uiso   1.00
C1153  C     0.32112   0.80690   0.72142   0.00000  Uiso   1.00
C1154  C     0.01224   0.85985   0.77850   0.00000  Uiso   1.00
C1155  C     0.03572   0.80688   0.72146   0.00000  Uiso   1.00
C1156  C     0.29762   0.85981   0.77852   0.00000  Uiso   1.00
C1157  C     0.13569   0.83235   0.83810   0.00000  Uiso   1.00
C1158  C     0.19764   0.83372   0.66178   0.00000  Uiso   1.00
C1159  C     0.11581   0.82527   0.88851   0.00000  Uiso   1.00
C1160  C     0.21771   0.83616   0.61060   0.00000  Uiso   1.00
C1161  C     0.06858   0.78278   0.95548   0.00000  Uiso   1.00
C1162  C     0.27678   0.86119   0.53602   0.00000  Uiso   1.00
C1163  C     0.07712   0.79718   0.91023   0.00000  Uiso   1.00
C1164  C     0.26314   0.85504   0.58434   0.00000  Uiso   1.00
C1165  C     0.14323   0.84060   0.91247   0.00000  Uiso   1.00
C1166  C     0.18758   0.82238   0.58858   0.00000  Uiso   1.00
C1167  C     0.13930   0.82340   0.95503   0.00000  Uiso   1.00
C1168  C     0.19938   0.82919   0.54103   0.00000  Uiso   1.00
C1169  C     0.10001   0.79543   0.97778   0.00000  Uiso   1.00
C1170  C     0.24346   0.85082   0.51501   0.00000  Uiso   1.00
C1171  C     0.17457   0.83227   0.97454   0.00000  Uiso   1.00
C1172  C     0.16664   0.81717   0.51972   0.00000  Uiso   1.00
H1173  H     0.06516   0.75785   0.53993   0.00000  Uiso   1.00
H1174  H     0.28547   0.87923   0.94796   0.00000  Uiso   1.00
H1175  H     0.15288   0.80887   0.61041   0.00000  Uiso   1.00
H1176  H     0.16963   0.86450   0.89536   0.00000  Uiso   1.00
H1177  H     0.12072   0.77441   0.57439   0.00000  Uiso   1.00
H1178  H     0.22940   0.86364   0.91357   0.00000  Uiso   1.00
H1179  H     0.24198   0.96246   0.74525   0.00000  Uiso   1.00
H1180  H     0.09128   0.70420   0.75495   0.00000  Uiso   1.00
H1181  H     0.24207   0.70399   0.74505   0.00000  Uiso   1.00
H1182  H     0.09131   0.96267   0.75486   0.00000  Uiso   1.00
H1183  H     0.31236   0.78578   0.69856   0.00000  Uiso   1.00
H1184  H     0.02099   0.88095   0.80138   0.00000  Uiso   1.00
H1185  H     0.06326   0.78569   0.69865   0.00000  Uiso   1.00
H1186  H     0.27006   0.88095   0.80138   0.00000  Uiso   1.00
N1187  N     0.04759   0.83334   0.75001   0.00000  Uiso   1.00
N1188  N     0.28574   0.83332   0.74999   0.00000  Uiso   1.00
O1189  O     0.12846   0.89442   0.75001   0.00000  Uiso   1.00
O1190  O     0.20488   0.77225   0.75000   0.00000  Uiso   1.00
O1191  O     0.20490   0.89441   0.75000   0.00000  Uiso   1.00
O1192  O     0.12843   0.77226   0.75000   0.00000  Uiso   1.00
O1193  O     0.10661   0.83334   0.81613   0.00000  Uiso   1.00
O1194  O     0.22672   0.83333   0.68388   0.00000  Uiso   1.00
O1195  O     0.18305   0.83333   0.81612   0.00000  Uiso   1.00
O1196  O     0.15028   0.83334   0.68388   0.00000  Uiso   1.00
Zn1197 Zn    0.11562   0.83334   0.75000   0.00000  Uiso   1.00
Zn1198 Zn    0.21771   0.83333   0.75000   0.00000  Uiso   1.00
O1199  O     0.29447   0.86703   0.60559   0.00000  Uiso   1.00
C1200  C     0.28379   0.90864   0.62115   0.00000  Uiso   1.00
H1201  H     0.24449   0.91259   0.64524   0.00000  Uiso   1.00
H1202  H     0.29207   0.93008   0.59095   0.00000  Uiso   1.00
C1203  C     0.31553   0.92094   0.64767   0.00000  Uiso   1.00
H1204  H     0.02174   0.91757   0.62456   0.00000  Uiso   1.00
H1205  H     0.30807   0.95380   0.65945   0.00000  Uiso   1.00
H1206  H     0.30708   0.90079   0.67883   0.00000  Uiso   1.00
O1207  O     0.05337   0.77855   0.88463   0.00000  Uiso   1.00
C1208  C     0.00946   0.80054   0.89249   0.00000  Uiso   1.00
H1209  H     0.01722   0.83341   0.88084   0.00000  Uiso   1.00
H1210  H     0.31786   0.79998   0.93018   0.00000  Uiso   1.00
C1211  C     0.31628   0.77985   0.86483   0.00000  Uiso   1.00
H1212  H     0.30523   0.74783   0.87797   0.00000  Uiso   1.00
H1213  H     0.28283   0.79796   0.86881   0.00000  Uiso   1.00
H1214  H     0.00754   0.77822   0.82711   0.00000  Uiso   1.00
Br1215 Br    0.01733   0.74217   0.98319   0.00000  Uiso   1.00
Br1216 Br    0.00731   0.88459   0.50039   0.00000  Uiso   1.00
C1217  C     0.50000   0.91338   0.75000   0.00000  Uiso   1.00
C1218  C     0.50000   0.75329   0.74999   0.00000  Uiso   1.00
C1219  C     0.46004   0.78997   0.54191   0.00000  Uiso   1.00
C1220  C     0.55201   0.85403   0.94944   0.00000  Uiso   1.00
C1221  C     0.42765   0.77935   0.52132   0.00000  Uiso   1.00
C1222  C     0.58586   0.86255   0.96910   0.00000  Uiso   1.00
C1223  C     0.54233   0.97865   0.74730   0.00000  Uiso   1.00
C1224  C     0.45767   0.68800   0.75270   0.00000  Uiso   1.00
C1225  C     0.54236   0.68789   0.74725   0.00000  Uiso   1.00
C1226  C     0.45768   0.97877   0.75265   0.00000  Uiso   1.00
C1227  C     0.50002   0.70913   0.74998   0.00000  Uiso   1.00
C1228  C     0.50001   0.95753   0.74996   0.00000  Uiso   1.00
C1229  C     0.65445   0.80690   0.72142   0.00000  Uiso   1.00
C1230  C     0.34558   0.85985   0.77850   0.00000  Uiso   1.00
C1231  C     0.36905   0.80688   0.72146   0.00000  Uiso   1.00
C1232  C     0.63095   0.85981   0.77852   0.00000  Uiso   1.00
C1233  C     0.46902   0.83235   0.83810   0.00000  Uiso   1.00
C1234  C     0.53097   0.83372   0.66178   0.00000  Uiso   1.00
C1235  C     0.44914   0.82527   0.88851   0.00000  Uiso   1.00
C1236  C     0.55105   0.83616   0.61060   0.00000  Uiso   1.00
C1237  C     0.40192   0.78278   0.95548   0.00000  Uiso   1.00
C1238  C     0.61012   0.86119   0.53602   0.00000  Uiso   1.00
C1239  C     0.41046   0.79718   0.91023   0.00000  Uiso   1.00
C1240  C     0.59647   0.85504   0.58434   0.00000  Uiso   1.00
C1241  C     0.47656   0.84060   0.91247   0.00000  Uiso   1.00
C1242  C     0.52091   0.82238   0.58858   0.00000  Uiso   1.00
C1243  C     0.47264   0.82340   0.95503   0.00000  Uiso   1.00
C1244  C     0.53271   0.82919   0.54103   0.00000  Uiso   1.00
C1245  C     0.43334   0.79543   0.97778   0.00000  Uiso   1.00
C1246  C     0.57679   0.85082   0.51501   0.00000  Uiso   1.00
C1247  C     0.50790   0.83227   0.97454   0.00000  Uiso   1.00
C1248  C     0.49997   0.81717   0.51972   0.00000  Uiso   1.00
H1249  H     0.39850   0.75785   0.53993   0.00000  Uiso   1.00
H1250  H     0.61880   0.87923   0.94796   0.00000  Uiso   1.00
H1251  H     0.48621   0.80887   0.61041   0.00000  Uiso   1.00
H1252  H     0.50297   0.86450   0.89536   0.00000  Uiso   1.00
H1253  H     0.45406   0.77441   0.57439   0.00000  Uiso   1.00
H1254  H     0.56273   0.86364   0.91357   0.00000  Uiso   1.00
H1255  H     0.57531   0.96246   0.74525   0.00000  Uiso   1.00
H1256  H     0.42461   0.70420   0.75495   0.00000  Uiso   1.00
H1257  H     0.57541   0.70399   0.74505   0.00000  Uiso   1.00
H1258  H     0.42464   0.96267   0.75486   0.00000  Uiso   1.00
H1259  H     0.64570   0.78578   0.69856   0.00000  Uiso   1.00
H1260  H     0.35432   0.88095   0.80138   0.00000  Uiso   1.00
H1261  H     0.39659   0.78569   0.69865   0.00000  Uiso   1.00
H1262  H     0.60339   0.88095   0.80138   0.00000  Uiso   1.00
N1263  N     0.38093   0.83334   0.75001   0.00000  Uiso   1.00
N1264  N     0.61907   0.83332   0.74999   0.00000  Uiso   1.00
O1265  O     0.46179   0.89442   0.75001   0.00000  Uiso   1.00
O1266  O     0.53821   0.77225   0.75000   0.00000  Uiso   1.00
O1267  O     0.53823   0.89441   0.75000   0.00000  Uiso   1.00
O1268  O     0.46177   0.77226   0.75000   0.00000  Uiso   1.00
O1269  O     0.43994   0.83334   0.81613   0.00000  Uiso   1.00
O1270  O     0.56006   0.83333   0.68388   0.00000  Uiso   1.00
O1271  O     0.51639   0.83333   0.81612   0.00000  Uiso   1.00
O1272  O     0.48361   0.83334   0.68388   0.00000  Uiso   1.00
Zn1273 Zn    0.44896   0.83334   0.75000   0.00000  Uiso   1.00
Zn1274 Zn    0.55104   0.83333   0.75000   0.00000  Uiso   1.00
O1275  O     0.62780   0.86703   0.60559   0.00000  Uiso   1.00
C1276  C     0.61712   0.90864   0.62115   0.00000  Uiso   1.00
H1277  H     0.57782   0.91259   0.64524   0.00000  Uiso   1.00
H1278  H     0.62540   0.93008   0.59095   0.00000  Uiso   1.00
C1279  C     0.64886   0.92094   0.64767   0.00000  Uiso   1.00
H1280  H     0.35507   0.91757   0.62456   0.00000  Uiso   1.00
H1281  H     0.64140   0.95380   0.65945   0.00000  Uiso   1.00
H1282  H     0.64042   0.90079   0.67883   0.00000  Uiso   1.00
O1283  O     0.38670   0.77855   0.88463   0.00000  Uiso   1.00
C1284  C     0.34279   0.80054   0.89249   0.00000  Uiso   1.00
H1285  H     0.35055   0.83341   0.88084   0.00000  Uiso   1.00
H1286  H     0.65119   0.79998   0.93018   0.00000  Uiso   1.00
C1287  C     0.64961   0.77985   0.86483   0.00000  Uiso   1.00
H1288  H     0.63856   0.74783   0.87797   0.00000  Uiso   1.00
H1289  H     0.61616   0.79796   0.86881   0.00000  Uiso   1.00
H1290  H     0.34087   0.77822   0.82711   0.00000  Uiso   1.00
Br1291 Br    0.35067   0.74217   0.98319   0.00000  Uiso   1.00
Br1292 Br    0.34065   0.88459   0.50039   0.00000  Uiso   1.00
C1293  C     0.83333   0.91338   0.75000   0.00000  Uiso   1.00
C1294  C     0.83334   0.75329   0.74999   0.00000  Uiso   1.00
C1295  C     0.79338   0.78997   0.54191   0.00000  Uiso   1.00
C1296  C     0.88534   0.85403   0.94944   0.00000  Uiso   1.00
C1297  C     0.76098   0.77935   0.52132   0.00000  Uiso   1.00
C1298  C     0.91919   0.86255   0.96910   0.00000  Uiso   1.00
C1299  C     0.87567   0.97865   0.74730   0.00000  Uiso   1.00
C1300  C     0.79100   0.68800   0.75270   0.00000  Uiso   1.00
C1301  C     0.87570   0.68789   0.74725   0.00000  Uiso   1.00
C1302  C     0.79102   0.97877   0.75265   0.00000  Uiso   1.00
C1303  C     0.83335   0.70913   0.74998   0.00000  Uiso   1.00
C1304  C     0.83334   0.95753   0.74996   0.00000  Uiso   1.00
C1305  C     0.98779   0.80690   0.72142   0.00000  Uiso   1.00
C1306  C     0.67891   0.85985   0.77850   0.00000  Uiso   1.00
C1307  C     0.70238   0.80688   0.72146   0.00000  Uiso   1.00
C1308  C     0.96429   0.85981   0.77852   0.00000  Uiso   1.00
C1309  C     0.80236   0.83235   0.83810   0.00000  Uiso   1.00
C1310  C     0.86430   0.83372   0.66178   0.00000  Uiso   1.00
C1311  C     0.78248   0.82527   0.88851   0.00000  Uiso   1.00
C1312  C     0.88438   0.83616   0.61060   0.00000  Uiso   1.00
C1313  C     0.73525   0.78278   0.95548   0.00000  Uiso   1.00
C1314  C     0.94345   0.86119   0.53602   0.00000  Uiso   1.00
C1315  C     0.74379   0.79718   0.91023   0.00000  Uiso   1.00
C1316  C     0.92980   0.85504   0.58434   0.00000  Uiso   1.00
C1317  C     0.80990   0.84060   0.91247   0.00000  Uiso   1.00
C1318  C     0.85425   0.82238   0.58858   0.00000  Uiso   1.00
C1319  C     0.80597   0.82340   0.95503   0.00000  Uiso   1.00
C1320  C     0.86604   0.82919   0.54103   0.00000  Uiso   1.00
C1321  C     0.76667   0.79543   0.97778   0.00000  Uiso   1.00
C1322  C     0.91013   0.85082   0.51501   0.00000  Uiso   1.00
C1323  C     0.84123   0.83227   0.97454   0.00000  Uiso   1.00
C1324  C     0.83330   0.81717   0.51972   0.00000  Uiso   1.00
H1325  H     0.73183   0.75785   0.53993   0.00000  Uiso   1.00
H1326  H     0.95214   0.87923   0.94796   0.00000  Uiso   1.00
H1327  H     0.81955   0.80887   0.61041   0.00000  Uiso   1.00
H1328  H     0.83630   0.86450   0.89536   0.00000  Uiso   1.00
H1329  H     0.78739   0.77441   0.57439   0.00000  Uiso   1.00
H1330  H     0.89607   0.86364   0.91357   0.00000  Uiso   1.00
H1331  H     0.90864   0.96246   0.74525   0.00000  Uiso   1.00
H1332  H     0.75795   0.70420   0.75495   0.00000  Uiso   1.00
H1333  H     0.90874   0.70399   0.74505   0.00000  Uiso   1.00
H1334  H     0.75798   0.96267   0.75486   0.00000  Uiso   1.00
H1335  H     0.97903   0.78578   0.69856   0.00000  Uiso   1.00
H1336  H     0.68765   0.88095   0.80138   0.00000  Uiso   1.00
H1337  H     0.72993   0.78569   0.69865   0.00000  Uiso   1.00
H1338  H     0.93673   0.88095   0.80138   0.00000  Uiso   1.00
N1339  N     0.71426   0.83334   0.75001   0.00000  Uiso   1.00
N1340  N     0.95241   0.83332   0.74999   0.00000  Uiso   1.00
O1341  O     0.79512   0.89442   0.75001   0.00000  Uiso   1.00
O1342  O     0.87154   0.77225   0.75000   0.00000  Uiso   1.00
O1343  O     0.87157   0.89441   0.75000   0.00000  Uiso   1.00
O1344  O     0.79510   0.77226   0.75000   0.00000  Uiso   1.00
O1345  O     0.77328   0.83334   0.81613   0.00000  Uiso   1.00
O1346  O     0.89339   0.83333   0.68388   0.00000  Uiso   1.00
O1347  O     0.84972   0.83333   0.81612   0.00000  Uiso   1.00
O1348  O     0.81695   0.83334   0.68388   0.00000  Uiso   1.00
Zn1349 Zn    0.78229   0.83334   0.75000   0.00000  Uiso   1.00
Zn1350 Zn    0.88438   0.83333   0.75000   0.00000  Uiso   1.00
O1351  O     0.96114   0.86703   0.60559   0.00000  Uiso   1.00
C1352  C     0.95046   0.90864   0.62115   0.00000  Uiso   1.00
H1353  H     0.91116   0.91259   0.64524   0.00000  Uiso   1.00
H1354  H     0.95873   0.93008   0.59095   0.00000  Uiso   1.00
C1355  C     0.98220   0.92094   0.64767   0.00000  Uiso   1.00
H1356  H     0.68840   0.91757   0.62456   0.00000  Uiso   1.00
H1357  H     0.97474   0.95380   0.65945   0.00000  Uiso   1.00
H1358  H     0.97375   0.90079   0.67883   0.00000  Uiso   1.00
O1359  O     0.72003   0.77855   0.88463   0.00000  Uiso   1.00
C1360  C     0.67612   0.80054   0.89249   0.00000  Uiso   1.00
H1361  H     0.68389   0.83341   0.88084   0.00000  Uiso   1.00
H1362  H     0.98453   0.79998   0.93018   0.00000  Uiso   1.00
C1363  C     0.98294   0.77985   0.86483   0.00000  Uiso   1.00
H1364  H     0.97190   0.74783   0.87797   0.00000  Uiso   1.00
H1365  H     0.94950   0.79796   0.86881   0.00000  Uiso   1.00
H1366  H     0.67420   0.77822   0.82711   0.00000  Uiso   1.00
Br1367 Br    0.68400   0.74217   0.98319   0.00000  Uiso   1.00
Br1368 Br    0.67398   0.88459   0.50039   0.00000  Uiso   1.00
loop_
_geom_bond_atom_site_label_1
_geom_bond_atom_site_label_2
_geom_bond_distance
_geom_bond_site_symmetry_2
_ccdc_geom_bond_type
C1     C12     1.420   .     S
C1     O51     1.283   .     A
C1     O49     1.283   .     A
C2     O50     1.283   .     A
C2     C11     1.420   .     S
C2     O52     1.283   .     A
C3     C5      1.384   .     A
C3     C32     1.415   .     A
C3     H37     1.077   .     S
C4     C6      1.386   .     A
C4     H38     1.077   .     S
C4     C31     1.416   .     A
C5     H33     1.081   .     S
C5     C713    1.395   1_554 S
C6     H34     1.081   .     S
C6     C714    1.395   .     S
C7     C12     1.397   .     A
C7     H39     1.084   .     S
C7     C237    1.369   .     S
C8     C11     1.398   .     A
C8     H40     1.084   .     S
C8     C466    1.369   1_545 S
C9     C11     1.397   .     A
C9     H41     1.084   .     S
C9     C463    1.369   1_545 S
C10    H42     1.084   .     S
C10    C12     1.397   .     A
C10    C236    1.369   .     S
C13    N48     1.366   .     A
C13    H43     1.082   .     S
C13    C91     1.416   .     S
C14    H44     1.082   .     S
C14    N47     1.366   .     A
C14    C168    1.416   1_455 S
C15    N47     1.367   .     A
C15    H45     1.082   .     S
C15    C165    1.416   1_455 S
C16    N48     1.367   .     A
C16    H46     1.082   .     S
C16    C90     1.416   .     S
C17    O55     1.295   .     A
C17    O53     1.289   .     A
C17    C19     1.457   .     S
C18    C20     1.463   .     S
C18    O56     1.294   .     A
C18    O54     1.292   .     A
C19    C23     1.407   .     A
C19    C25     1.385   .     A
C20    C24     1.408   .     A
C20    C26     1.389   .     A
C21    C23     1.405   .     A
C21    C29     1.416   .     A
C21    Br75    1.932   .     S
C22    C30     1.416   .     A
C22    C24     1.406   .     A
C22    Br152   1.930   .     S
C23    O67     1.384   .     S
C24    O59     1.384   .     S
C25    C27     1.395   .     A
C25    H36     1.078   .     S
C26    C28     1.394   .     A
C26    H35     1.076   .     S
C27    C29     1.422   .     A
C27    C31     1.423   .     A
C28    C32     1.421   .     A
C28    C30     1.419   .     A
C29    C689    1.395   .     S
C30    C690    1.395   1_554 S
C31    C716    1.415   .     S
C32    C715    1.415   1_554 S
N47    Zn57    2.009   .     S
N48    Zn58    2.009   .     S
O49    Zn57    2.001   .     S
O50    Zn58    2.001   .     S
O51    Zn58    2.000   .     S
O52    Zn57    2.000   .     S
O53    Zn57    1.961   .     S
O54    Zn58    1.961   .     S
O55    Zn58    1.899   .     S
O56    Zn57    1.899   .     S
O59    C60     1.414   .     S
C60    C63     1.521   .     S
C60    H62     1.113   .     S
C60    H61     1.114   .     S
C63    H65     1.110   .     S
C63    H66     1.110   .     S
C63    H140    1.110   .     S
H64    C215    1.110   1_455 S
O67    C68     1.411   .     S
C68    H69     1.114   .     S
C68    H222    1.111   1_455 S
C68    C223    1.521   1_455 S
H70    C144    1.111   .     S
C71    H73     1.111   .     S
C71    H72     1.111   .     S
C71    C144    1.521   .     S
C71    H150    1.110   .     S
H74    C223    1.110   1_455 S
Br76   C174    1.930   1_455 S
C77    C88     1.420   .     S
C77    O127    1.283   .     A
C77    O125    1.283   .     A
C78    O126    1.283   .     A
C78    C87     1.420   .     S
C78    O128    1.283   .     A
C79    C81     1.384   .     A
C79    C108    1.415   .     A
C79    H113    1.077   .     S
C80    C82     1.386   .     A
C80    H114    1.077   .     S
C80    C107    1.416   .     A
C81    H109    1.081   .     S
C81    C789    1.395   1_554 S
C82    H110    1.081   .     S
C82    C790    1.395   .     S
C83    C88     1.397   .     A
C83    H115    1.084   .     S
C83    C313    1.369   .     S
C84    C87     1.398   .     A
C84    H116    1.084   .     S
C84    C542    1.369   1_545 S
C85    C87     1.397   .     A
C85    H117    1.084   .     S
C85    C539    1.369   1_545 S
C86    H118    1.084   .     S
C86    C88     1.397   .     A
C86    C312    1.369   .     S
C89    N124    1.366   .     A
C89    H119    1.082   .     S
C89    C167    1.416   .     S
C90    H120    1.082   .     S
C90    N123    1.366   .     A
C91    N123    1.367   .     A
C91    H121    1.082   .     S
C92    N124    1.367   .     A
C92    H122    1.082   .     S
C92    C166    1.416   .     S
C93    O131    1.295   .     A
C93    O129    1.289   .     A
C93    C95     1.457   .     S
C94    C96     1.463   .     S
C94    O132    1.294   .     A
C94    O130    1.292   .     A
C95    C99     1.407   .     A
C95    C101    1.385   .     A
C96    C100    1.408   .     A
C96    C102    1.389   .     A
C97    C99     1.405   .     A
C97    C105    1.416   .     A
C97    Br151   1.932   .     S
C98    C106    1.416   .     A
C98    C100    1.406   .     A
C98    Br228   1.930   .     S
C99    O143    1.384   .     S
C100   O135    1.384   .     S
C101   C103    1.395   .     A
C101   H112    1.078   .     S
C102   C104    1.394   .     A
C102   H111    1.076   .     S
C103   C105    1.422   .     A
C103   C107    1.423   .     A
C104   C108    1.421   .     A
C104   C106    1.419   .     A
C105   C765    1.395   .     S
C106   C766    1.395   1_554 S
C107   C792    1.415   .     S
C108   C791    1.415   1_554 S
N123   Zn133   2.009   .     S
N124   Zn134   2.009   .     S
O125   Zn133   2.001   .     S
O126   Zn134   2.001   .     S
O127   Zn134   2.000   .     S
O128   Zn133   2.000   .     S
O129   Zn133   1.961   .     S
O130   Zn134   1.961   .     S
O131   Zn134   1.899   .     S
O132   Zn133   1.899   .     S
O135   C136    1.414   .     S
C136   C139    1.521   .     S
C136   H138    1.113   .     S
C136   H137    1.114   .     S
C139   H141    1.110   .     S
C139   H142    1.110   .     S
C139   H216    1.110   .     S
O143   C144    1.411   .     S
C144   H145    1.114   .     S
H146   C220    1.111   .     S
C147   H149    1.111   .     S
C147   H148    1.111   .     S
C147   C220    1.521   .     S
C147   H226    1.110   .     S
C153   C164    1.420   .     S
C153   O203    1.283   .     A
C153   O201    1.283   .     A
C154   O202    1.283   .     A
C154   C163    1.420   .     S
C154   O204    1.283   .     A
C155   C157    1.384   .     A
C155   C184    1.415   .     A
C155   H189    1.077   .     S
C156   C158    1.386   .     A
C156   H190    1.077   .     S
C156   C183    1.416   .     A
C157   H185    1.081   .     S
C157   C865    1.395   1_554 S
C158   H186    1.081   .     S
C158   C866    1.395   .     S
C159   C164    1.397   .     A
C159   H191    1.084   .     S
C159   C389    1.369   .     S
C160   C163    1.398   .     A
C160   H192    1.084   .     S
C160   C618    1.369   1_545 S
C161   C163    1.397   .     A
C161   H193    1.084   .     S
C161   C615    1.369   1_545 S
C162   H194    1.084   .     S
C162   C164    1.397   .     A
C162   C388    1.369   .     S
C165   N200    1.366   .     A
C165   H195    1.082   .     S
C165   C15     1.416   1_655 S
C166   H196    1.082   .     S
C166   N199    1.366   .     A
C167   N199    1.367   .     A
C167   H197    1.082   .     S
C168   N200    1.367   .     A
C168   H198    1.082   .     S
C168   C14     1.416   1_655 S
C169   O207    1.295   .     A
C169   O205    1.289   .     A
C169   C171    1.457   .     S
C170   C172    1.463   .     S
C170   O208    1.294   .     A
C170   O206    1.292   .     A
C171   C175    1.407   .     A
C171   C177    1.385   .     A
C172   C176    1.408   .     A
C172   C178    1.389   .     A
C173   C175    1.405   .     A
C173   C181    1.416   .     A
C173   Br227   1.932   .     S
C174   C182    1.416   .     A
C174   C176    1.406   .     A
C174   Br76    1.930   1_655 S
C175   O219    1.384   .     S
C176   O211    1.384   .     S
C177   C179    1.395   .     A
C177   H188    1.078   .     S
C178   C180    1.394   .     A
C178   H187    1.076   .     S
C179   C181    1.422   .     A
C179   C183    1.423   .     A
C180   C184    1.421   .     A
C180   C182    1.419   .     A
C181   C841    1.395   .     S
C182   C842    1.395   1_554 S
C183   C868    1.415   .     S
C184   C867    1.415   1_554 S
N199   Zn209   2.009   .     S
N200   Zn210   2.009   .     S
O201   Zn209   2.001   .     S
O202   Zn210   2.001   .     S
O203   Zn210   2.000   .     S
O204   Zn209   2.000   .     S
O205   Zn209   1.961   .     S
O206   Zn210   1.961   .     S
O207   Zn210   1.899   .     S
O208   Zn209   1.899   .     S
O211   C212    1.414   .     S
C212   C215    1.521   .     S
C212   H214    1.113   .     S
C212   H213    1.114   .     S
C215   H217    1.110   .     S
C215   H218    1.110   .     S
C215   H64     1.110   1_655 S
O219   C220    1.411   .     S
C220   H221    1.114   .     S
H222   C68     1.111   1_655 S
C223   H225    1.111   .     S
C223   H224    1.111   .     S
C223   C68     1.521   1_655 S
C223   H74     1.110   1_655 S
C229   C240    1.420   .     S
C229   O279    1.283   .     A
C229   O277    1.283   .     A
C230   O278    1.283   .     A
C230   C239    1.420   .     S
C230   O280    1.283   .     A
C231   C233    1.384   .     A
C231   C260    1.415   .     A
C231   H265    1.077   .     S
C232   C234    1.386   .     A
C232   H266    1.077   .     S
C232   C259    1.416   .     A
C233   H261    1.081   .     S
C233   C941    1.395   1_554 S
C234   H262    1.081   .     S
C234   C942    1.395   .     S
C235   C240    1.397   .     A
C235   H267    1.084   .     S
C235   C465    1.369   .     S
C236   C239    1.398   .     A
C236   H268    1.084   .     S
C237   C239    1.397   .     A
C237   H269    1.084   .     S
C238   H270    1.084   .     S
C238   C240    1.397   .     A
C238   C464    1.369   .     S
C241   N276    1.366   .     A
C241   H271    1.082   .     S
C241   C319    1.416   .     S
C242   H272    1.082   .     S
C242   N275    1.366   .     A
C242   C396    1.416   1_455 S
C243   N275    1.367   .     A
C243   H273    1.082   .     S
C243   C393    1.416   1_455 S
C244   N276    1.367   .     A
C244   H274    1.082   .     S
C244   C318    1.416   .     S
C245   O283    1.295   .     A
C245   O281    1.289   .     A
C245   C247    1.457   .     S
C246   C248    1.463   .     S
C246   O284    1.294   .     A
C246   O282    1.292   .     A
C247   C251    1.407   .     A
C247   C253    1.385   .     A
C248   C252    1.408   .     A
C248   C254    1.389   .     A
C249   C251    1.405   .     A
C249   C257    1.416   .     A
C249   Br303   1.932   .     S
C250   C258    1.416   .     A
C250   C252    1.406   .     A
C250   Br380   1.930   .     S
C251   O295    1.384   .     S
C252   O287    1.384   .     S
C253   C255    1.395   .     A
C253   H264    1.078   .     S
C254   C256    1.394   .     A
C254   H263    1.076   .     S
C255   C257    1.422   .     A
C255   C259    1.423   .     A
C256   C260    1.421   .     A
C256   C258    1.419   .     A
C257   C917    1.395   .     S
C258   C918    1.395   1_554 S
C259   C944    1.415   .     S
C260   C943    1.415   1_554 S
N275   Zn285   2.009   .     S
N276   Zn286   2.009   .     S
O277   Zn285   2.001   .     S
O278   Zn286   2.001   .     S
O279   Zn286   2.000   .     S
O280   Zn285   2.000   .     S
O281   Zn285   1.961   .     S
O282   Zn286   1.961   .     S
O283   Zn286   1.899   .     S
O284   Zn285   1.899   .     S
O287   C288    1.414   .     S
C288   C291    1.521   .     S
C288   H290    1.113   .     S
C288   H289    1.114   .     S
C291   H293    1.110   .     S
C291   H294    1.110   .     S
C291   H368    1.110   .     S
H292   C443    1.110   1_455 S
O295   C296    1.411   .     S
C296   H297    1.114   .     S
C296   H450    1.111   1_455 S
C296   C451    1.521   1_455 S
H298   C372    1.111   .     S
C299   H301    1.111   .     S
C299   H300    1.111   .     S
C299   C372    1.521   .     S
C299   H378    1.110   .     S
H302   C451    1.110   1_455 S
Br304  C402    1.930   1_455 S
C305   C316    1.420   .     S
C305   O355    1.283   .     A
C305   O353    1.283   .     A
C306   O354    1.283   .     A
C306   C315    1.420   .     S
C306   O356    1.283   .     A
C307   C309    1.384   .     A
C307   C336    1.415   .     A
C307   H341    1.077   .     S
C308   C310    1.386   .     A
C308   H342    1.077   .     S
C308   C335    1.416   .     A
C309   H337    1.081   .     S
C309   C1017   1.395   1_554 S
C310   H338    1.081   .     S
C310   C1018   1.395   .     S
C311   C316    1.397   .     A
C311   H343    1.084   .     S
C311   C541    1.369   .     S
C312   C315    1.398   .     A
C312   H344    1.084   .     S
C313   C315    1.397   .     A
C313   H345    1.084   .     S
C314   H346    1.084   .     S
C314   C316    1.397   .     A
C314   C540    1.369   .     S
C317   N352    1.366   .     A
C317   H347    1.082   .     S
C317   C395    1.416   .     S
C318   H348    1.082   .     S
C318   N351    1.366   .     A
C319   N351    1.367   .     A
C319   H349    1.082   .     S
C320   N352    1.367   .     A
C320   H350    1.082   .     S
C320   C394    1.416   .     S
C321   O359    1.295   .     A
C321   O357    1.289   .     A
C321   C323    1.457   .     S
C322   C324    1.463   .     S
C322   O360    1.294   .     A
C322   O358    1.292   .     A
C323   C327    1.407   .     A
C323   C329    1.385   .     A
C324   C328    1.408   .     A
C324   C330    1.389   .     A
C325   C327    1.405   .     A
C325   C333    1.416   .     A
C325   Br379   1.932   .     S
C326   C334    1.416   .     A
C326   C328    1.406   .     A
C326   Br456   1.930   .     S
C327   O371    1.384   .     S
C328   O363    1.384   .     S
C329   C331    1.395   .     A
C329   H340    1.078   .     S
C330   C332    1.394   .     A
C330   H339    1.076   .     S
C331   C333    1.422   .     A
C331   C335    1.423   .     A
C332   C336    1.421   .     A
C332   C334    1.419   .     A
C333   C993    1.395   .     S
C334   C994    1.395   1_554 S
C335   C1020   1.415   .     S
C336   C1019   1.415   1_554 S
N351   Zn361   2.009   .     S
N352   Zn362   2.009   .     S
O353   Zn361   2.001   .     S
O354   Zn362   2.001   .     S
O355   Zn362   2.000   .     S
O356   Zn361   2.000   .     S
O357   Zn361   1.961   .     S
O358   Zn362   1.961   .     S
O359   Zn362   1.899   .     S
O360   Zn361   1.899   .     S
O363   C364    1.414   .     S
C364   C367    1.521   .     S
C364   H366    1.113   .     S
C364   H365    1.114   .     S
C367   H369    1.110   .     S
C367   H370    1.110   .     S
C367   H444    1.110   .     S
O371   C372    1.411   .     S
C372   H373    1.114   .     S
H374   C448    1.111   .     S
C375   H377    1.111   .     S
C375   H376    1.111   .     S
C375   C448    1.521   .     S
C375   H454    1.110   .     S
C381   C392    1.420   .     S
C381   O431    1.283   .     A
C381   O429    1.283   .     A
C382   O430    1.283   .     A
C382   C391    1.420   .     S
C382   O432    1.283   .     A
C383   C385    1.384   .     A
C383   C412    1.415   .     A
C383   H417    1.077   .     S
C384   C386    1.386   .     A
C384   H418    1.077   .     S
C384   C411    1.416   .     A
C385   H413    1.081   .     S
C385   C1093   1.395   1_554 S
C386   H414    1.081   .     S
C386   C1094   1.395   .     S
C387   C392    1.397   .     A
C387   H419    1.084   .     S
C387   C617    1.369   .     S
C388   C391    1.398   .     A
C388   H420    1.084   .     S
C389   C391    1.397   .     A
C389   H421    1.084   .     S
C390   H422    1.084   .     S
C390   C392    1.397   .     A
C390   C616    1.369   .     S
C393   N428    1.366   .     A
C393   H423    1.082   .     S
C393   C243    1.416   1_655 S
C394   H424    1.082   .     S
C394   N427    1.366   .     A
C395   N427    1.367   .     A
C395   H425    1.082   .     S
C396   N428    1.367   .     A
C396   H426    1.082   .     S
C396   C242    1.416   1_655 S
C397   O435    1.295   .     A
C397   O433    1.289   .     A
C397   C399    1.457   .     S
C398   C400    1.463   .     S
C398   O436    1.294   .     A
C398   O434    1.292   .     A
C399   C403    1.407   .     A
C399   C405    1.385   .     A
C400   C404    1.408   .     A
C400   C406    1.389   .     A
C401   C403    1.405   .     A
C401   C409    1.416   .     A
C401   Br455   1.932   .     S
C402   C410    1.416   .     A
C402   C404    1.406   .     A
C402   Br304   1.930   1_655 S
C403   O447    1.384   .     S
C404   O439    1.384   .     S
C405   C407    1.395   .     A
C405   H416    1.078   .     S
C406   C408    1.394   .     A
C406   H415    1.076   .     S
C407   C409    1.422   .     A
C407   C411    1.423   .     A
C408   C412    1.421   .     A
C408   C410    1.419   .     A
C409   C1069   1.395   .     S
C410   C1070   1.395   1_554 S
C411   C1096   1.415   .     S
C412   C1095   1.415   1_554 S
N427   Zn437   2.009   .     S
N428   Zn438   2.009   .     S
O429   Zn437   2.001   .     S
O430   Zn438   2.001   .     S
O431   Zn438   2.000   .     S
O432   Zn437   2.000   .     S
O433   Zn437   1.961   .     S
O434   Zn438   1.961   .     S
O435   Zn438   1.899   .     S
O436   Zn437   1.899   .     S
O439   C440    1.414   .     S
C440   C443    1.521   .     S
C440   H442    1.113   .     S
C440   H441    1.114   .     S
C443   H445    1.110   .     S
C443   H446    1.110   .     S
C443   H292    1.110   1_655 S
O447   C448    1.411   .     S
C448   H449    1.114   .     S
H450   C296    1.111   1_655 S
C451   H453    1.111   .     S
C451   H452    1.111   .     S
C451   C296    1.521   1_655 S
C451   H302    1.110   1_655 S
C457   C468    1.420   .     S
C457   O507    1.283   .     A
C457   O505    1.283   .     A
C458   O506    1.283   .     A
C458   C467    1.420   .     S
C458   O508    1.283   .     A
C459   C461    1.384   .     A
C459   C488    1.415   .     A
C459   H493    1.077   .     S
C460   C462    1.386   .     A
C460   H494    1.077   .     S
C460   C487    1.416   .     A
C461   H489    1.081   .     S
C461   C1169   1.395   1_554 S
C462   H490    1.081   .     S
C462   C1170   1.395   .     S
C463   C468    1.397   .     A
C463   H495    1.084   .     S
C463   C9      1.369   1_565 S
C464   C467    1.398   .     A
C464   H496    1.084   .     S
C465   C467    1.397   .     A
C465   H497    1.084   .     S
C466   H498    1.084   .     S
C466   C468    1.397   .     A
C466   C8      1.369   1_565 S
C469   N504    1.366   .     A
C469   H499    1.082   .     S
C469   C547    1.416   .     S
C470   H500    1.082   .     S
C470   N503    1.366   .     A
C470   C624    1.416   1_455 S
C471   N503    1.367   .     A
C471   H501    1.082   .     S
C471   C621    1.416   1_455 S
C472   N504    1.367   .     A
C472   H502    1.082   .     S
C472   C546    1.416   .     S
C473   O511    1.295   .     A
C473   O509    1.289   .     A
C473   C475    1.457   .     S
C474   C476    1.463   .     S
C474   O512    1.294   .     A
C474   O510    1.292   .     A
C475   C479    1.407   .     A
C475   C481    1.385   .     A
C476   C480    1.408   .     A
C476   C482    1.389   .     A
C477   C479    1.405   .     A
C477   C485    1.416   .     A
C477   Br531   1.932   .     S
C478   C486    1.416   .     A
C478   C480    1.406   .     A
C478   Br608   1.930   .     S
C479   O523    1.384   .     S
C480   O515    1.384   .     S
C481   C483    1.395   .     A
C481   H492    1.078   .     S
C482   C484    1.394   .     A
C482   H491    1.076   .     S
C483   C485    1.422   .     A
C483   C487    1.423   .     A
C484   C488    1.421   .     A
C484   C486    1.419   .     A
C485   C1145   1.395   .     S
C486   C1146   1.395   1_554 S
C487   C1172   1.415   .     S
C488   C1171   1.415   1_554 S
N503   Zn513   2.009   .     S
N504   Zn514   2.009   .     S
O505   Zn513   2.001   .     S
O506   Zn514   2.001   .     S
O507   Zn514   2.000   .     S
O508   Zn513   2.000   .     S
O509   Zn513   1.961   .     S
O510   Zn514   1.961   .     S
O511   Zn514   1.899   .     S
O512   Zn513   1.899   .     S
O515   C516    1.414   .     S
C516   C519    1.521   .     S
C516   H518    1.113   .     S
C516   H517    1.114   .     S
C519   H521    1.110   .     S
C519   H522    1.110   .     S
C519   H596    1.110   .     S
H520   C671    1.110   1_455 S
O523   C524    1.411   .     S
C524   H525    1.114   .     S
C524   H678    1.111   1_455 S
C524   C679    1.521   1_455 S
H526   C600    1.111   .     S
C527   H529    1.111   .     S
C527   H528    1.111   .     S
C527   C600    1.521   .     S
C527   H606    1.110   .     S
H530   C679    1.110   1_455 S
Br532  C630    1.930   1_455 S
C533   C544    1.420   .     S
C533   O583    1.283   .     A
C533   O581    1.283   .     A
C534   O582    1.283   .     A
C534   C543    1.420   .     S
C534   O584    1.283   .     A
C535   C537    1.384   .     A
C535   C564    1.415   .     A
C535   H569    1.077   .     S
C536   C538    1.386   .     A
C536   H570    1.077   .     S
C536   C563    1.416   .     A
C537   H565    1.081   .     S
C537   C1245   1.395   1_554 S
C538   H566    1.081   .     S
C538   C1246   1.395   .     S
C539   C544    1.397   .     A
C539   H571    1.084   .     S
C539   C85     1.369   1_565 S
C540   C543    1.398   .     A
C540   H572    1.084   .     S
C541   C543    1.397   .     A
C541   H573    1.084   .     S
C542   H574    1.084   .     S
C542   C544    1.397   .     A
C542   C84     1.369   1_565 S
C545   N580    1.366   .     A
C545   H575    1.082   .     S
C545   C623    1.416   .     S
C546   H576    1.082   .     S
C546   N579    1.366   .     A
C547   N579    1.367   .     A
C547   H577    1.082   .     S
C548   N580    1.367   .     A
C548   H578    1.082   .     S
C548   C622    1.416   .     S
C549   O587    1.295   .     A
C549   O585    1.289   .     A
C549   C551    1.457   .     S
C550   C552    1.463   .     S
C550   O588    1.294   .     A
C550   O586    1.292   .     A
C551   C555    1.407   .     A
C551   C557    1.385   .     A
C552   C556    1.408   .     A
C552   C558    1.389   .     A
C553   C555    1.405   .     A
C553   C561    1.416   .     A
C553   Br607   1.932   .     S
C554   C562    1.416   .     A
C554   C556    1.406   .     A
C554   Br684   1.930   .     S
C555   O599    1.384   .     S
C556   O591    1.384   .     S
C557   C559    1.395   .     A
C557   H568    1.078   .     S
C558   C560    1.394   .     A
C558   H567    1.076   .     S
C559   C561    1.422   .     A
C559   C563    1.423   .     A
C560   C564    1.421   .     A
C560   C562    1.419   .     A
C561   C1221   1.395   .     S
C562   C1222   1.395   1_554 S
C563   C1248   1.415   .     S
C564   C1247   1.415   1_554 S
N579   Zn589   2.009   .     S
N580   Zn590   2.009   .     S
O581   Zn589   2.001   .     S
O582   Zn590   2.001   .     S
O583   Zn590   2.000   .     S
O584   Zn589   2.000   .     S
O585   Zn589   1.961   .     S
O586   Zn590   1.961   .     S
O587   Zn590   1.899   .     S
O588   Zn589   1.899   .     S
O591   C592    1.414   .     S
C592   C595    1.521   .     S
C592   H594    1.113   .     S
C592   H593    1.114   .     S
C595   H597    1.110   .     S
C595   H598    1.110   .     S
C595   H672    1.110   .     S
O599   C600    1.411   .     S
C600   H601    1.114   .     S
H602   C676    1.111   .     S
C603   H605    1.111   .     S
C603   H604    1.111   .     S
C603   C676    1.521   .     S
C603   H682    1.110   .     S
C609   C620    1.420   .     S
C609   O659    1.283   .     A
C609   O657    1.283   .     A
C610   O658    1.283   .     A
C610   C619    1.420   .     S
C610   O660    1.283   .     A
C611   C613    1.384   .     A
C611   C640    1.415   .     A
C611   H645    1.077   .     S
C612   C614    1.386   .     A
C612   H646    1.077   .     S
C612   C639    1.416   .     A
C613   H641    1.081   .     S
C613   C1321   1.395   1_554 S
C614   H642    1.081   .     S
C614   C1322   1.395   .     S
C615   C620    1.397   .     A
C615   H647    1.084   .     S
C615   C161    1.369   1_565 S
C616   C619    1.398   .     A
C616   H648    1.084   .     S
C617   C619    1.397   .     A
C617   H649    1.084   .     S
C618   H650    1.084   .     S
C618   C620    1.397   .     A
C618   C160    1.369   1_565 S
C621   N656    1.366   .     A
C621   H651    1.082   .     S
C621   C471    1.416   1_655 S
C622   H652    1.082   .     S
C622   N655    1.366   .     A
C623   N655    1.367   .     A
C623   H653    1.082   .     S
C624   N656    1.367   .     A
C624   H654    1.082   .     S
C624   C470    1.416   1_655 S
C625   O663    1.295   .     A
C625   O661    1.289   .     A
C625   C627    1.457   .     S
C626   C628    1.463   .     S
C626   O664    1.294   .     A
C626   O662    1.292   .     A
C627   C631    1.407   .     A
C627   C633    1.385   .     A
C628   C632    1.408   .     A
C628   C634    1.389   .     A
C629   C631    1.405   .     A
C629   C637    1.416   .     A
C629   Br683   1.932   .     S
C630   C638    1.416   .     A
C630   C632    1.406   .     A
C630   Br532   1.930   1_655 S
C631   O675    1.384   .     S
C632   O667    1.384   .     S
C633   C635    1.395   .     A
C633   H644    1.078   .     S
C634   C636    1.394   .     A
C634   H643    1.076   .     S
C635   C637    1.422   .     A
C635   C639    1.423   .     A
C636   C640    1.421   .     A
C636   C638    1.419   .     A
C637   C1297   1.395   .     S
C638   C1298   1.395   1_554 S
C639   C1324   1.415   .     S
C640   C1323   1.415   1_554 S
N655   Zn665   2.009   .     S
N656   Zn666   2.009   .     S
O657   Zn665   2.001   .     S
O658   Zn666   2.001   .     S
O659   Zn666   2.000   .     S
O660   Zn665   2.000   .     S
O661   Zn665   1.961   .     S
O662   Zn666   1.961   .     S
O663   Zn666   1.899   .     S
O664   Zn665   1.899   .     S
O667   C668    1.414   .     S
C668   C671    1.521   .     S
C668   H670    1.113   .     S
C668   H669    1.114   .     S
C671   H673    1.110   .     S
C671   H674    1.110   .     S
C671   H520    1.110   1_655 S
O675   C676    1.411   .     S
C676   H677    1.114   .     S
H678   C524    1.111   1_655 S
C679   H681    1.111   .     S
C679   H680    1.111   .     S
C679   C524    1.521   1_655 S
C679   H530    1.110   1_655 S
C685   C696    1.420   .     S
C685   O735    1.283   .     A
C685   O733    1.283   .     A
C686   O734    1.283   .     A
C686   C695    1.420   .     S
C686   O736    1.283   .     A
C687   C689    1.384   .     A
C687   C716    1.415   .     A
C687   H721    1.077   .     S
C688   C690    1.386   .     A
C688   H722    1.077   .     S
C688   C715    1.416   .     A
C689   H717    1.081   .     S
C690   H718    1.081   .     S
C690   C30     1.395   1_556 S
C691   C696    1.397   .     A
C691   H723    1.084   .     S
C691   C921    1.369   .     S
C692   C695    1.398   .     A
C692   H724    1.084   .     S
C692   C1150   1.369   1_545 S
C693   C695    1.397   .     A
C693   H725    1.084   .     S
C693   C1147   1.369   1_545 S
C694   H726    1.084   .     S
C694   C696    1.397   .     A
C694   C920    1.369   .     S
C697   N732    1.366   .     A
C697   H727    1.082   .     S
C697   C775    1.416   .     S
C698   H728    1.082   .     S
C698   N731    1.366   .     A
C698   C852    1.416   1_455 S
C699   N731    1.367   .     A
C699   H729    1.082   .     S
C699   C849    1.416   1_455 S
C700   N732    1.367   .     A
C700   H730    1.082   .     S
C700   C774    1.416   .     S
C701   O739    1.295   .     A
C701   O737    1.289   .     A
C701   C703    1.457   .     S
C702   C704    1.463   .     S
C702   O740    1.294   .     A
C702   O738    1.292   .     A
C703   C707    1.407   .     A
C703   C709    1.385   .     A
C704   C708    1.408   .     A
C704   C710    1.389   .     A
C705   C707    1.405   .     A
C705   C713    1.416   .     A
C705   Br759   1.932   .     S
C706   C714    1.416   .     A
C706   C708    1.406   .     A
C706   Br836   1.930   .     S
C707   O751    1.384   .     S
C708   O743    1.384   .     S
C709   C711    1.395   .     A
C709   H720    1.078   .     S
C710   C712    1.394   .     A
C710   H719    1.076   .     S
C711   C713    1.422   .     A
C711   C715    1.423   .     A
C712   C716    1.421   .     A
C712   C714    1.419   .     A
C713   C5      1.395   1_556 S
C715   C32     1.415   1_556 S
N731   Zn741   2.009   .     S
N732   Zn742   2.009   .     S
O733   Zn741   2.001   .     S
O734   Zn742   2.001   .     S
O735   Zn742   2.000   .     S
O736   Zn741   2.000   .     S
O737   Zn741   1.961   .     S
O738   Zn742   1.961   .     S
O739   Zn742   1.899   .     S
O740   Zn741   1.899   .     S
O743   C744    1.414   .     S
C744   C747    1.521   .     S
C744   H746    1.113   .     S
C744   H745    1.114   .     S
C747   H749    1.110   .     S
C747   H750    1.110   .     S
C747   H824    1.110   .     S
H748   C899    1.110   1_455 S
O751   C752    1.411   .     S
C752   H753    1.114   .     S
C752   H906    1.111   1_455 S
C752   C907    1.521   1_455 S
H754   C828    1.111   .     S
C755   H757    1.111   .     S
C755   H756    1.111   .     S
C755   C828    1.521   .     S
C755   H834    1.110   .     S
H758   C907    1.110   1_455 S
Br760  C858    1.930   1_455 S
C761   C772    1.420   .     S
C761   O811    1.283   .     A
C761   O809    1.283   .     A
C762   O810    1.283   .     A
C762   C771    1.420   .     S
C762   O812    1.283   .     A
C763   C765    1.384   .     A
C763   C792    1.415   .     A
C763   H797    1.077   .     S
C764   C766    1.386   .     A
C764   H798    1.077   .     S
C764   C791    1.416   .     A
C765   H793    1.081   .     S
C766   H794    1.081   .     S
C766   C106    1.395   1_556 S
C767   C772    1.397   .     A
C767   H799    1.084   .     S
C767   C997    1.369   .     S
C768   C771    1.398   .     A
C768   H800    1.084   .     S
C768   C1226   1.369   1_545 S
C769   C771    1.397   .     A
C769   H801    1.084   .     S
C769   C1223   1.369   1_545 S
C770   H802    1.084   .     S
C770   C772    1.397   .     A
C770   C996    1.369   .     S
C773   N808    1.366   .     A
C773   H803    1.082   .     S
C773   C851    1.416   .     S
C774   H804    1.082   .     S
C774   N807    1.366   .     A
C775   N807    1.367   .     A
C775   H805    1.082   .     S
C776   N808    1.367   .     A
C776   H806    1.082   .     S
C776   C850    1.416   .     S
C777   O815    1.295   .     A
C777   O813    1.289   .     A
C777   C779    1.457   .     S
C778   C780    1.463   .     S
C778   O816    1.294   .     A
C778   O814    1.292   .     A
C779   C783    1.407   .     A
C779   C785    1.385   .     A
C780   C784    1.408   .     A
C780   C786    1.389   .     A
C781   C783    1.405   .     A
C781   C789    1.416   .     A
C781   Br835   1.932   .     S
C782   C790    1.416   .     A
C782   C784    1.406   .     A
C782   Br912   1.930   .     S
C783   O827    1.384   .     S
C784   O819    1.384   .     S
C785   C787    1.395   .     A
C785   H796    1.078   .     S
C786   C788    1.394   .     A
C786   H795    1.076   .     S
C787   C789    1.422   .     A
C787   C791    1.423   .     A
C788   C792    1.421   .     A
C788   C790    1.419   .     A
C789   C81     1.395   1_556 S
C791   C108    1.415   1_556 S
N807   Zn817   2.009   .     S
N808   Zn818   2.009   .     S
O809   Zn817   2.001   .     S
O810   Zn818   2.001   .     S
O811   Zn818   2.000   .     S
O812   Zn817   2.000   .     S
O813   Zn817   1.961   .     S
O814   Zn818   1.961   .     S
O815   Zn818   1.899   .     S
O816   Zn817   1.899   .     S
O819   C820    1.414   .     S
C820   C823    1.521   .     S
C820   H822    1.113   .     S
C820   H821    1.114   .     S
C823   H825    1.110   .     S
C823   H826    1.110   .     S
C823   H900    1.110   .     S
O827   C828    1.411   .     S
C828   H829    1.114   .     S
H830   C904    1.111   .     S
C831   H833    1.111   .     S
C831   H832    1.111   .     S
C831   C904    1.521   .     S
C831   H910    1.110   .     S
C837   C848    1.420   .     S
C837   O887    1.283   .     A
C837   O885    1.283   .     A
C838   O886    1.283   .     A
C838   C847    1.420   .     S
C838   O888    1.283   .     A
C839   C841    1.384   .     A
C839   C868    1.415   .     A
C839   H873    1.077   .     S
C840   C842    1.386   .     A
C840   H874    1.077   .     S
C840   C867    1.416   .     A
C841   H869    1.081   .     S
C842   H870    1.081   .     S
C842   C182    1.395   1_556 S
C843   C848    1.397   .     A
C843   H875    1.084   .     S
C843   C1073   1.369   .     S
C844   C847    1.398   .     A
C844   H876    1.084   .     S
C844   C1302   1.369   1_545 S
C845   C847    1.397   .     A
C845   H877    1.084   .     S
C845   C1299   1.369   1_545 S
C846   H878    1.084   .     S
C846   C848    1.397   .     A
C846   C1072   1.369   .     S
C849   N884    1.366   .     A
C849   H879    1.082   .     S
C849   C699    1.416   1_655 S
C850   H880    1.082   .     S
C850   N883    1.366   .     A
C851   N883    1.367   .     A
C851   H881    1.082   .     S
C852   N884    1.367   .     A
C852   H882    1.082   .     S
C852   C698    1.416   1_655 S
C853   O891    1.295   .     A
C853   O889    1.289   .     A
C853   C855    1.457   .     S
C854   C856    1.463   .     S
C854   O892    1.294   .     A
C854   O890    1.292   .     A
C855   C859    1.407   .     A
C855   C861    1.385   .     A
C856   C860    1.408   .     A
C856   C862    1.389   .     A
C857   C859    1.405   .     A
C857   C865    1.416   .     A
C857   Br911   1.932   .     S
C858   C866    1.416   .     A
C858   C860    1.406   .     A
C858   Br760   1.930   1_655 S
C859   O903    1.384   .     S
C860   O895    1.384   .     S
C861   C863    1.395   .     A
C861   H872    1.078   .     S
C862   C864    1.394   .     A
C862   H871    1.076   .     S
C863   C865    1.422   .     A
C863   C867    1.423   .     A
C864   C868    1.421   .     A
C864   C866    1.419   .     A
C865   C157    1.395   1_556 S
C867   C184    1.415   1_556 S
N883   Zn893   2.009   .     S
N884   Zn894   2.009   .     S
O885   Zn893   2.001   .     S
O886   Zn894   2.001   .     S
O887   Zn894   2.000   .     S
O888   Zn893   2.000   .     S
O889   Zn893   1.961   .     S
O890   Zn894   1.961   .     S
O891   Zn894   1.899   .     S
O892   Zn893   1.899   .     S
O895   C896    1.414   .     S
C896   C899    1.521   .     S
C896   H898    1.113   .     S
C896   H897    1.114   .     S
C899   H901    1.110   .     S
C899   H902    1.110   .     S
C899   H748    1.110   1_655 S
O903   C904    1.411   .     S
C904   H905    1.114   .     S
H906   C752    1.111   1_655 S
C907   H909    1.111   .     S
C907   H908    1.111   .     S
C907   C752    1.521   1_655 S
C907   H758    1.110   1_655 S
C913   C924    1.420   .     S
C913   O963    1.283   .     A
C913   O961    1.283   .     A
C914   O962    1.283   .     A
C914   C923    1.420   .     S
C914   O964    1.283   .     A
C915   C917    1.384   .     A
C915   C944    1.415   .     A
C915   H949    1.077   .     S
C916   C918    1.386   .     A
C916   H950    1.077   .     S
C916   C943    1.416   .     A
C917   H945    1.081   .     S
C918   H946    1.081   .     S
C918   C258    1.395   1_556 S
C919   C924    1.397   .     A
C919   H951    1.084   .     S
C919   C1149   1.369   .     S
C920   C923    1.398   .     A
C920   H952    1.084   .     S
C921   C923    1.397   .     A
C921   H953    1.084   .     S
C922   H954    1.084   .     S
C922   C924    1.397   .     A
C922   C1148   1.369   .     S
C925   N960    1.366   .     A
C925   H955    1.082   .     S
C925   C1003   1.416   .     S
C926   H956    1.082   .     S
C926   N959    1.366   .     A
C926   C1080   1.416   1_455 S
C927   N959    1.367   .     A
C927   H957    1.082   .     S
C927   C1077   1.416   1_455 S
C928   N960    1.367   .     A
C928   H958    1.082   .     S
C928   C1002   1.416   .     S
C929   O967    1.295   .     A
C929   O965    1.289   .     A
C929   C931    1.457   .     S
C930   C932    1.463   .     S
C930   O968    1.294   .     A
C930   O966    1.292   .     A
C931   C935    1.407   .     A
C931   C937    1.385   .     A
C932   C936    1.408   .     A
C932   C938    1.389   .     A
C933   C935    1.405   .     A
C933   C941    1.416   .     A
C933   Br987   1.932   .     S
C934   C942    1.416   .     A
C934   C936    1.406   .     A
C934   Br1064  1.930   .     S
C935   O979    1.384   .     S
C936   O971    1.384   .     S
C937   C939    1.395   .     A
C937   H948    1.078   .     S
C938   C940    1.394   .     A
C938   H947    1.076   .     S
C939   C941    1.422   .     A
C939   C943    1.423   .     A
C940   C944    1.421   .     A
C940   C942    1.419   .     A
C941   C233    1.395   1_556 S
C943   C260    1.415   1_556 S
N959   Zn969   2.009   .     S
N960   Zn970   2.009   .     S
O961   Zn969   2.001   .     S
O962   Zn970   2.001   .     S
O963   Zn970   2.000   .     S
O964   Zn969   2.000   .     S
O965   Zn969   1.961   .     S
O966   Zn970   1.961   .     S
O967   Zn970   1.899   .     S
O968   Zn969   1.899   .     S
O971   C972    1.414   .     S
C972   C975    1.521   .     S
C972   H974    1.113   .     S
C972   H973    1.114   .     S
C975   H977    1.110   .     S
C975   H978    1.110   .     S
C975   H1052   1.110   .     S
H976   C1127   1.110   1_455 S
O979   C980    1.411   .     S
C980   H981    1.114   .     S
C980   H1134   1.111   1_455 S
C980   C1135   1.521   1_455 S
H982   C1056   1.111   .     S
C983   H985    1.111   .     S
C983   H984    1.111   .     S
C983   C1056   1.521   .     S
C983   H1062   1.110   .     S
H986   C1135   1.110   1_455 S
Br988  C1086   1.930   1_455 S
C989   C1000   1.420   .     S
C989   O1039   1.283   .     A
C989   O1037   1.283   .     A
C990   O1038   1.283   .     A
C990   C999    1.420   .     S
C990   O1040   1.283   .     A
C991   C993    1.384   .     A
C991   C1020   1.415   .     A
C991   H1025   1.077   .     S
C992   C994    1.386   .     A
C992   H1026   1.077   .     S
C992   C1019   1.416   .     A
C993   H1021   1.081   .     S
C994   H1022   1.081   .     S
C994   C334    1.395   1_556 S
C995   C1000   1.397   .     A
C995   H1027   1.084   .     S
C995   C1225   1.369   .     S
C996   C999    1.398   .     A
C996   H1028   1.084   .     S
C997   C999    1.397   .     A
C997   H1029   1.084   .     S
C998   H1030   1.084   .     S
C998   C1000   1.397   .     A
C998   C1224   1.369   .     S
C1001  N1036   1.366   .     A
C1001  H1031   1.082   .     S
C1001  C1079   1.416   .     S
C1002  H1032   1.082   .     S
C1002  N1035   1.366   .     A
C1003  N1035   1.367   .     A
C1003  H1033   1.082   .     S
C1004  N1036   1.367   .     A
C1004  H1034   1.082   .     S
C1004  C1078   1.416   .     S
C1005  O1043   1.295   .     A
C1005  O1041   1.289   .     A
C1005  C1007   1.457   .     S
C1006  C1008   1.463   .     S
C1006  O1044   1.294   .     A
C1006  O1042   1.292   .     A
C1007  C1011   1.407   .     A
C1007  C1013   1.385   .     A
C1008  C1012   1.408   .     A
C1008  C1014   1.389   .     A
C1009  C1011   1.405   .     A
C1009  C1017   1.416   .     A
C1009  Br1063  1.932   .     S
C1010  C1018   1.416   .     A
C1010  C1012   1.406   .     A
C1010  Br1140  1.930   .     S
C1011  O1055   1.384   .     S
C1012  O1047   1.384   .     S
C1013  C1015   1.395   .     A
C1013  H1024   1.078   .     S
C1014  C1016   1.394   .     A
C1014  H1023   1.076   .     S
C1015  C1017   1.422   .     A
C1015  C1019   1.423   .     A
C1016  C1020   1.421   .     A
C1016  C1018   1.419   .     A
C1017  C309    1.395   1_556 S
C1019  C336    1.415   1_556 S
N1035  Zn1045  2.009   .     S
N1036  Zn1046  2.009   .     S
O1037  Zn1045  2.001   .     S
O1038  Zn1046  2.001   .     S
O1039  Zn1046  2.000   .     S
O1040  Zn1045  2.000   .     S
O1041  Zn1045  1.961   .     S
O1042  Zn1046  1.961   .     S
O1043  Zn1046  1.899   .     S
O1044  Zn1045  1.899   .     S
O1047  C1048   1.414   .     S
C1048  C1051   1.521   .     S
C1048  H1050   1.113   .     S
C1048  H1049   1.114   .     S
C1051  H1053   1.110   .     S
C1051  H1054   1.110   .     S
C1051  H1128   1.110   .     S
O1055  C1056   1.411   .     S
C1056  H1057   1.114   .     S
H1058  C1132   1.111   .     S
C1059  H1061   1.111   .     S
C1059  H1060   1.111   .     S
C1059  C1132   1.521   .     S
C1059  H1138   1.110   .     S
C1065  C1076   1.420   .     S
C1065  O1115   1.283   .     A
C1065  O1113   1.283   .     A
C1066  O1114   1.283   .     A
C1066  C1075   1.420   .     S
C1066  O1116   1.283   .     A
C1067  C1069   1.384   .     A
C1067  C1096   1.415   .     A
C1067  H1101   1.077   .     S
C1068  C1070   1.386   .     A
C1068  H1102   1.077   .     S
C1068  C1095   1.416   .     A
C1069  H1097   1.081   .     S
C1070  H1098   1.081   .     S
C1070  C410    1.395   1_556 S
C1071  C1076   1.397   .     A
C1071  H1103   1.084   .     S
C1071  C1301   1.369   .     S
C1072  C1075   1.398   .     A
C1072  H1104   1.084   .     S
C1073  C1075   1.397   .     A
C1073  H1105   1.084   .     S
C1074  H1106   1.084   .     S
C1074  C1076   1.397   .     A
C1074  C1300   1.369   .     S
C1077  N1112   1.366   .     A
C1077  H1107   1.082   .     S
C1077  C927    1.416   1_655 S
C1078  H1108   1.082   .     S
C1078  N1111   1.366   .     A
C1079  N1111   1.367   .     A
C1079  H1109   1.082   .     S
C1080  N1112   1.367   .     A
C1080  H1110   1.082   .     S
C1080  C926    1.416   1_655 S
C1081  O1119   1.295   .     A
C1081  O1117   1.289   .     A
C1081  C1083   1.457   .     S
C1082  C1084   1.463   .     S
C1082  O1120   1.294   .     A
C1082  O1118   1.292   .     A
C1083  C1087   1.407   .     A
C1083  C1089   1.385   .     A
C1084  C1088   1.408   .     A
C1084  C1090   1.389   .     A
C1085  C1087   1.405   .     A
C1085  C1093   1.416   .     A
C1085  Br1139  1.932   .     S
C1086  C1094   1.416   .     A
C1086  C1088   1.406   .     A
C1086  Br988   1.930   1_655 S
C1087  O1131   1.384   .     S
C1088  O1123   1.384   .     S
C1089  C1091   1.395   .     A
C1089  H1100   1.078   .     S
C1090  C1092   1.394   .     A
C1090  H1099   1.076   .     S
C1091  C1093   1.422   .     A
C1091  C1095   1.423   .     A
C1092  C1096   1.421   .     A
C1092  C1094   1.419   .     A
C1093  C385    1.395   1_556 S
C1095  C412    1.415   1_556 S
N1111  Zn1121  2.009   .     S
N1112  Zn1122  2.009   .     S
O1113  Zn1121  2.001   .     S
O1114  Zn1122  2.001   .     S
O1115  Zn1122  2.000   .     S
O1116  Zn1121  2.000   .     S
O1117  Zn1121  1.961   .     S
O1118  Zn1122  1.961   .     S
O1119  Zn1122  1.899   .     S
O1120  Zn1121  1.899   .     S
O1123  C1124   1.414   .     S
C1124  C1127   1.521   .     S
C1124  H1126   1.113   .     S
C1124  H1125   1.114   .     S
C1127  H1129   1.110   .     S
C1127  H1130   1.110   .     S
C1127  H976    1.110   1_655 S
O1131  C1132   1.411   .     S
C1132  H1133   1.114   .     S
H1134  C980    1.111   1_655 S
C1135  H1137   1.111   .     S
C1135  H1136   1.111   .     S
C1135  C980    1.521   1_655 S
C1135  H986    1.110   1_655 S
C1141  C1152   1.420   .     S
C1141  O1191   1.283   .     A
C1141  O1189   1.283   .     A
C1142  O1190   1.283   .     A
C1142  C1151   1.420   .     S
C1142  O1192   1.283   .     A
C1143  C1145   1.384   .     A
C1143  C1172   1.415   .     A
C1143  H1177   1.077   .     S
C1144  C1146   1.386   .     A
C1144  H1178   1.077   .     S
C1144  C1171   1.416   .     A
C1145  H1173   1.081   .     S
C1146  H1174   1.081   .     S
C1146  C486    1.395   1_556 S
C1147  C1152   1.397   .     A
C1147  H1179   1.084   .     S
C1147  C693    1.369   1_565 S
C1148  C1151   1.398   .     A
C1148  H1180   1.084   .     S
C1149  C1151   1.397   .     A
C1149  H1181   1.084   .     S
C1150  H1182   1.084   .     S
C1150  C1152   1.397   .     A
C1150  C692    1.369   1_565 S
C1153  N1188   1.366   .     A
C1153  H1183   1.082   .     S
C1153  C1231   1.416   .     S
C1154  H1184   1.082   .     S
C1154  N1187   1.366   .     A
C1154  C1308   1.416   1_455 S
C1155  N1187   1.367   .     A
C1155  H1185   1.082   .     S
C1155  C1305   1.416   1_455 S
C1156  N1188   1.367   .     A
C1156  H1186   1.082   .     S
C1156  C1230   1.416   .     S
C1157  O1195   1.295   .     A
C1157  O1193   1.289   .     A
C1157  C1159   1.457   .     S
C1158  C1160   1.463   .     S
C1158  O1196   1.294   .     A
C1158  O1194   1.292   .     A
C1159  C1163   1.407   .     A
C1159  C1165   1.385   .     A
C1160  C1164   1.408   .     A
C1160  C1166   1.389   .     A
C1161  C1163   1.405   .     A
C1161  C1169   1.416   .     A
C1161  Br1215  1.932   .     S
C1162  C1170   1.416   .     A
C1162  C1164   1.406   .     A
C1162  Br1292  1.930   .     S
C1163  O1207   1.384   .     S
C1164  O1199   1.384   .     S
C1165  C1167   1.395   .     A
C1165  H1176   1.078   .     S
C1166  C1168   1.394   .     A
C1166  H1175   1.076   .     S
C1167  C1169   1.422   .     A
C1167  C1171   1.423   .     A
C1168  C1172   1.421   .     A
C1168  C1170   1.419   .     A
C1169  C461    1.395   1_556 S
C1171  C488    1.415   1_556 S
N1187  Zn1197  2.009   .     S
N1188  Zn1198  2.009   .     S
O1189  Zn1197  2.001   .     S
O1190  Zn1198  2.001   .     S
O1191  Zn1198  2.000   .     S
O1192  Zn1197  2.000   .     S
O1193  Zn1197  1.961   .     S
O1194  Zn1198  1.961   .     S
O1195  Zn1198  1.899   .     S
O1196  Zn1197  1.899   .     S
O1199  C1200   1.414   .     S
C1200  C1203   1.521   .     S
C1200  H1202   1.113   .     S
C1200  H1201   1.114   .     S
C1203  H1205   1.110   .     S
C1203  H1206   1.110   .     S
C1203  H1280   1.110   .     S
H1204  C1355   1.110   1_455 S
O1207  C1208   1.411   .     S
C1208  H1209   1.114   .     S
C1208  H1362   1.111   1_455 S
C1208  C1363   1.521   1_455 S
H1210  C1284   1.111   .     S
C1211  H1213   1.111   .     S
C1211  H1212   1.111   .     S
C1211  C1284   1.521   .     S
C1211  H1290   1.110   .     S
H1214  C1363   1.110   1_455 S
Br1216 C1314   1.930   1_455 S
C1217  C1228   1.420   .     S
C1217  O1267   1.283   .     A
C1217  O1265   1.283   .     A
C1218  O1266   1.283   .     A
C1218  C1227   1.420   .     S
C1218  O1268   1.283   .     A
C1219  C1221   1.384   .     A
C1219  C1248   1.415   .     A
C1219  H1253   1.077   .     S
C1220  C1222   1.386   .     A
C1220  H1254   1.077   .     S
C1220  C1247   1.416   .     A
C1221  H1249   1.081   .     S
C1222  H1250   1.081   .     S
C1222  C562    1.395   1_556 S
C1223  C1228   1.397   .     A
C1223  H1255   1.084   .     S
C1223  C769    1.369   1_565 S
C1224  C1227   1.398   .     A
C1224  H1256   1.084   .     S
C1225  C1227   1.397   .     A
C1225  H1257   1.084   .     S
C1226  H1258   1.084   .     S
C1226  C1228   1.397   .     A
C1226  C768    1.369   1_565 S
C1229  N1264   1.366   .     A
C1229  H1259   1.082   .     S
C1229  C1307   1.416   .     S
C1230  H1260   1.082   .     S
C1230  N1263   1.366   .     A
C1231  N1263   1.367   .     A
C1231  H1261   1.082   .     S
C1232  N1264   1.367   .     A
C1232  H1262   1.082   .     S
C1232  C1306   1.416   .     S
C1233  O1271   1.295   .     A
C1233  O1269   1.289   .     A
C1233  C1235   1.457   .     S
C1234  C1236   1.463   .     S
C1234  O1272   1.294   .     A
C1234  O1270   1.292   .     A
C1235  C1239   1.407   .     A
C1235  C1241   1.385   .     A
C1236  C1240   1.408   .     A
C1236  C1242   1.389   .     A
C1237  C1239   1.405   .     A
C1237  C1245   1.416   .     A
C1237  Br1291  1.932   .     S
C1238  C1246   1.416   .     A
C1238  C1240   1.406   .     A
C1238  Br1368  1.930   .     S
C1239  O1283   1.384   .     S
C1240  O1275   1.384   .     S
C1241  C1243   1.395   .     A
C1241  H1252   1.078   .     S
C1242  C1244   1.394   .     A
C1242  H1251   1.076   .     S
C1243  C1245   1.422   .     A
C1243  C1247   1.423   .     A
C1244  C1248   1.421   .     A
C1244  C1246   1.419   .     A
C1245  C537    1.395   1_556 S
C1247  C564    1.415   1_556 S
N1263  Zn1273  2.009   .     S
N1264  Zn1274  2.009   .     S
O1265  Zn1273  2.001   .     S
O1266  Zn1274  2.001   .     S
O1267  Zn1274  2.000   .     S
O1268  Zn1273  2.000   .     S
O1269  Zn1273  1.961   .     S
O1270  Zn1274  1.961   .     S
O1271  Zn1274  1.899   .     S
O1272  Zn1273  1.899   .     S
O1275  C1276   1.414   .     S
C1276  C1279   1.521   .     S
C1276  H1278   1.113   .     S
C1276  H1277   1.114   .     S
C1279  H1281   1.110   .     S
C1279  H1282   1.110   .     S
C1279  H1356   1.110   .     S
O1283  C1284   1.411   .     S
C1284  H1285   1.114   .     S
H1286  C1360   1.111   .     S
C1287  H1289   1.111   .     S
C1287  H1288   1.111   .     S
C1287  C1360   1.521   .     S
C1287  H1366   1.110   .     S
C1293  C1304   1.420   .     S
C1293  O1343   1.283   .     A
C1293  O1341   1.283   .     A
C1294  O1342   1.283   .     A
C1294  C1303   1.420   .     S
C1294  O1344   1.283   .     A
C1295  C1297   1.384   .     A
C1295  C1324   1.415   .     A
C1295  H1329   1.077   .     S
C1296  C1298   1.386   .     A
C1296  H1330   1.077   .     S
C1296  C1323   1.416   .     A
C1297  H1325   1.081   .     S
C1298  H1326   1.081   .     S
C1298  C638    1.395   1_556 S
C1299  C1304   1.397   .     A
C1299  H1331   1.084   .     S
C1299  C845    1.369   1_565 S
C1300  C1303   1.398   .     A
C1300  H1332   1.084   .     S
C1301  C1303   1.397   .     A
C1301  H1333   1.084   .     S
C1302  H1334   1.084   .     S
C1302  C1304   1.397   .     A
C1302  C844    1.369   1_565 S
C1305  N1340   1.366   .     A
C1305  H1335   1.082   .     S
C1305  C1155   1.416   1_655 S
C1306  H1336   1.082   .     S
C1306  N1339   1.366   .     A
C1307  N1339   1.367   .     A
C1307  H1337   1.082   .     S
C1308  N1340   1.367   .     A
C1308  H1338   1.082   .     S
C1308  C1154   1.416   1_655 S
C1309  O1347   1.295   .     A
C1309  O1345   1.289   .     A
C1309  C1311   1.457   .     S
C1310  C1312   1.463   .     S
C1310  O1348   1.294   .     A
C1310  O1346   1.292   .     A
C1311  C1315   1.407   .     A
C1311  C1317   1.385   .     A
C1312  C1316   1.408   .     A
C1312  C1318   1.389   .     A
C1313  C1315   1.405   .     A
C1313  C1321   1.416   .     A
C1313  Br1367  1.932   .     S
C1314  C1322   1.416   .     A
C1314  C1316   1.406   .     A
C1314  Br1216  1.930   1_655 S
C1315  O1359   1.384   .     S
C1316  O1351   1.384   .     S
C1317  C1319   1.395   .     A
C1317  H1328   1.078   .     S
C1318  C1320   1.394   .     A
C1318  H1327   1.076   .     S
C1319  C1321   1.422   .     A
C1319  C1323   1.423   .     A
C1320  C1324   1.421   .     A
C1320  C1322   1.419   .     A
C1321  C613    1.395   1_556 S
C1323  C640    1.415   1_556 S
N1339  Zn1349  2.009   .     S
N1340  Zn1350  2.009   .     S
O1341  Zn1349  2.001   .     S
O1342  Zn1350  2.001   .     S
O1343  Zn1350  2.000   .     S
O1344  Zn1349  2.000   .     S
O1345  Zn1349  1.961   .     S
O1346  Zn1350  1.961   .     S
O1347  Zn1350  1.899   .     S
O1348  Zn1349  1.899   .     S
O1351  C1352   1.414   .     S
C1352  C1355   1.521   .     S
C1352  H1354   1.113   .     S
C1352  H1353   1.114   .     S
C1355  H1357   1.110   .     S
C1355  H1358   1.110   .     S
C1355  H1204   1.110   1_655 S
O1359  C1360   1.411   .     S
C1360  H1361   1.114   .     S
H1362  C1208   1.111   1_655 S
C1363  H1365   1.111   .     S
C1363  H1364   1.111   .     S
C1363  C1208   1.521   1_655 S
C1363  H1214   1.110   1_655 S
