data_str_m3_o1_o16_pcu_sym.246
_audit_creation_date              2020-01-03
_audit_creation_method            'Materials Studio'
_symmetry_space_group_name_H-M    'P1'
_symmetry_Int_Tables_number       1
_symmetry_cell_setting            triclinic
loop_
_symmetry_equiv_pos_as_xyz
  x,y,z
_cell_length_a                    29.5725
_cell_length_b                    32.0363
_cell_length_c                    26.2193
_cell_angle_alpha                 90.4615
_cell_angle_beta                  69.5368
_cell_angle_gamma                 90.3629
loop_
_atom_site_label
_atom_site_type_symbol
_atom_site_fract_x
_atom_site_fract_y
_atom_site_fract_z
_atom_site_U_iso_or_equiv
_atom_site_adp_type
_atom_site_occupancy
C1     C     0.16730   0.24666   0.24854   0.00000  Uiso   1.00
C2     C     0.14382   0.17267   0.49305   0.00000  Uiso   1.00
C3     C     0.15206   0.18488   0.43917   0.00000  Uiso   1.00
C4     C     0.18113   0.17852   0.01446   0.00000  Uiso   1.00
C5     C     0.22238   0.20283   0.48608   0.00000  Uiso   1.00
C6     C     0.22646   0.22019   0.43613   0.00000  Uiso   1.00
C7     C     0.19161   0.21156   0.41308   0.00000  Uiso   1.00
C8     C     0.17841   0.16059   0.06353   0.00000  Uiso   1.00
C9     C     0.25141   0.19602   0.06140   0.00000  Uiso   1.00
C10    C     0.12075   0.16994   0.41266   0.00000  Uiso   1.00
C11    C     0.21094   0.31265   0.21905   0.00000  Uiso   1.00
C12    C     0.13944   0.16792   0.35262   0.00000  Uiso   1.00
C13    C     0.21010   0.02219   0.22054   0.00000  Uiso   1.00
C14    C     0.16688   0.04266   0.24814   0.00000  Uiso   1.00
C15    C     0.12403   0.02108   0.27387   0.00000  Uiso   1.00
C16    C     0.12469   0.31166   0.27358   0.00000  Uiso   1.00
C17    C     0.16803   0.29086   0.24680   0.00000  Uiso   1.00
C18    C     0.31840   0.13851   0.21930   0.00000  Uiso   1.00
C19    C     0.03291   0.13841   0.21913   0.00000  Uiso   1.00
C20    C     0.01468   0.19489   0.28076   0.00000  Uiso   1.00
C21    C     0.30016   0.19498   0.28056   0.00000  Uiso   1.00
C22    C     0.16662   0.08671   0.24968   0.00000  Uiso   1.00
C23    C     0.19362   0.16682   0.14771   0.00000  Uiso   1.00
C24    C     0.25801   0.21045   0.00916   0.00000  Uiso   1.00
C25    C     0.21041   0.17221   0.08912   0.00000  Uiso   1.00
C26    C     0.07482   0.15286   0.44444   0.00000  Uiso   1.00
C27    C     0.06392   0.14779   0.00034   0.00000  Uiso   1.00
C28    C     0.09821   0.15607   0.02402   0.00000  Uiso   1.00
H29    H     0.27666   0.20523   0.08104   0.00000  Uiso   1.00
H30    H     0.24284   0.03954   0.19940   0.00000  Uiso   1.00
H31    H     0.09050   0.03719   0.29496   0.00000  Uiso   1.00
H32    H     0.09157   0.29489   0.29487   0.00000  Uiso   1.00
H33    H     0.30741   0.11608   0.19476   0.00000  Uiso   1.00
H34    H     0.02533   0.21746   0.30538   0.00000  Uiso   1.00
H35    H     0.27481   0.21784   0.30472   0.00000  Uiso   1.00
H36    H     0.25675   0.24017   0.41465   0.00000  Uiso   1.00
H37    H     0.28950   0.22925   0.48806   0.00000  Uiso   1.00
H38    H     0.14995   0.13897   0.08431   0.00000  Uiso   1.00
H39    H     0.08730   0.15072   0.06723   0.00000  Uiso   1.00
H40    H     0.02918   0.13547   0.02572   0.00000  Uiso   1.00
H41    H     0.19540   0.22668   0.37507   0.00000  Uiso   1.00
N42    N     0.04760   0.16668   0.25001   0.00000  Uiso   1.00
N43    N     0.28573   0.16665   0.25001   0.00000  Uiso   1.00
O44    O     0.12846   0.22775   0.25000   0.00000  Uiso   1.00
O45    O     0.20490   0.22774   0.25000   0.00000  Uiso   1.00
O46    O     0.10947   0.16666   0.32681   0.00000  Uiso   1.00
O47    O     0.18591   0.16665   0.32681   0.00000  Uiso   1.00
O48    O     0.12843   0.10559   0.24999   0.00000  Uiso   1.00
O49    O     0.20488   0.10558   0.24999   0.00000  Uiso   1.00
O50    O     0.14742   0.16668   0.17319   0.00000  Uiso   1.00
O51    O     0.22387   0.16667   0.17319   0.00000  Uiso   1.00
Zn52   Zn    0.11562   0.16667   0.25000   0.00000  Uiso   1.00
Zn53   Zn    0.21771   0.16666   0.25000   0.00000  Uiso   1.00
Cl54   Cl    0.07262   0.10114   0.17817   0.00000  Uiso   1.00
C55    C     0.03656   0.13892   0.42152   0.00000  Uiso   1.00
C56    C     0.04720   0.09538   0.39606   0.00000  Uiso   1.00
H57    H     0.08383   0.09376   0.36478   0.00000  Uiso   1.00
H58    H     0.04466   0.07200   0.42801   0.00000  Uiso   1.00
H59    H     0.02036   0.08725   0.37668   0.00000  Uiso   1.00
H60    H     0.00055   0.13759   0.45442   0.00000  Uiso   1.00
H61    H     0.03195   0.16201   0.39249   0.00000  Uiso   1.00
Cl62   Cl    0.26552   0.28819   0.17982   0.00000  Uiso   1.00
C63    C     0.50064   0.24666   0.24854   0.00000  Uiso   1.00
C64    C     0.47715   0.17267   0.49305   0.00000  Uiso   1.00
C65    C     0.48540   0.18488   0.43917   0.00000  Uiso   1.00
C66    C     0.51446   0.17852   0.01446   0.00000  Uiso   1.00
C67    C     0.55571   0.20283   0.48608   0.00000  Uiso   1.00
C68    C     0.55980   0.22019   0.43613   0.00000  Uiso   1.00
C69    C     0.52495   0.21156   0.41308   0.00000  Uiso   1.00
C70    C     0.51174   0.16059   0.06353   0.00000  Uiso   1.00
C71    C     0.58475   0.19602   0.06140   0.00000  Uiso   1.00
C72    C     0.45408   0.16994   0.41266   0.00000  Uiso   1.00
C73    C     0.54428   0.31265   0.21905   0.00000  Uiso   1.00
C74    C     0.47277   0.16792   0.35262   0.00000  Uiso   1.00
C75    C     0.54344   0.02219   0.22054   0.00000  Uiso   1.00
C76    C     0.50022   0.04266   0.24814   0.00000  Uiso   1.00
C77    C     0.45736   0.02108   0.27387   0.00000  Uiso   1.00
C78    C     0.45802   0.31166   0.27358   0.00000  Uiso   1.00
C79    C     0.50137   0.29086   0.24680   0.00000  Uiso   1.00
C80    C     0.65173   0.13851   0.21930   0.00000  Uiso   1.00
C81    C     0.36624   0.13841   0.21913   0.00000  Uiso   1.00
C82    C     0.34801   0.19489   0.28076   0.00000  Uiso   1.00
C83    C     0.63350   0.19498   0.28056   0.00000  Uiso   1.00
C84    C     0.49996   0.08671   0.24968   0.00000  Uiso   1.00
C85    C     0.52695   0.16682   0.14771   0.00000  Uiso   1.00
C86    C     0.59134   0.21045   0.00916   0.00000  Uiso   1.00
C87    C     0.54375   0.17221   0.08912   0.00000  Uiso   1.00
C88    C     0.40815   0.15286   0.44444   0.00000  Uiso   1.00
C89    C     0.39725   0.14779   0.00034   0.00000  Uiso   1.00
C90    C     0.43154   0.15607   0.02402   0.00000  Uiso   1.00
H91    H     0.61000   0.20523   0.08104   0.00000  Uiso   1.00
H92    H     0.57617   0.03954   0.19940   0.00000  Uiso   1.00
H93    H     0.42383   0.03719   0.29496   0.00000  Uiso   1.00
H94    H     0.42491   0.29489   0.29487   0.00000  Uiso   1.00
H95    H     0.64075   0.11608   0.19476   0.00000  Uiso   1.00
H96    H     0.35866   0.21746   0.30538   0.00000  Uiso   1.00
H97    H     0.60814   0.21784   0.30472   0.00000  Uiso   1.00
H98    H     0.59009   0.24017   0.41465   0.00000  Uiso   1.00
H99    H     0.62284   0.22925   0.48806   0.00000  Uiso   1.00
H100   H     0.48328   0.13897   0.08431   0.00000  Uiso   1.00
H101   H     0.42063   0.15072   0.06723   0.00000  Uiso   1.00
H102   H     0.36252   0.13547   0.02572   0.00000  Uiso   1.00
H103   H     0.52873   0.22668   0.37507   0.00000  Uiso   1.00
N104   N     0.38093   0.16668   0.25001   0.00000  Uiso   1.00
N105   N     0.61906   0.16665   0.25001   0.00000  Uiso   1.00
O106   O     0.46179   0.22775   0.25000   0.00000  Uiso   1.00
O107   O     0.53823   0.22774   0.25000   0.00000  Uiso   1.00
O108   O     0.44280   0.16666   0.32681   0.00000  Uiso   1.00
O109   O     0.51924   0.16665   0.32681   0.00000  Uiso   1.00
O110   O     0.46177   0.10559   0.24999   0.00000  Uiso   1.00
O111   O     0.53821   0.10558   0.24999   0.00000  Uiso   1.00
O112   O     0.48076   0.16668   0.17319   0.00000  Uiso   1.00
O113   O     0.55720   0.16667   0.17319   0.00000  Uiso   1.00
Zn114  Zn    0.44896   0.16667   0.25000   0.00000  Uiso   1.00
Zn115  Zn    0.55104   0.16666   0.25000   0.00000  Uiso   1.00
Cl116  Cl    0.40595   0.10114   0.17817   0.00000  Uiso   1.00
C117   C     0.36989   0.13892   0.42152   0.00000  Uiso   1.00
C118   C     0.38053   0.09538   0.39606   0.00000  Uiso   1.00
H119   H     0.41716   0.09376   0.36478   0.00000  Uiso   1.00
H120   H     0.37800   0.07200   0.42801   0.00000  Uiso   1.00
H121   H     0.35370   0.08725   0.37668   0.00000  Uiso   1.00
H122   H     0.33388   0.13759   0.45442   0.00000  Uiso   1.00
H123   H     0.36528   0.16201   0.39249   0.00000  Uiso   1.00
Cl124  Cl    0.59886   0.28819   0.17982   0.00000  Uiso   1.00
C125   C     0.83397   0.24666   0.24854   0.00000  Uiso   1.00
C126   C     0.81048   0.17267   0.49305   0.00000  Uiso   1.00
C127   C     0.81873   0.18488   0.43917   0.00000  Uiso   1.00
C128   C     0.84779   0.17852   0.01446   0.00000  Uiso   1.00
C129   C     0.88904   0.20283   0.48608   0.00000  Uiso   1.00
C130   C     0.89313   0.22019   0.43613   0.00000  Uiso   1.00
C131   C     0.85828   0.21156   0.41308   0.00000  Uiso   1.00
C132   C     0.84508   0.16059   0.06353   0.00000  Uiso   1.00
C133   C     0.91808   0.19602   0.06140   0.00000  Uiso   1.00
C134   C     0.78742   0.16994   0.41266   0.00000  Uiso   1.00
C135   C     0.87761   0.31265   0.21905   0.00000  Uiso   1.00
C136   C     0.80610   0.16792   0.35262   0.00000  Uiso   1.00
C137   C     0.87677   0.02219   0.22054   0.00000  Uiso   1.00
C138   C     0.83355   0.04266   0.24814   0.00000  Uiso   1.00
C139   C     0.79070   0.02108   0.27387   0.00000  Uiso   1.00
C140   C     0.79136   0.31166   0.27358   0.00000  Uiso   1.00
C141   C     0.83470   0.29086   0.24680   0.00000  Uiso   1.00
C142   C     0.98506   0.13851   0.21930   0.00000  Uiso   1.00
C143   C     0.69958   0.13841   0.21913   0.00000  Uiso   1.00
C144   C     0.68135   0.19489   0.28076   0.00000  Uiso   1.00
C145   C     0.96683   0.19498   0.28056   0.00000  Uiso   1.00
C146   C     0.83329   0.08671   0.24968   0.00000  Uiso   1.00
C147   C     0.86028   0.16682   0.14771   0.00000  Uiso   1.00
C148   C     0.92467   0.21045   0.00916   0.00000  Uiso   1.00
C149   C     0.87708   0.17221   0.08912   0.00000  Uiso   1.00
C150   C     0.74148   0.15286   0.44444   0.00000  Uiso   1.00
C151   C     0.73058   0.14779   0.00034   0.00000  Uiso   1.00
C152   C     0.76488   0.15607   0.02402   0.00000  Uiso   1.00
H153   H     0.94333   0.20523   0.08104   0.00000  Uiso   1.00
H154   H     0.90951   0.03954   0.19940   0.00000  Uiso   1.00
H155   H     0.75717   0.03719   0.29496   0.00000  Uiso   1.00
H156   H     0.75824   0.29489   0.29487   0.00000  Uiso   1.00
H157   H     0.97408   0.11608   0.19476   0.00000  Uiso   1.00
H158   H     0.69200   0.21746   0.30538   0.00000  Uiso   1.00
H159   H     0.94148   0.21784   0.30472   0.00000  Uiso   1.00
H160   H     0.92342   0.24017   0.41465   0.00000  Uiso   1.00
H161   H     0.95617   0.22925   0.48806   0.00000  Uiso   1.00
H162   H     0.81661   0.13897   0.08431   0.00000  Uiso   1.00
H163   H     0.75397   0.15072   0.06723   0.00000  Uiso   1.00
H164   H     0.69585   0.13547   0.02572   0.00000  Uiso   1.00
H165   H     0.86207   0.22668   0.37507   0.00000  Uiso   1.00
N166   N     0.71426   0.16668   0.25001   0.00000  Uiso   1.00
N167   N     0.95239   0.16665   0.25001   0.00000  Uiso   1.00
O168   O     0.79512   0.22775   0.25000   0.00000  Uiso   1.00
O169   O     0.87157   0.22774   0.25000   0.00000  Uiso   1.00
O170   O     0.77613   0.16666   0.32681   0.00000  Uiso   1.00
O171   O     0.85258   0.16665   0.32681   0.00000  Uiso   1.00
O172   O     0.79510   0.10559   0.24999   0.00000  Uiso   1.00
O173   O     0.87154   0.10558   0.24999   0.00000  Uiso   1.00
O174   O     0.81409   0.16668   0.17319   0.00000  Uiso   1.00
O175   O     0.89053   0.16667   0.17319   0.00000  Uiso   1.00
Zn176  Zn    0.78229   0.16667   0.25000   0.00000  Uiso   1.00
Zn177  Zn    0.88438   0.16666   0.25000   0.00000  Uiso   1.00
Cl178  Cl    0.73928   0.10114   0.17817   0.00000  Uiso   1.00
C179   C     0.70323   0.13892   0.42152   0.00000  Uiso   1.00
C180   C     0.71386   0.09538   0.39606   0.00000  Uiso   1.00
H181   H     0.75050   0.09376   0.36478   0.00000  Uiso   1.00
H182   H     0.71133   0.07200   0.42801   0.00000  Uiso   1.00
H183   H     0.68703   0.08725   0.37668   0.00000  Uiso   1.00
H184   H     0.66721   0.13759   0.45442   0.00000  Uiso   1.00
H185   H     0.69862   0.16201   0.39249   0.00000  Uiso   1.00
Cl186  Cl    0.93219   0.28819   0.17982   0.00000  Uiso   1.00
C187   C     0.16730   0.57999   0.24854   0.00000  Uiso   1.00
C188   C     0.14382   0.50600   0.49305   0.00000  Uiso   1.00
C189   C     0.15206   0.51821   0.43917   0.00000  Uiso   1.00
C190   C     0.18113   0.51186   0.01446   0.00000  Uiso   1.00
C191   C     0.22238   0.53616   0.48608   0.00000  Uiso   1.00
C192   C     0.22646   0.55353   0.43613   0.00000  Uiso   1.00
C193   C     0.19161   0.54490   0.41308   0.00000  Uiso   1.00
C194   C     0.17841   0.49393   0.06353   0.00000  Uiso   1.00
C195   C     0.25141   0.52935   0.06140   0.00000  Uiso   1.00
C196   C     0.12075   0.50327   0.41266   0.00000  Uiso   1.00
C197   C     0.21094   0.64599   0.21905   0.00000  Uiso   1.00
C198   C     0.13944   0.50125   0.35262   0.00000  Uiso   1.00
C199   C     0.21010   0.35553   0.22054   0.00000  Uiso   1.00
C200   C     0.16688   0.37599   0.24814   0.00000  Uiso   1.00
C201   C     0.12403   0.35441   0.27387   0.00000  Uiso   1.00
C202   C     0.12469   0.64500   0.27358   0.00000  Uiso   1.00
C203   C     0.16803   0.62419   0.24680   0.00000  Uiso   1.00
C204   C     0.31840   0.47184   0.21930   0.00000  Uiso   1.00
C205   C     0.03291   0.47175   0.21913   0.00000  Uiso   1.00
C206   C     0.01468   0.52823   0.28076   0.00000  Uiso   1.00
C207   C     0.30016   0.52832   0.28056   0.00000  Uiso   1.00
C208   C     0.16662   0.42004   0.24968   0.00000  Uiso   1.00
C209   C     0.19362   0.50015   0.14771   0.00000  Uiso   1.00
C210   C     0.25801   0.54378   0.00916   0.00000  Uiso   1.00
C211   C     0.21041   0.50554   0.08912   0.00000  Uiso   1.00
C212   C     0.07482   0.48619   0.44444   0.00000  Uiso   1.00
C213   C     0.06392   0.48113   0.00034   0.00000  Uiso   1.00
C214   C     0.09821   0.48941   0.02402   0.00000  Uiso   1.00
H215   H     0.27666   0.53856   0.08104   0.00000  Uiso   1.00
H216   H     0.24284   0.37287   0.19940   0.00000  Uiso   1.00
H217   H     0.09050   0.37052   0.29496   0.00000  Uiso   1.00
H218   H     0.09157   0.62822   0.29487   0.00000  Uiso   1.00
H219   H     0.30741   0.44942   0.19476   0.00000  Uiso   1.00
H220   H     0.02533   0.55079   0.30538   0.00000  Uiso   1.00
H221   H     0.27481   0.55117   0.30472   0.00000  Uiso   1.00
H222   H     0.25675   0.57350   0.41465   0.00000  Uiso   1.00
H223   H     0.28950   0.56259   0.48806   0.00000  Uiso   1.00
H224   H     0.14995   0.47230   0.08431   0.00000  Uiso   1.00
H225   H     0.08730   0.48406   0.06723   0.00000  Uiso   1.00
H226   H     0.02918   0.46880   0.02572   0.00000  Uiso   1.00
H227   H     0.19540   0.56001   0.37507   0.00000  Uiso   1.00
N228   N     0.04760   0.50001   0.25001   0.00000  Uiso   1.00
N229   N     0.28573   0.49998   0.25001   0.00000  Uiso   1.00
O230   O     0.12846   0.56108   0.25000   0.00000  Uiso   1.00
O231   O     0.20490   0.56107   0.25000   0.00000  Uiso   1.00
O232   O     0.10947   0.50000   0.32681   0.00000  Uiso   1.00
O233   O     0.18591   0.49999   0.32681   0.00000  Uiso   1.00
O234   O     0.12843   0.43893   0.24999   0.00000  Uiso   1.00
O235   O     0.20488   0.43892   0.24999   0.00000  Uiso   1.00
O236   O     0.14742   0.50001   0.17319   0.00000  Uiso   1.00
O237   O     0.22387   0.50000   0.17319   0.00000  Uiso   1.00
Zn238  Zn    0.11562   0.50001   0.25000   0.00000  Uiso   1.00
Zn239  Zn    0.21771   0.49999   0.25000   0.00000  Uiso   1.00
Cl240  Cl    0.07262   0.43447   0.17817   0.00000  Uiso   1.00
C241   C     0.03656   0.47225   0.42152   0.00000  Uiso   1.00
C242   C     0.04720   0.42871   0.39606   0.00000  Uiso   1.00
H243   H     0.08383   0.42709   0.36478   0.00000  Uiso   1.00
H244   H     0.04466   0.40533   0.42801   0.00000  Uiso   1.00
H245   H     0.02036   0.42058   0.37668   0.00000  Uiso   1.00
H246   H     0.00055   0.47092   0.45442   0.00000  Uiso   1.00
H247   H     0.03195   0.49534   0.39249   0.00000  Uiso   1.00
Cl248  Cl    0.26552   0.62152   0.17982   0.00000  Uiso   1.00
C249   C     0.50064   0.57999   0.24854   0.00000  Uiso   1.00
C250   C     0.47715   0.50600   0.49305   0.00000  Uiso   1.00
C251   C     0.48540   0.51821   0.43917   0.00000  Uiso   1.00
C252   C     0.51446   0.51186   0.01446   0.00000  Uiso   1.00
C253   C     0.55571   0.53616   0.48608   0.00000  Uiso   1.00
C254   C     0.55980   0.55353   0.43613   0.00000  Uiso   1.00
C255   C     0.52495   0.54490   0.41308   0.00000  Uiso   1.00
C256   C     0.51174   0.49393   0.06353   0.00000  Uiso   1.00
C257   C     0.58475   0.52935   0.06140   0.00000  Uiso   1.00
C258   C     0.45408   0.50327   0.41266   0.00000  Uiso   1.00
C259   C     0.54428   0.64599   0.21905   0.00000  Uiso   1.00
C260   C     0.47277   0.50125   0.35262   0.00000  Uiso   1.00
C261   C     0.54344   0.35553   0.22054   0.00000  Uiso   1.00
C262   C     0.50022   0.37599   0.24814   0.00000  Uiso   1.00
C263   C     0.45736   0.35441   0.27387   0.00000  Uiso   1.00
C264   C     0.45802   0.64500   0.27358   0.00000  Uiso   1.00
C265   C     0.50137   0.62419   0.24680   0.00000  Uiso   1.00
C266   C     0.65173   0.47184   0.21930   0.00000  Uiso   1.00
C267   C     0.36624   0.47175   0.21913   0.00000  Uiso   1.00
C268   C     0.34801   0.52823   0.28076   0.00000  Uiso   1.00
C269   C     0.63350   0.52832   0.28056   0.00000  Uiso   1.00
C270   C     0.49996   0.42004   0.24968   0.00000  Uiso   1.00
C271   C     0.52695   0.50015   0.14771   0.00000  Uiso   1.00
C272   C     0.59134   0.54378   0.00916   0.00000  Uiso   1.00
C273   C     0.54375   0.50554   0.08912   0.00000  Uiso   1.00
C274   C     0.40815   0.48619   0.44444   0.00000  Uiso   1.00
C275   C     0.39725   0.48113   0.00034   0.00000  Uiso   1.00
C276   C     0.43154   0.48941   0.02402   0.00000  Uiso   1.00
H277   H     0.61000   0.53856   0.08104   0.00000  Uiso   1.00
H278   H     0.57617   0.37287   0.19940   0.00000  Uiso   1.00
H279   H     0.42383   0.37052   0.29496   0.00000  Uiso   1.00
H280   H     0.42491   0.62822   0.29487   0.00000  Uiso   1.00
H281   H     0.64075   0.44942   0.19476   0.00000  Uiso   1.00
H282   H     0.35866   0.55079   0.30538   0.00000  Uiso   1.00
H283   H     0.60814   0.55117   0.30472   0.00000  Uiso   1.00
H284   H     0.59009   0.57350   0.41465   0.00000  Uiso   1.00
H285   H     0.62284   0.56259   0.48806   0.00000  Uiso   1.00
H286   H     0.48328   0.47230   0.08431   0.00000  Uiso   1.00
H287   H     0.42063   0.48406   0.06723   0.00000  Uiso   1.00
H288   H     0.36252   0.46880   0.02572   0.00000  Uiso   1.00
H289   H     0.52873   0.56001   0.37507   0.00000  Uiso   1.00
N290   N     0.38093   0.50001   0.25001   0.00000  Uiso   1.00
N291   N     0.61906   0.49998   0.25001   0.00000  Uiso   1.00
O292   O     0.46179   0.56108   0.25000   0.00000  Uiso   1.00
O293   O     0.53823   0.56107   0.25000   0.00000  Uiso   1.00
O294   O     0.44280   0.50000   0.32681   0.00000  Uiso   1.00
O295   O     0.51924   0.49999   0.32681   0.00000  Uiso   1.00
O296   O     0.46177   0.43893   0.24999   0.00000  Uiso   1.00
O297   O     0.53821   0.43892   0.24999   0.00000  Uiso   1.00
O298   O     0.48076   0.50001   0.17319   0.00000  Uiso   1.00
O299   O     0.55720   0.50000   0.17319   0.00000  Uiso   1.00
Zn300  Zn    0.44896   0.50001   0.25000   0.00000  Uiso   1.00
Zn301  Zn    0.55104   0.49999   0.25000   0.00000  Uiso   1.00
Cl302  Cl    0.40595   0.43447   0.17817   0.00000  Uiso   1.00
C303   C     0.36989   0.47225   0.42152   0.00000  Uiso   1.00
C304   C     0.38053   0.42871   0.39606   0.00000  Uiso   1.00
H305   H     0.41716   0.42709   0.36478   0.00000  Uiso   1.00
H306   H     0.37800   0.40533   0.42801   0.00000  Uiso   1.00
H307   H     0.35370   0.42058   0.37668   0.00000  Uiso   1.00
H308   H     0.33388   0.47092   0.45442   0.00000  Uiso   1.00
H309   H     0.36528   0.49534   0.39249   0.00000  Uiso   1.00
Cl310  Cl    0.59886   0.62152   0.17982   0.00000  Uiso   1.00
C311   C     0.83397   0.57999   0.24854   0.00000  Uiso   1.00
C312   C     0.81048   0.50600   0.49305   0.00000  Uiso   1.00
C313   C     0.81873   0.51821   0.43917   0.00000  Uiso   1.00
C314   C     0.84779   0.51186   0.01446   0.00000  Uiso   1.00
C315   C     0.88904   0.53616   0.48608   0.00000  Uiso   1.00
C316   C     0.89313   0.55353   0.43613   0.00000  Uiso   1.00
C317   C     0.85828   0.54490   0.41308   0.00000  Uiso   1.00
C318   C     0.84508   0.49393   0.06353   0.00000  Uiso   1.00
C319   C     0.91808   0.52935   0.06140   0.00000  Uiso   1.00
C320   C     0.78742   0.50327   0.41266   0.00000  Uiso   1.00
C321   C     0.87761   0.64599   0.21905   0.00000  Uiso   1.00
C322   C     0.80610   0.50125   0.35262   0.00000  Uiso   1.00
C323   C     0.87677   0.35553   0.22054   0.00000  Uiso   1.00
C324   C     0.83355   0.37599   0.24814   0.00000  Uiso   1.00
C325   C     0.79070   0.35441   0.27387   0.00000  Uiso   1.00
C326   C     0.79136   0.64500   0.27358   0.00000  Uiso   1.00
C327   C     0.83470   0.62419   0.24680   0.00000  Uiso   1.00
C328   C     0.98506   0.47184   0.21930   0.00000  Uiso   1.00
C329   C     0.69958   0.47175   0.21913   0.00000  Uiso   1.00
C330   C     0.68135   0.52823   0.28076   0.00000  Uiso   1.00
C331   C     0.96683   0.52832   0.28056   0.00000  Uiso   1.00
C332   C     0.83329   0.42004   0.24968   0.00000  Uiso   1.00
C333   C     0.86028   0.50015   0.14771   0.00000  Uiso   1.00
C334   C     0.92467   0.54378   0.00916   0.00000  Uiso   1.00
C335   C     0.87708   0.50554   0.08912   0.00000  Uiso   1.00
C336   C     0.74148   0.48619   0.44444   0.00000  Uiso   1.00
C337   C     0.73058   0.48113   0.00034   0.00000  Uiso   1.00
C338   C     0.76488   0.48941   0.02402   0.00000  Uiso   1.00
H339   H     0.94333   0.53856   0.08104   0.00000  Uiso   1.00
H340   H     0.90951   0.37287   0.19940   0.00000  Uiso   1.00
H341   H     0.75717   0.37052   0.29496   0.00000  Uiso   1.00
H342   H     0.75824   0.62822   0.29487   0.00000  Uiso   1.00
H343   H     0.97408   0.44942   0.19476   0.00000  Uiso   1.00
H344   H     0.69200   0.55079   0.30538   0.00000  Uiso   1.00
H345   H     0.94148   0.55117   0.30472   0.00000  Uiso   1.00
H346   H     0.92342   0.57350   0.41465   0.00000  Uiso   1.00
H347   H     0.95617   0.56259   0.48806   0.00000  Uiso   1.00
H348   H     0.81661   0.47230   0.08431   0.00000  Uiso   1.00
H349   H     0.75397   0.48406   0.06723   0.00000  Uiso   1.00
H350   H     0.69585   0.46880   0.02572   0.00000  Uiso   1.00
H351   H     0.86207   0.56001   0.37507   0.00000  Uiso   1.00
N352   N     0.71426   0.50001   0.25001   0.00000  Uiso   1.00
N353   N     0.95239   0.49998   0.25001   0.00000  Uiso   1.00
O354   O     0.79512   0.56108   0.25000   0.00000  Uiso   1.00
O355   O     0.87157   0.56107   0.25000   0.00000  Uiso   1.00
O356   O     0.77613   0.50000   0.32681   0.00000  Uiso   1.00
O357   O     0.85258   0.49999   0.32681   0.00000  Uiso   1.00
O358   O     0.79510   0.43893   0.24999   0.00000  Uiso   1.00
O359   O     0.87154   0.43892   0.24999   0.00000  Uiso   1.00
O360   O     0.81409   0.50001   0.17319   0.00000  Uiso   1.00
O361   O     0.89053   0.50000   0.17319   0.00000  Uiso   1.00
Zn362  Zn    0.78229   0.50001   0.25000   0.00000  Uiso   1.00
Zn363  Zn    0.88438   0.49999   0.25000   0.00000  Uiso   1.00
Cl364  Cl    0.73928   0.43447   0.17817   0.00000  Uiso   1.00
C365   C     0.70323   0.47225   0.42152   0.00000  Uiso   1.00
C366   C     0.71386   0.42871   0.39606   0.00000  Uiso   1.00
H367   H     0.75050   0.42709   0.36478   0.00000  Uiso   1.00
H368   H     0.71133   0.40533   0.42801   0.00000  Uiso   1.00
H369   H     0.68703   0.42058   0.37668   0.00000  Uiso   1.00
H370   H     0.66721   0.47092   0.45442   0.00000  Uiso   1.00
H371   H     0.69862   0.49534   0.39249   0.00000  Uiso   1.00
Cl372  Cl    0.93219   0.62152   0.17982   0.00000  Uiso   1.00
C373   C     0.16730   0.91332   0.24854   0.00000  Uiso   1.00
C374   C     0.14382   0.83933   0.49305   0.00000  Uiso   1.00
C375   C     0.15206   0.85154   0.43917   0.00000  Uiso   1.00
C376   C     0.18113   0.84519   0.01446   0.00000  Uiso   1.00
C377   C     0.22238   0.86950   0.48608   0.00000  Uiso   1.00
C378   C     0.22646   0.88686   0.43613   0.00000  Uiso   1.00
C379   C     0.19161   0.87823   0.41308   0.00000  Uiso   1.00
C380   C     0.17841   0.82726   0.06353   0.00000  Uiso   1.00
C381   C     0.25141   0.86268   0.06140   0.00000  Uiso   1.00
C382   C     0.12075   0.83660   0.41266   0.00000  Uiso   1.00
C383   C     0.21094   0.97932   0.21905   0.00000  Uiso   1.00
C384   C     0.13944   0.83459   0.35262   0.00000  Uiso   1.00
C385   C     0.21010   0.68886   0.22054   0.00000  Uiso   1.00
C386   C     0.16688   0.70933   0.24814   0.00000  Uiso   1.00
C387   C     0.12403   0.68774   0.27387   0.00000  Uiso   1.00
C388   C     0.12469   0.97833   0.27358   0.00000  Uiso   1.00
C389   C     0.16803   0.95752   0.24680   0.00000  Uiso   1.00
C390   C     0.31840   0.80517   0.21930   0.00000  Uiso   1.00
C391   C     0.03291   0.80508   0.21913   0.00000  Uiso   1.00
C392   C     0.01468   0.86156   0.28076   0.00000  Uiso   1.00
C393   C     0.30016   0.86165   0.28056   0.00000  Uiso   1.00
C394   C     0.16662   0.75338   0.24968   0.00000  Uiso   1.00
C395   C     0.19362   0.83349   0.14771   0.00000  Uiso   1.00
C396   C     0.25801   0.87712   0.00916   0.00000  Uiso   1.00
C397   C     0.21041   0.83888   0.08912   0.00000  Uiso   1.00
C398   C     0.07482   0.81953   0.44444   0.00000  Uiso   1.00
C399   C     0.06392   0.81446   0.00034   0.00000  Uiso   1.00
C400   C     0.09821   0.82274   0.02402   0.00000  Uiso   1.00
H401   H     0.27666   0.87189   0.08104   0.00000  Uiso   1.00
H402   H     0.24284   0.70620   0.19940   0.00000  Uiso   1.00
H403   H     0.09050   0.70386   0.29496   0.00000  Uiso   1.00
H404   H     0.09157   0.96155   0.29487   0.00000  Uiso   1.00
H405   H     0.30741   0.78275   0.19476   0.00000  Uiso   1.00
H406   H     0.02533   0.88412   0.30538   0.00000  Uiso   1.00
H407   H     0.27481   0.88450   0.30472   0.00000  Uiso   1.00
H408   H     0.25675   0.90683   0.41465   0.00000  Uiso   1.00
H409   H     0.28950   0.89592   0.48806   0.00000  Uiso   1.00
H410   H     0.14995   0.80564   0.08431   0.00000  Uiso   1.00
H411   H     0.08730   0.81739   0.06723   0.00000  Uiso   1.00
H412   H     0.02918   0.80213   0.02572   0.00000  Uiso   1.00
H413   H     0.19540   0.89334   0.37507   0.00000  Uiso   1.00
N414   N     0.04760   0.83334   0.25001   0.00000  Uiso   1.00
N415   N     0.28573   0.83331   0.25001   0.00000  Uiso   1.00
O416   O     0.12846   0.89442   0.25000   0.00000  Uiso   1.00
O417   O     0.20490   0.89441   0.25000   0.00000  Uiso   1.00
O418   O     0.10947   0.83333   0.32681   0.00000  Uiso   1.00
O419   O     0.18591   0.83332   0.32681   0.00000  Uiso   1.00
O420   O     0.12843   0.77226   0.24999   0.00000  Uiso   1.00
O421   O     0.20488   0.77225   0.24999   0.00000  Uiso   1.00
O422   O     0.14742   0.83335   0.17319   0.00000  Uiso   1.00
O423   O     0.22387   0.83334   0.17319   0.00000  Uiso   1.00
Zn424  Zn    0.11562   0.83334   0.25000   0.00000  Uiso   1.00
Zn425  Zn    0.21771   0.83333   0.25000   0.00000  Uiso   1.00
Cl426  Cl    0.07262   0.76780   0.17817   0.00000  Uiso   1.00
C427   C     0.03656   0.80558   0.42152   0.00000  Uiso   1.00
C428   C     0.04720   0.76205   0.39606   0.00000  Uiso   1.00
H429   H     0.08383   0.76043   0.36478   0.00000  Uiso   1.00
H430   H     0.04466   0.73866   0.42801   0.00000  Uiso   1.00
H431   H     0.02036   0.75391   0.37668   0.00000  Uiso   1.00
H432   H     0.00055   0.80426   0.45442   0.00000  Uiso   1.00
H433   H     0.03195   0.82868   0.39249   0.00000  Uiso   1.00
Cl434  Cl    0.26552   0.95486   0.17982   0.00000  Uiso   1.00
C435   C     0.50064   0.91332   0.24854   0.00000  Uiso   1.00
C436   C     0.47715   0.83933   0.49305   0.00000  Uiso   1.00
C437   C     0.48540   0.85154   0.43917   0.00000  Uiso   1.00
C438   C     0.51446   0.84519   0.01446   0.00000  Uiso   1.00
C439   C     0.55571   0.86950   0.48608   0.00000  Uiso   1.00
C440   C     0.55980   0.88686   0.43613   0.00000  Uiso   1.00
C441   C     0.52495   0.87823   0.41308   0.00000  Uiso   1.00
C442   C     0.51174   0.82726   0.06353   0.00000  Uiso   1.00
C443   C     0.58475   0.86268   0.06140   0.00000  Uiso   1.00
C444   C     0.45408   0.83660   0.41266   0.00000  Uiso   1.00
C445   C     0.54428   0.97932   0.21905   0.00000  Uiso   1.00
C446   C     0.47277   0.83459   0.35262   0.00000  Uiso   1.00
C447   C     0.54344   0.68886   0.22054   0.00000  Uiso   1.00
C448   C     0.50022   0.70933   0.24814   0.00000  Uiso   1.00
C449   C     0.45736   0.68774   0.27387   0.00000  Uiso   1.00
C450   C     0.45802   0.97833   0.27358   0.00000  Uiso   1.00
C451   C     0.50137   0.95752   0.24680   0.00000  Uiso   1.00
C452   C     0.65173   0.80517   0.21930   0.00000  Uiso   1.00
C453   C     0.36624   0.80508   0.21913   0.00000  Uiso   1.00
C454   C     0.34801   0.86156   0.28076   0.00000  Uiso   1.00
C455   C     0.63350   0.86165   0.28056   0.00000  Uiso   1.00
C456   C     0.49996   0.75338   0.24968   0.00000  Uiso   1.00
C457   C     0.52695   0.83349   0.14771   0.00000  Uiso   1.00
C458   C     0.59134   0.87712   0.00916   0.00000  Uiso   1.00
C459   C     0.54375   0.83888   0.08912   0.00000  Uiso   1.00
C460   C     0.40815   0.81953   0.44444   0.00000  Uiso   1.00
C461   C     0.39725   0.81446   0.00034   0.00000  Uiso   1.00
C462   C     0.43154   0.82274   0.02402   0.00000  Uiso   1.00
H463   H     0.61000   0.87189   0.08104   0.00000  Uiso   1.00
H464   H     0.57617   0.70620   0.19940   0.00000  Uiso   1.00
H465   H     0.42383   0.70386   0.29496   0.00000  Uiso   1.00
H466   H     0.42491   0.96155   0.29487   0.00000  Uiso   1.00
H467   H     0.64075   0.78275   0.19476   0.00000  Uiso   1.00
H468   H     0.35866   0.88412   0.30538   0.00000  Uiso   1.00
H469   H     0.60814   0.88450   0.30472   0.00000  Uiso   1.00
H470   H     0.59009   0.90683   0.41465   0.00000  Uiso   1.00
H471   H     0.62284   0.89592   0.48806   0.00000  Uiso   1.00
H472   H     0.48328   0.80564   0.08431   0.00000  Uiso   1.00
H473   H     0.42063   0.81739   0.06723   0.00000  Uiso   1.00
H474   H     0.36252   0.80213   0.02572   0.00000  Uiso   1.00
H475   H     0.52873   0.89334   0.37507   0.00000  Uiso   1.00
N476   N     0.38093   0.83334   0.25001   0.00000  Uiso   1.00
N477   N     0.61906   0.83331   0.25001   0.00000  Uiso   1.00
O478   O     0.46179   0.89442   0.25000   0.00000  Uiso   1.00
O479   O     0.53823   0.89441   0.25000   0.00000  Uiso   1.00
O480   O     0.44280   0.83333   0.32681   0.00000  Uiso   1.00
O481   O     0.51924   0.83332   0.32681   0.00000  Uiso   1.00
O482   O     0.46177   0.77226   0.24999   0.00000  Uiso   1.00
O483   O     0.53821   0.77225   0.24999   0.00000  Uiso   1.00
O484   O     0.48076   0.83335   0.17319   0.00000  Uiso   1.00
O485   O     0.55720   0.83334   0.17319   0.00000  Uiso   1.00
Zn486  Zn    0.44896   0.83334   0.25000   0.00000  Uiso   1.00
Zn487  Zn    0.55104   0.83333   0.25000   0.00000  Uiso   1.00
Cl488  Cl    0.40595   0.76780   0.17817   0.00000  Uiso   1.00
C489   C     0.36989   0.80558   0.42152   0.00000  Uiso   1.00
C490   C     0.38053   0.76205   0.39606   0.00000  Uiso   1.00
H491   H     0.41716   0.76043   0.36478   0.00000  Uiso   1.00
H492   H     0.37800   0.73866   0.42801   0.00000  Uiso   1.00
H493   H     0.35370   0.75391   0.37668   0.00000  Uiso   1.00
H494   H     0.33388   0.80426   0.45442   0.00000  Uiso   1.00
H495   H     0.36528   0.82868   0.39249   0.00000  Uiso   1.00
Cl496  Cl    0.59886   0.95486   0.17982   0.00000  Uiso   1.00
C497   C     0.83397   0.91332   0.24854   0.00000  Uiso   1.00
C498   C     0.81048   0.83933   0.49305   0.00000  Uiso   1.00
C499   C     0.81873   0.85154   0.43917   0.00000  Uiso   1.00
C500   C     0.84779   0.84519   0.01446   0.00000  Uiso   1.00
C501   C     0.88904   0.86950   0.48608   0.00000  Uiso   1.00
C502   C     0.89313   0.88686   0.43613   0.00000  Uiso   1.00
C503   C     0.85828   0.87823   0.41308   0.00000  Uiso   1.00
C504   C     0.84508   0.82726   0.06353   0.00000  Uiso   1.00
C505   C     0.91808   0.86268   0.06140   0.00000  Uiso   1.00
C506   C     0.78742   0.83660   0.41266   0.00000  Uiso   1.00
C507   C     0.87761   0.97932   0.21905   0.00000  Uiso   1.00
C508   C     0.80610   0.83459   0.35262   0.00000  Uiso   1.00
C509   C     0.87677   0.68886   0.22054   0.00000  Uiso   1.00
C510   C     0.83355   0.70933   0.24814   0.00000  Uiso   1.00
C511   C     0.79070   0.68774   0.27387   0.00000  Uiso   1.00
C512   C     0.79136   0.97833   0.27358   0.00000  Uiso   1.00
C513   C     0.83470   0.95752   0.24680   0.00000  Uiso   1.00
C514   C     0.98506   0.80517   0.21930   0.00000  Uiso   1.00
C515   C     0.69958   0.80508   0.21913   0.00000  Uiso   1.00
C516   C     0.68135   0.86156   0.28076   0.00000  Uiso   1.00
C517   C     0.96683   0.86165   0.28056   0.00000  Uiso   1.00
C518   C     0.83329   0.75338   0.24968   0.00000  Uiso   1.00
C519   C     0.86028   0.83349   0.14771   0.00000  Uiso   1.00
C520   C     0.92467   0.87712   0.00916   0.00000  Uiso   1.00
C521   C     0.87708   0.83888   0.08912   0.00000  Uiso   1.00
C522   C     0.74148   0.81953   0.44444   0.00000  Uiso   1.00
C523   C     0.73058   0.81446   0.00034   0.00000  Uiso   1.00
C524   C     0.76488   0.82274   0.02402   0.00000  Uiso   1.00
H525   H     0.94333   0.87189   0.08104   0.00000  Uiso   1.00
H526   H     0.90951   0.70620   0.19940   0.00000  Uiso   1.00
H527   H     0.75717   0.70386   0.29496   0.00000  Uiso   1.00
H528   H     0.75824   0.96155   0.29487   0.00000  Uiso   1.00
H529   H     0.97408   0.78275   0.19476   0.00000  Uiso   1.00
H530   H     0.69200   0.88412   0.30538   0.00000  Uiso   1.00
H531   H     0.94148   0.88450   0.30472   0.00000  Uiso   1.00
H532   H     0.92342   0.90683   0.41465   0.00000  Uiso   1.00
H533   H     0.95617   0.89592   0.48806   0.00000  Uiso   1.00
H534   H     0.81661   0.80564   0.08431   0.00000  Uiso   1.00
H535   H     0.75397   0.81739   0.06723   0.00000  Uiso   1.00
H536   H     0.69585   0.80213   0.02572   0.00000  Uiso   1.00
H537   H     0.86207   0.89334   0.37507   0.00000  Uiso   1.00
N538   N     0.71426   0.83334   0.25001   0.00000  Uiso   1.00
N539   N     0.95239   0.83331   0.25001   0.00000  Uiso   1.00
O540   O     0.79512   0.89442   0.25000   0.00000  Uiso   1.00
O541   O     0.87157   0.89441   0.25000   0.00000  Uiso   1.00
O542   O     0.77613   0.83333   0.32681   0.00000  Uiso   1.00
O543   O     0.85258   0.83332   0.32681   0.00000  Uiso   1.00
O544   O     0.79510   0.77226   0.24999   0.00000  Uiso   1.00
O545   O     0.87154   0.77225   0.24999   0.00000  Uiso   1.00
O546   O     0.81409   0.83335   0.17319   0.00000  Uiso   1.00
O547   O     0.89053   0.83334   0.17319   0.00000  Uiso   1.00
Zn548  Zn    0.78229   0.83334   0.25000   0.00000  Uiso   1.00
Zn549  Zn    0.88438   0.83333   0.25000   0.00000  Uiso   1.00
Cl550  Cl    0.73928   0.76780   0.17817   0.00000  Uiso   1.00
C551   C     0.70323   0.80558   0.42152   0.00000  Uiso   1.00
C552   C     0.71386   0.76205   0.39606   0.00000  Uiso   1.00
H553   H     0.75050   0.76043   0.36478   0.00000  Uiso   1.00
H554   H     0.71133   0.73866   0.42801   0.00000  Uiso   1.00
H555   H     0.68703   0.75391   0.37668   0.00000  Uiso   1.00
H556   H     0.66721   0.80426   0.45442   0.00000  Uiso   1.00
H557   H     0.69862   0.82868   0.39249   0.00000  Uiso   1.00
Cl558  Cl    0.93219   0.95486   0.17982   0.00000  Uiso   1.00
C559   C     0.16730   0.24666   0.74854   0.00000  Uiso   1.00
C560   C     0.14382   0.17267   0.99305   0.00000  Uiso   1.00
C561   C     0.15206   0.18488   0.93917   0.00000  Uiso   1.00
C562   C     0.18113   0.17852   0.51446   0.00000  Uiso   1.00
C563   C     0.22238   0.20283   0.98608   0.00000  Uiso   1.00
C564   C     0.22646   0.22019   0.93613   0.00000  Uiso   1.00
C565   C     0.19161   0.21156   0.91308   0.00000  Uiso   1.00
C566   C     0.17841   0.16059   0.56353   0.00000  Uiso   1.00
C567   C     0.25141   0.19602   0.56140   0.00000  Uiso   1.00
C568   C     0.12075   0.16994   0.91266   0.00000  Uiso   1.00
C569   C     0.21094   0.31265   0.71905   0.00000  Uiso   1.00
C570   C     0.13944   0.16792   0.85262   0.00000  Uiso   1.00
C571   C     0.21010   0.02219   0.72054   0.00000  Uiso   1.00
C572   C     0.16688   0.04266   0.74814   0.00000  Uiso   1.00
C573   C     0.12403   0.02108   0.77387   0.00000  Uiso   1.00
C574   C     0.12469   0.31166   0.77358   0.00000  Uiso   1.00
C575   C     0.16803   0.29086   0.74680   0.00000  Uiso   1.00
C576   C     0.31840   0.13851   0.71930   0.00000  Uiso   1.00
C577   C     0.03291   0.13841   0.71913   0.00000  Uiso   1.00
C578   C     0.01468   0.19489   0.78076   0.00000  Uiso   1.00
C579   C     0.30016   0.19498   0.78056   0.00000  Uiso   1.00
C580   C     0.16662   0.08671   0.74968   0.00000  Uiso   1.00
C581   C     0.19362   0.16682   0.64771   0.00000  Uiso   1.00
C582   C     0.25801   0.21045   0.50916   0.00000  Uiso   1.00
C583   C     0.21041   0.17221   0.58912   0.00000  Uiso   1.00
C584   C     0.07482   0.15286   0.94444   0.00000  Uiso   1.00
C585   C     0.06392   0.14779   0.50034   0.00000  Uiso   1.00
C586   C     0.09821   0.15607   0.52402   0.00000  Uiso   1.00
H587   H     0.27666   0.20523   0.58104   0.00000  Uiso   1.00
H588   H     0.24284   0.03954   0.69940   0.00000  Uiso   1.00
H589   H     0.09050   0.03719   0.79496   0.00000  Uiso   1.00
H590   H     0.09157   0.29489   0.79487   0.00000  Uiso   1.00
H591   H     0.30741   0.11608   0.69476   0.00000  Uiso   1.00
H592   H     0.02533   0.21746   0.80538   0.00000  Uiso   1.00
H593   H     0.27481   0.21784   0.80472   0.00000  Uiso   1.00
H594   H     0.25675   0.24017   0.91465   0.00000  Uiso   1.00
H595   H     0.28950   0.22925   0.98806   0.00000  Uiso   1.00
H596   H     0.14995   0.13897   0.58431   0.00000  Uiso   1.00
H597   H     0.08730   0.15072   0.56723   0.00000  Uiso   1.00
H598   H     0.02918   0.13547   0.52572   0.00000  Uiso   1.00
H599   H     0.19540   0.22668   0.87507   0.00000  Uiso   1.00
N600   N     0.04760   0.16668   0.75001   0.00000  Uiso   1.00
N601   N     0.28573   0.16665   0.75001   0.00000  Uiso   1.00
O602   O     0.12846   0.22775   0.75000   0.00000  Uiso   1.00
O603   O     0.20490   0.22774   0.75000   0.00000  Uiso   1.00
O604   O     0.10947   0.16666   0.82681   0.00000  Uiso   1.00
O605   O     0.18591   0.16665   0.82681   0.00000  Uiso   1.00
O606   O     0.12843   0.10559   0.74999   0.00000  Uiso   1.00
O607   O     0.20488   0.10558   0.74999   0.00000  Uiso   1.00
O608   O     0.14742   0.16668   0.67319   0.00000  Uiso   1.00
O609   O     0.22387   0.16667   0.67319   0.00000  Uiso   1.00
Zn610  Zn    0.11562   0.16667   0.75000   0.00000  Uiso   1.00
Zn611  Zn    0.21771   0.16666   0.75000   0.00000  Uiso   1.00
Cl612  Cl    0.07262   0.10114   0.67817   0.00000  Uiso   1.00
C613   C     0.03656   0.13892   0.92152   0.00000  Uiso   1.00
C614   C     0.04720   0.09538   0.89606   0.00000  Uiso   1.00
H615   H     0.08383   0.09376   0.86478   0.00000  Uiso   1.00
H616   H     0.04466   0.07200   0.92801   0.00000  Uiso   1.00
H617   H     0.02036   0.08725   0.87668   0.00000  Uiso   1.00
H618   H     0.00055   0.13759   0.95442   0.00000  Uiso   1.00
H619   H     0.03195   0.16201   0.89249   0.00000  Uiso   1.00
Cl620  Cl    0.26552   0.28819   0.67982   0.00000  Uiso   1.00
C621   C     0.50064   0.24666   0.74854   0.00000  Uiso   1.00
C622   C     0.47715   0.17267   0.99305   0.00000  Uiso   1.00
C623   C     0.48540   0.18488   0.93917   0.00000  Uiso   1.00
C624   C     0.51446   0.17852   0.51446   0.00000  Uiso   1.00
C625   C     0.55571   0.20283   0.98608   0.00000  Uiso   1.00
C626   C     0.55980   0.22019   0.93613   0.00000  Uiso   1.00
C627   C     0.52495   0.21156   0.91308   0.00000  Uiso   1.00
C628   C     0.51174   0.16059   0.56353   0.00000  Uiso   1.00
C629   C     0.58475   0.19602   0.56140   0.00000  Uiso   1.00
C630   C     0.45408   0.16994   0.91266   0.00000  Uiso   1.00
C631   C     0.54428   0.31265   0.71905   0.00000  Uiso   1.00
C632   C     0.47277   0.16792   0.85262   0.00000  Uiso   1.00
C633   C     0.54344   0.02219   0.72054   0.00000  Uiso   1.00
C634   C     0.50022   0.04266   0.74814   0.00000  Uiso   1.00
C635   C     0.45736   0.02108   0.77387   0.00000  Uiso   1.00
C636   C     0.45802   0.31166   0.77358   0.00000  Uiso   1.00
C637   C     0.50137   0.29086   0.74680   0.00000  Uiso   1.00
C638   C     0.65173   0.13851   0.71930   0.00000  Uiso   1.00
C639   C     0.36624   0.13841   0.71913   0.00000  Uiso   1.00
C640   C     0.34801   0.19489   0.78076   0.00000  Uiso   1.00
C641   C     0.63350   0.19498   0.78056   0.00000  Uiso   1.00
C642   C     0.49996   0.08671   0.74968   0.00000  Uiso   1.00
C643   C     0.52695   0.16682   0.64771   0.00000  Uiso   1.00
C644   C     0.59134   0.21045   0.50916   0.00000  Uiso   1.00
C645   C     0.54375   0.17221   0.58912   0.00000  Uiso   1.00
C646   C     0.40815   0.15286   0.94444   0.00000  Uiso   1.00
C647   C     0.39725   0.14779   0.50034   0.00000  Uiso   1.00
C648   C     0.43154   0.15607   0.52402   0.00000  Uiso   1.00
H649   H     0.61000   0.20523   0.58104   0.00000  Uiso   1.00
H650   H     0.57617   0.03954   0.69940   0.00000  Uiso   1.00
H651   H     0.42383   0.03719   0.79496   0.00000  Uiso   1.00
H652   H     0.42491   0.29489   0.79487   0.00000  Uiso   1.00
H653   H     0.64075   0.11608   0.69476   0.00000  Uiso   1.00
H654   H     0.35866   0.21746   0.80538   0.00000  Uiso   1.00
H655   H     0.60814   0.21784   0.80472   0.00000  Uiso   1.00
H656   H     0.59009   0.24017   0.91465   0.00000  Uiso   1.00
H657   H     0.62284   0.22925   0.98806   0.00000  Uiso   1.00
H658   H     0.48328   0.13897   0.58431   0.00000  Uiso   1.00
H659   H     0.42063   0.15072   0.56723   0.00000  Uiso   1.00
H660   H     0.36252   0.13547   0.52572   0.00000  Uiso   1.00
H661   H     0.52873   0.22668   0.87507   0.00000  Uiso   1.00
N662   N     0.38093   0.16668   0.75001   0.00000  Uiso   1.00
N663   N     0.61906   0.16665   0.75001   0.00000  Uiso   1.00
O664   O     0.46179   0.22775   0.75000   0.00000  Uiso   1.00
O665   O     0.53823   0.22774   0.75000   0.00000  Uiso   1.00
O666   O     0.44280   0.16666   0.82681   0.00000  Uiso   1.00
O667   O     0.51924   0.16665   0.82681   0.00000  Uiso   1.00
O668   O     0.46177   0.10559   0.74999   0.00000  Uiso   1.00
O669   O     0.53821   0.10558   0.74999   0.00000  Uiso   1.00
O670   O     0.48076   0.16668   0.67319   0.00000  Uiso   1.00
O671   O     0.55720   0.16667   0.67319   0.00000  Uiso   1.00
Zn672  Zn    0.44896   0.16667   0.75000   0.00000  Uiso   1.00
Zn673  Zn    0.55104   0.16666   0.75000   0.00000  Uiso   1.00
Cl674  Cl    0.40595   0.10114   0.67817   0.00000  Uiso   1.00
C675   C     0.36989   0.13892   0.92152   0.00000  Uiso   1.00
C676   C     0.38053   0.09538   0.89606   0.00000  Uiso   1.00
H677   H     0.41716   0.09376   0.86478   0.00000  Uiso   1.00
H678   H     0.37800   0.07200   0.92801   0.00000  Uiso   1.00
H679   H     0.35370   0.08725   0.87668   0.00000  Uiso   1.00
H680   H     0.33388   0.13759   0.95442   0.00000  Uiso   1.00
H681   H     0.36528   0.16201   0.89249   0.00000  Uiso   1.00
Cl682  Cl    0.59886   0.28819   0.67982   0.00000  Uiso   1.00
C683   C     0.83397   0.24666   0.74854   0.00000  Uiso   1.00
C684   C     0.81048   0.17267   0.99305   0.00000  Uiso   1.00
C685   C     0.81873   0.18488   0.93917   0.00000  Uiso   1.00
C686   C     0.84779   0.17852   0.51446   0.00000  Uiso   1.00
C687   C     0.88904   0.20283   0.98608   0.00000  Uiso   1.00
C688   C     0.89313   0.22019   0.93613   0.00000  Uiso   1.00
C689   C     0.85828   0.21156   0.91308   0.00000  Uiso   1.00
C690   C     0.84508   0.16059   0.56353   0.00000  Uiso   1.00
C691   C     0.91808   0.19602   0.56140   0.00000  Uiso   1.00
C692   C     0.78742   0.16994   0.91266   0.00000  Uiso   1.00
C693   C     0.87761   0.31265   0.71905   0.00000  Uiso   1.00
C694   C     0.80610   0.16792   0.85262   0.00000  Uiso   1.00
C695   C     0.87677   0.02219   0.72054   0.00000  Uiso   1.00
C696   C     0.83355   0.04266   0.74814   0.00000  Uiso   1.00
C697   C     0.79070   0.02108   0.77387   0.00000  Uiso   1.00
C698   C     0.79136   0.31166   0.77358   0.00000  Uiso   1.00
C699   C     0.83470   0.29086   0.74680   0.00000  Uiso   1.00
C700   C     0.98506   0.13851   0.71930   0.00000  Uiso   1.00
C701   C     0.69958   0.13841   0.71913   0.00000  Uiso   1.00
C702   C     0.68135   0.19489   0.78076   0.00000  Uiso   1.00
C703   C     0.96683   0.19498   0.78056   0.00000  Uiso   1.00
C704   C     0.83329   0.08671   0.74968   0.00000  Uiso   1.00
C705   C     0.86028   0.16682   0.64771   0.00000  Uiso   1.00
C706   C     0.92467   0.21045   0.50916   0.00000  Uiso   1.00
C707   C     0.87708   0.17221   0.58912   0.00000  Uiso   1.00
C708   C     0.74148   0.15286   0.94444   0.00000  Uiso   1.00
C709   C     0.73058   0.14779   0.50034   0.00000  Uiso   1.00
C710   C     0.76488   0.15607   0.52402   0.00000  Uiso   1.00
H711   H     0.94333   0.20523   0.58104   0.00000  Uiso   1.00
H712   H     0.90951   0.03954   0.69940   0.00000  Uiso   1.00
H713   H     0.75717   0.03719   0.79496   0.00000  Uiso   1.00
H714   H     0.75824   0.29489   0.79487   0.00000  Uiso   1.00
H715   H     0.97408   0.11608   0.69476   0.00000  Uiso   1.00
H716   H     0.69200   0.21746   0.80538   0.00000  Uiso   1.00
H717   H     0.94148   0.21784   0.80472   0.00000  Uiso   1.00
H718   H     0.92342   0.24017   0.91465   0.00000  Uiso   1.00
H719   H     0.95617   0.22925   0.98806   0.00000  Uiso   1.00
H720   H     0.81661   0.13897   0.58431   0.00000  Uiso   1.00
H721   H     0.75397   0.15072   0.56723   0.00000  Uiso   1.00
H722   H     0.69585   0.13547   0.52572   0.00000  Uiso   1.00
H723   H     0.86207   0.22668   0.87507   0.00000  Uiso   1.00
N724   N     0.71426   0.16668   0.75001   0.00000  Uiso   1.00
N725   N     0.95239   0.16665   0.75001   0.00000  Uiso   1.00
O726   O     0.79512   0.22775   0.75000   0.00000  Uiso   1.00
O727   O     0.87157   0.22774   0.75000   0.00000  Uiso   1.00
O728   O     0.77613   0.16666   0.82681   0.00000  Uiso   1.00
O729   O     0.85258   0.16665   0.82681   0.00000  Uiso   1.00
O730   O     0.79510   0.10559   0.74999   0.00000  Uiso   1.00
O731   O     0.87154   0.10558   0.74999   0.00000  Uiso   1.00
O732   O     0.81409   0.16668   0.67319   0.00000  Uiso   1.00
O733   O     0.89053   0.16667   0.67319   0.00000  Uiso   1.00
Zn734  Zn    0.78229   0.16667   0.75000   0.00000  Uiso   1.00
Zn735  Zn    0.88438   0.16666   0.75000   0.00000  Uiso   1.00
Cl736  Cl    0.73928   0.10114   0.67817   0.00000  Uiso   1.00
C737   C     0.70323   0.13892   0.92152   0.00000  Uiso   1.00
C738   C     0.71386   0.09538   0.89606   0.00000  Uiso   1.00
H739   H     0.75050   0.09376   0.86478   0.00000  Uiso   1.00
H740   H     0.71133   0.07200   0.92801   0.00000  Uiso   1.00
H741   H     0.68703   0.08725   0.87668   0.00000  Uiso   1.00
H742   H     0.66721   0.13759   0.95442   0.00000  Uiso   1.00
H743   H     0.69862   0.16201   0.89249   0.00000  Uiso   1.00
Cl744  Cl    0.93219   0.28819   0.67982   0.00000  Uiso   1.00
C745   C     0.16730   0.57999   0.74854   0.00000  Uiso   1.00
C746   C     0.14382   0.50600   0.99305   0.00000  Uiso   1.00
C747   C     0.15206   0.51821   0.93917   0.00000  Uiso   1.00
C748   C     0.18113   0.51186   0.51446   0.00000  Uiso   1.00
C749   C     0.22238   0.53616   0.98608   0.00000  Uiso   1.00
C750   C     0.22646   0.55353   0.93613   0.00000  Uiso   1.00
C751   C     0.19161   0.54490   0.91308   0.00000  Uiso   1.00
C752   C     0.17841   0.49393   0.56353   0.00000  Uiso   1.00
C753   C     0.25141   0.52935   0.56140   0.00000  Uiso   1.00
C754   C     0.12075   0.50327   0.91266   0.00000  Uiso   1.00
C755   C     0.21094   0.64599   0.71905   0.00000  Uiso   1.00
C756   C     0.13944   0.50125   0.85262   0.00000  Uiso   1.00
C757   C     0.21010   0.35553   0.72054   0.00000  Uiso   1.00
C758   C     0.16688   0.37599   0.74814   0.00000  Uiso   1.00
C759   C     0.12403   0.35441   0.77387   0.00000  Uiso   1.00
C760   C     0.12469   0.64500   0.77358   0.00000  Uiso   1.00
C761   C     0.16803   0.62419   0.74680   0.00000  Uiso   1.00
C762   C     0.31840   0.47184   0.71930   0.00000  Uiso   1.00
C763   C     0.03291   0.47175   0.71913   0.00000  Uiso   1.00
C764   C     0.01468   0.52823   0.78076   0.00000  Uiso   1.00
C765   C     0.30016   0.52832   0.78056   0.00000  Uiso   1.00
C766   C     0.16662   0.42004   0.74968   0.00000  Uiso   1.00
C767   C     0.19362   0.50015   0.64771   0.00000  Uiso   1.00
C768   C     0.25801   0.54378   0.50916   0.00000  Uiso   1.00
C769   C     0.21041   0.50554   0.58912   0.00000  Uiso   1.00
C770   C     0.07482   0.48619   0.94444   0.00000  Uiso   1.00
C771   C     0.06392   0.48113   0.50034   0.00000  Uiso   1.00
C772   C     0.09821   0.48941   0.52402   0.00000  Uiso   1.00
H773   H     0.27666   0.53856   0.58104   0.00000  Uiso   1.00
H774   H     0.24284   0.37287   0.69940   0.00000  Uiso   1.00
H775   H     0.09050   0.37052   0.79496   0.00000  Uiso   1.00
H776   H     0.09157   0.62822   0.79487   0.00000  Uiso   1.00
H777   H     0.30741   0.44942   0.69476   0.00000  Uiso   1.00
H778   H     0.02533   0.55079   0.80538   0.00000  Uiso   1.00
H779   H     0.27481   0.55117   0.80472   0.00000  Uiso   1.00
H780   H     0.25675   0.57350   0.91465   0.00000  Uiso   1.00
H781   H     0.28950   0.56259   0.98806   0.00000  Uiso   1.00
H782   H     0.14995   0.47230   0.58431   0.00000  Uiso   1.00
H783   H     0.08730   0.48406   0.56723   0.00000  Uiso   1.00
H784   H     0.02918   0.46880   0.52572   0.00000  Uiso   1.00
H785   H     0.19540   0.56001   0.87507   0.00000  Uiso   1.00
N786   N     0.04760   0.50001   0.75001   0.00000  Uiso   1.00
N787   N     0.28573   0.49998   0.75001   0.00000  Uiso   1.00
O788   O     0.12846   0.56108   0.75000   0.00000  Uiso   1.00
O789   O     0.20490   0.56107   0.75000   0.00000  Uiso   1.00
O790   O     0.10947   0.50000   0.82681   0.00000  Uiso   1.00
O791   O     0.18591   0.49999   0.82681   0.00000  Uiso   1.00
O792   O     0.12843   0.43893   0.74999   0.00000  Uiso   1.00
O793   O     0.20488   0.43892   0.74999   0.00000  Uiso   1.00
O794   O     0.14742   0.50001   0.67319   0.00000  Uiso   1.00
O795   O     0.22387   0.50000   0.67319   0.00000  Uiso   1.00
Zn796  Zn    0.11562   0.50001   0.75000   0.00000  Uiso   1.00
Zn797  Zn    0.21771   0.49999   0.75000   0.00000  Uiso   1.00
Cl798  Cl    0.07262   0.43447   0.67817   0.00000  Uiso   1.00
C799   C     0.03656   0.47225   0.92152   0.00000  Uiso   1.00
C800   C     0.04720   0.42871   0.89606   0.00000  Uiso   1.00
H801   H     0.08383   0.42709   0.86478   0.00000  Uiso   1.00
H802   H     0.04466   0.40533   0.92801   0.00000  Uiso   1.00
H803   H     0.02036   0.42058   0.87668   0.00000  Uiso   1.00
H804   H     0.00055   0.47092   0.95442   0.00000  Uiso   1.00
H805   H     0.03195   0.49534   0.89249   0.00000  Uiso   1.00
Cl806  Cl    0.26552   0.62152   0.67982   0.00000  Uiso   1.00
C807   C     0.50064   0.57999   0.74854   0.00000  Uiso   1.00
C808   C     0.47715   0.50600   0.99305   0.00000  Uiso   1.00
C809   C     0.48540   0.51821   0.93917   0.00000  Uiso   1.00
C810   C     0.51446   0.51186   0.51446   0.00000  Uiso   1.00
C811   C     0.55571   0.53616   0.98608   0.00000  Uiso   1.00
C812   C     0.55980   0.55353   0.93613   0.00000  Uiso   1.00
C813   C     0.52495   0.54490   0.91308   0.00000  Uiso   1.00
C814   C     0.51174   0.49393   0.56353   0.00000  Uiso   1.00
C815   C     0.58475   0.52935   0.56140   0.00000  Uiso   1.00
C816   C     0.45408   0.50327   0.91266   0.00000  Uiso   1.00
C817   C     0.54428   0.64599   0.71905   0.00000  Uiso   1.00
C818   C     0.47277   0.50125   0.85262   0.00000  Uiso   1.00
C819   C     0.54344   0.35553   0.72054   0.00000  Uiso   1.00
C820   C     0.50022   0.37599   0.74814   0.00000  Uiso   1.00
C821   C     0.45736   0.35441   0.77387   0.00000  Uiso   1.00
C822   C     0.45802   0.64500   0.77358   0.00000  Uiso   1.00
C823   C     0.50137   0.62419   0.74680   0.00000  Uiso   1.00
C824   C     0.65173   0.47184   0.71930   0.00000  Uiso   1.00
C825   C     0.36624   0.47175   0.71913   0.00000  Uiso   1.00
C826   C     0.34801   0.52823   0.78076   0.00000  Uiso   1.00
C827   C     0.63350   0.52832   0.78056   0.00000  Uiso   1.00
C828   C     0.49996   0.42004   0.74968   0.00000  Uiso   1.00
C829   C     0.52695   0.50015   0.64771   0.00000  Uiso   1.00
C830   C     0.59134   0.54378   0.50916   0.00000  Uiso   1.00
C831   C     0.54375   0.50554   0.58912   0.00000  Uiso   1.00
C832   C     0.40815   0.48619   0.94444   0.00000  Uiso   1.00
C833   C     0.39725   0.48113   0.50034   0.00000  Uiso   1.00
C834   C     0.43154   0.48941   0.52402   0.00000  Uiso   1.00
H835   H     0.61000   0.53856   0.58104   0.00000  Uiso   1.00
H836   H     0.57617   0.37287   0.69940   0.00000  Uiso   1.00
H837   H     0.42383   0.37052   0.79496   0.00000  Uiso   1.00
H838   H     0.42491   0.62822   0.79487   0.00000  Uiso   1.00
H839   H     0.64075   0.44942   0.69476   0.00000  Uiso   1.00
H840   H     0.35866   0.55079   0.80538   0.00000  Uiso   1.00
H841   H     0.60814   0.55117   0.80472   0.00000  Uiso   1.00
H842   H     0.59009   0.57350   0.91465   0.00000  Uiso   1.00
H843   H     0.62284   0.56259   0.98806   0.00000  Uiso   1.00
H844   H     0.48328   0.47230   0.58431   0.00000  Uiso   1.00
H845   H     0.42063   0.48406   0.56723   0.00000  Uiso   1.00
H846   H     0.36252   0.46880   0.52572   0.00000  Uiso   1.00
H847   H     0.52873   0.56001   0.87507   0.00000  Uiso   1.00
N848   N     0.38093   0.50001   0.75001   0.00000  Uiso   1.00
N849   N     0.61906   0.49998   0.75001   0.00000  Uiso   1.00
O850   O     0.46179   0.56108   0.75000   0.00000  Uiso   1.00
O851   O     0.53823   0.56107   0.75000   0.00000  Uiso   1.00
O852   O     0.44280   0.50000   0.82681   0.00000  Uiso   1.00
O853   O     0.51924   0.49999   0.82681   0.00000  Uiso   1.00
O854   O     0.46177   0.43893   0.74999   0.00000  Uiso   1.00
O855   O     0.53821   0.43892   0.74999   0.00000  Uiso   1.00
O856   O     0.48076   0.50001   0.67319   0.00000  Uiso   1.00
O857   O     0.55720   0.50000   0.67319   0.00000  Uiso   1.00
Zn858  Zn    0.44896   0.50001   0.75000   0.00000  Uiso   1.00
Zn859  Zn    0.55104   0.49999   0.75000   0.00000  Uiso   1.00
Cl860  Cl    0.40595   0.43447   0.67817   0.00000  Uiso   1.00
C861   C     0.36989   0.47225   0.92152   0.00000  Uiso   1.00
C862   C     0.38053   0.42871   0.89606   0.00000  Uiso   1.00
H863   H     0.41716   0.42709   0.86478   0.00000  Uiso   1.00
H864   H     0.37800   0.40533   0.92801   0.00000  Uiso   1.00
H865   H     0.35370   0.42058   0.87668   0.00000  Uiso   1.00
H866   H     0.33388   0.47092   0.95442   0.00000  Uiso   1.00
H867   H     0.36528   0.49534   0.89249   0.00000  Uiso   1.00
Cl868  Cl    0.59886   0.62152   0.67982   0.00000  Uiso   1.00
C869   C     0.83397   0.57999   0.74854   0.00000  Uiso   1.00
C870   C     0.81048   0.50600   0.99305   0.00000  Uiso   1.00
C871   C     0.81873   0.51821   0.93917   0.00000  Uiso   1.00
C872   C     0.84779   0.51186   0.51446   0.00000  Uiso   1.00
C873   C     0.88904   0.53616   0.98608   0.00000  Uiso   1.00
C874   C     0.89313   0.55353   0.93613   0.00000  Uiso   1.00
C875   C     0.85828   0.54490   0.91308   0.00000  Uiso   1.00
C876   C     0.84508   0.49393   0.56353   0.00000  Uiso   1.00
C877   C     0.91808   0.52935   0.56140   0.00000  Uiso   1.00
C878   C     0.78742   0.50327   0.91266   0.00000  Uiso   1.00
C879   C     0.87761   0.64599   0.71905   0.00000  Uiso   1.00
C880   C     0.80610   0.50125   0.85262   0.00000  Uiso   1.00
C881   C     0.87677   0.35553   0.72054   0.00000  Uiso   1.00
C882   C     0.83355   0.37599   0.74814   0.00000  Uiso   1.00
C883   C     0.79070   0.35441   0.77387   0.00000  Uiso   1.00
C884   C     0.79136   0.64500   0.77358   0.00000  Uiso   1.00
C885   C     0.83470   0.62419   0.74680   0.00000  Uiso   1.00
C886   C     0.98506   0.47184   0.71930   0.00000  Uiso   1.00
C887   C     0.69958   0.47175   0.71913   0.00000  Uiso   1.00
C888   C     0.68135   0.52823   0.78076   0.00000  Uiso   1.00
C889   C     0.96683   0.52832   0.78056   0.00000  Uiso   1.00
C890   C     0.83329   0.42004   0.74968   0.00000  Uiso   1.00
C891   C     0.86028   0.50015   0.64771   0.00000  Uiso   1.00
C892   C     0.92467   0.54378   0.50916   0.00000  Uiso   1.00
C893   C     0.87708   0.50554   0.58912   0.00000  Uiso   1.00
C894   C     0.74148   0.48619   0.94444   0.00000  Uiso   1.00
C895   C     0.73058   0.48113   0.50034   0.00000  Uiso   1.00
C896   C     0.76488   0.48941   0.52402   0.00000  Uiso   1.00
H897   H     0.94333   0.53856   0.58104   0.00000  Uiso   1.00
H898   H     0.90951   0.37287   0.69940   0.00000  Uiso   1.00
H899   H     0.75717   0.37052   0.79496   0.00000  Uiso   1.00
H900   H     0.75824   0.62822   0.79487   0.00000  Uiso   1.00
H901   H     0.97408   0.44942   0.69476   0.00000  Uiso   1.00
H902   H     0.69200   0.55079   0.80538   0.00000  Uiso   1.00
H903   H     0.94148   0.55117   0.80472   0.00000  Uiso   1.00
H904   H     0.92342   0.57350   0.91465   0.00000  Uiso   1.00
H905   H     0.95617   0.56259   0.98806   0.00000  Uiso   1.00
H906   H     0.81661   0.47230   0.58431   0.00000  Uiso   1.00
H907   H     0.75397   0.48406   0.56723   0.00000  Uiso   1.00
H908   H     0.69585   0.46880   0.52572   0.00000  Uiso   1.00
H909   H     0.86207   0.56001   0.87507   0.00000  Uiso   1.00
N910   N     0.71426   0.50001   0.75001   0.00000  Uiso   1.00
N911   N     0.95239   0.49998   0.75001   0.00000  Uiso   1.00
O912   O     0.79512   0.56108   0.75000   0.00000  Uiso   1.00
O913   O     0.87157   0.56107   0.75000   0.00000  Uiso   1.00
O914   O     0.77613   0.50000   0.82681   0.00000  Uiso   1.00
O915   O     0.85258   0.49999   0.82681   0.00000  Uiso   1.00
O916   O     0.79510   0.43893   0.74999   0.00000  Uiso   1.00
O917   O     0.87154   0.43892   0.74999   0.00000  Uiso   1.00
O918   O     0.81409   0.50001   0.67319   0.00000  Uiso   1.00
O919   O     0.89053   0.50000   0.67319   0.00000  Uiso   1.00
Zn920  Zn    0.78229   0.50001   0.75000   0.00000  Uiso   1.00
Zn921  Zn    0.88438   0.49999   0.75000   0.00000  Uiso   1.00
Cl922  Cl    0.73928   0.43447   0.67817   0.00000  Uiso   1.00
C923   C     0.70323   0.47225   0.92152   0.00000  Uiso   1.00
C924   C     0.71386   0.42871   0.89606   0.00000  Uiso   1.00
H925   H     0.75050   0.42709   0.86478   0.00000  Uiso   1.00
H926   H     0.71133   0.40533   0.92801   0.00000  Uiso   1.00
H927   H     0.68703   0.42058   0.87668   0.00000  Uiso   1.00
H928   H     0.66721   0.47092   0.95442   0.00000  Uiso   1.00
H929   H     0.69862   0.49534   0.89249   0.00000  Uiso   1.00
Cl930  Cl    0.93219   0.62152   0.67982   0.00000  Uiso   1.00
C931   C     0.16730   0.91332   0.74854   0.00000  Uiso   1.00
C932   C     0.14382   0.83933   0.99305   0.00000  Uiso   1.00
C933   C     0.15206   0.85154   0.93917   0.00000  Uiso   1.00
C934   C     0.18113   0.84519   0.51446   0.00000  Uiso   1.00
C935   C     0.22238   0.86950   0.98608   0.00000  Uiso   1.00
C936   C     0.22646   0.88686   0.93613   0.00000  Uiso   1.00
C937   C     0.19161   0.87823   0.91308   0.00000  Uiso   1.00
C938   C     0.17841   0.82726   0.56353   0.00000  Uiso   1.00
C939   C     0.25141   0.86268   0.56140   0.00000  Uiso   1.00
C940   C     0.12075   0.83660   0.91266   0.00000  Uiso   1.00
C941   C     0.21094   0.97932   0.71905   0.00000  Uiso   1.00
C942   C     0.13944   0.83459   0.85262   0.00000  Uiso   1.00
C943   C     0.21010   0.68886   0.72054   0.00000  Uiso   1.00
C944   C     0.16688   0.70933   0.74814   0.00000  Uiso   1.00
C945   C     0.12403   0.68774   0.77387   0.00000  Uiso   1.00
C946   C     0.12469   0.97833   0.77358   0.00000  Uiso   1.00
C947   C     0.16803   0.95752   0.74680   0.00000  Uiso   1.00
C948   C     0.31840   0.80517   0.71930   0.00000  Uiso   1.00
C949   C     0.03291   0.80508   0.71913   0.00000  Uiso   1.00
C950   C     0.01468   0.86156   0.78076   0.00000  Uiso   1.00
C951   C     0.30016   0.86165   0.78056   0.00000  Uiso   1.00
C952   C     0.16662   0.75338   0.74968   0.00000  Uiso   1.00
C953   C     0.19362   0.83349   0.64771   0.00000  Uiso   1.00
C954   C     0.25801   0.87712   0.50916   0.00000  Uiso   1.00
C955   C     0.21041   0.83888   0.58912   0.00000  Uiso   1.00
C956   C     0.07482   0.81953   0.94444   0.00000  Uiso   1.00
C957   C     0.06392   0.81446   0.50034   0.00000  Uiso   1.00
C958   C     0.09821   0.82274   0.52402   0.00000  Uiso   1.00
H959   H     0.27666   0.87189   0.58104   0.00000  Uiso   1.00
H960   H     0.24284   0.70620   0.69940   0.00000  Uiso   1.00
H961   H     0.09050   0.70386   0.79496   0.00000  Uiso   1.00
H962   H     0.09157   0.96155   0.79487   0.00000  Uiso   1.00
H963   H     0.30741   0.78275   0.69476   0.00000  Uiso   1.00
H964   H     0.02533   0.88412   0.80538   0.00000  Uiso   1.00
H965   H     0.27481   0.88450   0.80472   0.00000  Uiso   1.00
H966   H     0.25675   0.90683   0.91465   0.00000  Uiso   1.00
H967   H     0.28950   0.89592   0.98806   0.00000  Uiso   1.00
H968   H     0.14995   0.80564   0.58431   0.00000  Uiso   1.00
H969   H     0.08730   0.81739   0.56723   0.00000  Uiso   1.00
H970   H     0.02918   0.80213   0.52572   0.00000  Uiso   1.00
H971   H     0.19540   0.89334   0.87507   0.00000  Uiso   1.00
N972   N     0.04760   0.83334   0.75001   0.00000  Uiso   1.00
N973   N     0.28573   0.83331   0.75001   0.00000  Uiso   1.00
O974   O     0.12846   0.89442   0.75000   0.00000  Uiso   1.00
O975   O     0.20490   0.89441   0.75000   0.00000  Uiso   1.00
O976   O     0.10947   0.83333   0.82681   0.00000  Uiso   1.00
O977   O     0.18591   0.83332   0.82681   0.00000  Uiso   1.00
O978   O     0.12843   0.77226   0.74999   0.00000  Uiso   1.00
O979   O     0.20488   0.77225   0.74999   0.00000  Uiso   1.00
O980   O     0.14742   0.83335   0.67319   0.00000  Uiso   1.00
O981   O     0.22387   0.83334   0.67319   0.00000  Uiso   1.00
Zn982  Zn    0.11562   0.83334   0.75000   0.00000  Uiso   1.00
Zn983  Zn    0.21771   0.83333   0.75000   0.00000  Uiso   1.00
Cl984  Cl    0.07262   0.76780   0.67817   0.00000  Uiso   1.00
C985   C     0.03656   0.80558   0.92152   0.00000  Uiso   1.00
C986   C     0.04720   0.76205   0.89606   0.00000  Uiso   1.00
H987   H     0.08383   0.76043   0.86478   0.00000  Uiso   1.00
H988   H     0.04466   0.73866   0.92801   0.00000  Uiso   1.00
H989   H     0.02036   0.75391   0.87668   0.00000  Uiso   1.00
H990   H     0.00055   0.80426   0.95442   0.00000  Uiso   1.00
H991   H     0.03195   0.82868   0.89249   0.00000  Uiso   1.00
Cl992  Cl    0.26552   0.95486   0.67982   0.00000  Uiso   1.00
C993   C     0.50064   0.91332   0.74854   0.00000  Uiso   1.00
C994   C     0.47715   0.83933   0.99305   0.00000  Uiso   1.00
C995   C     0.48540   0.85154   0.93917   0.00000  Uiso   1.00
C996   C     0.51446   0.84519   0.51446   0.00000  Uiso   1.00
C997   C     0.55571   0.86950   0.98608   0.00000  Uiso   1.00
C998   C     0.55980   0.88686   0.93613   0.00000  Uiso   1.00
C999   C     0.52495   0.87823   0.91308   0.00000  Uiso   1.00
C1000  C     0.51174   0.82726   0.56353   0.00000  Uiso   1.00
C1001  C     0.58475   0.86268   0.56140   0.00000  Uiso   1.00
C1002  C     0.45408   0.83660   0.91266   0.00000  Uiso   1.00
C1003  C     0.54428   0.97932   0.71905   0.00000  Uiso   1.00
C1004  C     0.47277   0.83459   0.85262   0.00000  Uiso   1.00
C1005  C     0.54344   0.68886   0.72054   0.00000  Uiso   1.00
C1006  C     0.50022   0.70933   0.74814   0.00000  Uiso   1.00
C1007  C     0.45736   0.68774   0.77387   0.00000  Uiso   1.00
C1008  C     0.45802   0.97833   0.77358   0.00000  Uiso   1.00
C1009  C     0.50137   0.95752   0.74680   0.00000  Uiso   1.00
C1010  C     0.65173   0.80517   0.71930   0.00000  Uiso   1.00
C1011  C     0.36624   0.80508   0.71913   0.00000  Uiso   1.00
C1012  C     0.34801   0.86156   0.78076   0.00000  Uiso   1.00
C1013  C     0.63350   0.86165   0.78056   0.00000  Uiso   1.00
C1014  C     0.49996   0.75338   0.74968   0.00000  Uiso   1.00
C1015  C     0.52695   0.83349   0.64771   0.00000  Uiso   1.00
C1016  C     0.59134   0.87712   0.50916   0.00000  Uiso   1.00
C1017  C     0.54375   0.83888   0.58912   0.00000  Uiso   1.00
C1018  C     0.40815   0.81953   0.94444   0.00000  Uiso   1.00
C1019  C     0.39725   0.81446   0.50034   0.00000  Uiso   1.00
C1020  C     0.43154   0.82274   0.52402   0.00000  Uiso   1.00
H1021  H     0.61000   0.87189   0.58104   0.00000  Uiso   1.00
H1022  H     0.57617   0.70620   0.69940   0.00000  Uiso   1.00
H1023  H     0.42383   0.70386   0.79496   0.00000  Uiso   1.00
H1024  H     0.42491   0.96155   0.79487   0.00000  Uiso   1.00
H1025  H     0.64075   0.78275   0.69476   0.00000  Uiso   1.00
H1026  H     0.35866   0.88412   0.80538   0.00000  Uiso   1.00
H1027  H     0.60814   0.88450   0.80472   0.00000  Uiso   1.00
H1028  H     0.59009   0.90683   0.91465   0.00000  Uiso   1.00
H1029  H     0.62284   0.89592   0.98806   0.00000  Uiso   1.00
H1030  H     0.48328   0.80564   0.58431   0.00000  Uiso   1.00
H1031  H     0.42063   0.81739   0.56723   0.00000  Uiso   1.00
H1032  H     0.36252   0.80213   0.52572   0.00000  Uiso   1.00
H1033  H     0.52873   0.89334   0.87507   0.00000  Uiso   1.00
N1034  N     0.38093   0.83334   0.75001   0.00000  Uiso   1.00
N1035  N     0.61906   0.83331   0.75001   0.00000  Uiso   1.00
O1036  O     0.46179   0.89442   0.75000   0.00000  Uiso   1.00
O1037  O     0.53823   0.89441   0.75000   0.00000  Uiso   1.00
O1038  O     0.44280   0.83333   0.82681   0.00000  Uiso   1.00
O1039  O     0.51924   0.83332   0.82681   0.00000  Uiso   1.00
O1040  O     0.46177   0.77226   0.74999   0.00000  Uiso   1.00
O1041  O     0.53821   0.77225   0.74999   0.00000  Uiso   1.00
O1042  O     0.48076   0.83335   0.67319   0.00000  Uiso   1.00
O1043  O     0.55720   0.83334   0.67319   0.00000  Uiso   1.00
Zn1044 Zn    0.44896   0.83334   0.75000   0.00000  Uiso   1.00
Zn1045 Zn    0.55104   0.83333   0.75000   0.00000  Uiso   1.00
Cl1046 Cl    0.40595   0.76780   0.67817   0.00000  Uiso   1.00
C1047  C     0.36989   0.80558   0.92152   0.00000  Uiso   1.00
C1048  C     0.38053   0.76205   0.89606   0.00000  Uiso   1.00
H1049  H     0.41716   0.76043   0.86478   0.00000  Uiso   1.00
H1050  H     0.37800   0.73866   0.92801   0.00000  Uiso   1.00
H1051  H     0.35370   0.75391   0.87668   0.00000  Uiso   1.00
H1052  H     0.33388   0.80426   0.95442   0.00000  Uiso   1.00
H1053  H     0.36528   0.82868   0.89249   0.00000  Uiso   1.00
Cl1054 Cl    0.59886   0.95486   0.67982   0.00000  Uiso   1.00
C1055  C     0.83397   0.91332   0.74854   0.00000  Uiso   1.00
C1056  C     0.81048   0.83933   0.99305   0.00000  Uiso   1.00
C1057  C     0.81873   0.85154   0.93917   0.00000  Uiso   1.00
C1058  C     0.84779   0.84519   0.51446   0.00000  Uiso   1.00
C1059  C     0.88904   0.86950   0.98608   0.00000  Uiso   1.00
C1060  C     0.89313   0.88686   0.93613   0.00000  Uiso   1.00
C1061  C     0.85828   0.87823   0.91308   0.00000  Uiso   1.00
C1062  C     0.84508   0.82726   0.56353   0.00000  Uiso   1.00
C1063  C     0.91808   0.86268   0.56140   0.00000  Uiso   1.00
C1064  C     0.78742   0.83660   0.91266   0.00000  Uiso   1.00
C1065  C     0.87761   0.97932   0.71905   0.00000  Uiso   1.00
C1066  C     0.80610   0.83459   0.85262   0.00000  Uiso   1.00
C1067  C     0.87677   0.68886   0.72054   0.00000  Uiso   1.00
C1068  C     0.83355   0.70933   0.74814   0.00000  Uiso   1.00
C1069  C     0.79070   0.68774   0.77387   0.00000  Uiso   1.00
C1070  C     0.79136   0.97833   0.77358   0.00000  Uiso   1.00
C1071  C     0.83470   0.95752   0.74680   0.00000  Uiso   1.00
C1072  C     0.98506   0.80517   0.71930   0.00000  Uiso   1.00
C1073  C     0.69958   0.80508   0.71913   0.00000  Uiso   1.00
C1074  C     0.68135   0.86156   0.78076   0.00000  Uiso   1.00
C1075  C     0.96683   0.86165   0.78056   0.00000  Uiso   1.00
C1076  C     0.83329   0.75338   0.74968   0.00000  Uiso   1.00
C1077  C     0.86028   0.83349   0.64771   0.00000  Uiso   1.00
C1078  C     0.92467   0.87712   0.50916   0.00000  Uiso   1.00
C1079  C     0.87708   0.83888   0.58912   0.00000  Uiso   1.00
C1080  C     0.74148   0.81953   0.94444   0.00000  Uiso   1.00
C1081  C     0.73058   0.81446   0.50034   0.00000  Uiso   1.00
C1082  C     0.76488   0.82274   0.52402   0.00000  Uiso   1.00
H1083  H     0.94333   0.87189   0.58104   0.00000  Uiso   1.00
H1084  H     0.90951   0.70620   0.69940   0.00000  Uiso   1.00
H1085  H     0.75717   0.70386   0.79496   0.00000  Uiso   1.00
H1086  H     0.75824   0.96155   0.79487   0.00000  Uiso   1.00
H1087  H     0.97408   0.78275   0.69476   0.00000  Uiso   1.00
H1088  H     0.69200   0.88412   0.80538   0.00000  Uiso   1.00
H1089  H     0.94148   0.88450   0.80472   0.00000  Uiso   1.00
H1090  H     0.92342   0.90683   0.91465   0.00000  Uiso   1.00
H1091  H     0.95617   0.89592   0.98806   0.00000  Uiso   1.00
H1092  H     0.81661   0.80564   0.58431   0.00000  Uiso   1.00
H1093  H     0.75397   0.81739   0.56723   0.00000  Uiso   1.00
H1094  H     0.69585   0.80213   0.52572   0.00000  Uiso   1.00
H1095  H     0.86207   0.89334   0.87507   0.00000  Uiso   1.00
N1096  N     0.71426   0.83334   0.75001   0.00000  Uiso   1.00
N1097  N     0.95239   0.83331   0.75001   0.00000  Uiso   1.00
O1098  O     0.79512   0.89442   0.75000   0.00000  Uiso   1.00
O1099  O     0.87157   0.89441   0.75000   0.00000  Uiso   1.00
O1100  O     0.77613   0.83333   0.82681   0.00000  Uiso   1.00
O1101  O     0.85258   0.83332   0.82681   0.00000  Uiso   1.00
O1102  O     0.79510   0.77226   0.74999   0.00000  Uiso   1.00
O1103  O     0.87154   0.77225   0.74999   0.00000  Uiso   1.00
O1104  O     0.81409   0.83335   0.67319   0.00000  Uiso   1.00
O1105  O     0.89053   0.83334   0.67319   0.00000  Uiso   1.00
Zn1106 Zn    0.78229   0.83334   0.75000   0.00000  Uiso   1.00
Zn1107 Zn    0.88438   0.83333   0.75000   0.00000  Uiso   1.00
Cl1108 Cl    0.73928   0.76780   0.67817   0.00000  Uiso   1.00
C1109  C     0.70323   0.80558   0.92152   0.00000  Uiso   1.00
C1110  C     0.71386   0.76205   0.89606   0.00000  Uiso   1.00
H1111  H     0.75050   0.76043   0.86478   0.00000  Uiso   1.00
H1112  H     0.71133   0.73866   0.92801   0.00000  Uiso   1.00
H1113  H     0.68703   0.75391   0.87668   0.00000  Uiso   1.00
H1114  H     0.66721   0.80426   0.95442   0.00000  Uiso   1.00
H1115  H     0.69862   0.82868   0.89249   0.00000  Uiso   1.00
Cl1116 Cl    0.93219   0.95486   0.67982   0.00000  Uiso   1.00
loop_
_geom_bond_atom_site_label_1
_geom_bond_atom_site_label_2
_geom_bond_distance
_geom_bond_site_symmetry_2
_ccdc_geom_bond_type
C1     O44     1.284   .     A
C1     O45     1.282   .     A
C1     C17     1.417   .     S
C2     C3      1.406   .     A
C2     C562    1.413   .     S
C2     C586    1.412   .     S
C3     C10     1.417   .     A
C3     C7      1.416   .     A
C4     C8      1.390   .     A
C4     C560    1.413   1_554 S
C4     C563    1.418   1_554 S
C5     C6      1.393   .     A
C5     C562    1.418   .     S
C5     C582    1.406   .     S
C6     C7      1.390   .     A
C6     H36     1.084   .     S
C7     H41     1.081   .     S
C8     C25     1.386   .     A
C8     H38     1.079   .     S
C9     C24     1.397   .     A
C9     H29     1.083   .     S
C9     C25     1.400   .     A
C10    C26     1.430   .     A
C10    C12     1.476   .     S
C11    Cl62    1.766   .     S
C11    C17     1.407   .     A
C11    C199    1.374   .     S
C12    O47     1.303   .     A
C12    O46     1.290   .     A
C13    C14     1.394   .     A
C13    H30     1.085   .     S
C13    C383    1.374   1_545 S
C14    C22     1.411   .     S
C14    C15     1.392   .     A
C15    H31     1.083   .     S
C15    C388    1.370   1_545 S
C16    H32     1.084   .     S
C16    C17     1.398   .     A
C16    C201    1.370   .     S
C18    N43     1.360   .     A
C18    H33     1.082   .     S
C18    C81     1.413   .     S
C19    N42     1.376   .     A
C19    Cl54    1.753   .     S
C19    C142    1.413   1_455 S
C20    N42     1.366   .     A
C20    H34     1.082   .     S
C20    C145    1.417   1_455 S
C21    H35     1.080   .     S
C21    N43     1.368   .     A
C21    C82     1.417   .     S
C22    O48     1.282   .     A
C22    O49     1.282   .     A
C23    C25     1.451   .     S
C23    O50     1.294   .     A
C23    O51     1.290   .     A
C24    C563    1.406   1_554 S
C24    H595    1.084   1_554 S
C26    C55     1.518   .     S
C26    C585    1.397   .     S
C27    H40     1.084   .     S
C27    C28     1.385   .     A
C27    C584    1.397   1_554 S
C28    H39     1.079   .     S
C28    C560    1.412   1_554 S
H37    C582    1.084   .     S
N42    Zn52    2.012   .     S
N43    Zn53    2.011   .     S
O44    Zn52    1.991   .     S
O45    Zn53    1.995   .     S
O46    Zn52    1.958   .     S
O47    Zn53    1.902   .     S
O48    Zn52    1.995   .     S
O49    Zn53    1.991   .     S
O50    Zn52    1.902   .     S
O51    Zn53    1.958   .     S
C55    C56     1.528   .     S
C55    H60     1.113   .     S
C55    H61     1.108   .     S
C56    H59     1.110   .     S
C56    H58     1.111   .     S
C56    H57     1.108   .     S
C63    O106    1.284   .     A
C63    O107    1.282   .     A
C63    C79     1.417   .     S
C64    C65     1.406   .     A
C64    C624    1.413   .     S
C64    C648    1.412   .     S
C65    C72     1.417   .     A
C65    C69     1.416   .     A
C66    C70     1.390   .     A
C66    C622    1.413   1_554 S
C66    C625    1.418   1_554 S
C67    C68     1.393   .     A
C67    C624    1.418   .     S
C67    C644    1.406   .     S
C68    C69     1.390   .     A
C68    H98     1.084   .     S
C69    H103    1.081   .     S
C70    C87     1.386   .     A
C70    H100    1.079   .     S
C71    C86     1.397   .     A
C71    H91     1.083   .     S
C71    C87     1.400   .     A
C72    C88     1.430   .     A
C72    C74     1.476   .     S
C73    Cl124   1.766   .     S
C73    C79     1.407   .     A
C73    C261    1.374   .     S
C74    O109    1.303   .     A
C74    O108    1.290   .     A
C75    C76     1.394   .     A
C75    H92     1.085   .     S
C75    C445    1.374   1_545 S
C76    C84     1.411   .     S
C76    C77     1.392   .     A
C77    H93     1.083   .     S
C77    C450    1.370   1_545 S
C78    H94     1.084   .     S
C78    C79     1.398   .     A
C78    C263    1.370   .     S
C80    N105    1.360   .     A
C80    H95     1.082   .     S
C80    C143    1.413   .     S
C81    N104    1.376   .     A
C81    Cl116   1.753   .     S
C82    N104    1.366   .     A
C82    H96     1.082   .     S
C83    H97     1.080   .     S
C83    N105    1.368   .     A
C83    C144    1.417   .     S
C84    O110    1.282   .     A
C84    O111    1.282   .     A
C85    C87     1.451   .     S
C85    O112    1.294   .     A
C85    O113    1.290   .     A
C86    C625    1.406   1_554 S
C86    H657    1.084   1_554 S
C88    C117    1.518   .     S
C88    C647    1.397   .     S
C89    H102    1.084   .     S
C89    C90     1.385   .     A
C89    C646    1.397   1_554 S
C90    H101    1.079   .     S
C90    C622    1.412   1_554 S
H99    C644    1.084   .     S
N104   Zn114   2.012   .     S
N105   Zn115   2.011   .     S
O106   Zn114   1.991   .     S
O107   Zn115   1.995   .     S
O108   Zn114   1.958   .     S
O109   Zn115   1.902   .     S
O110   Zn114   1.995   .     S
O111   Zn115   1.991   .     S
O112   Zn114   1.902   .     S
O113   Zn115   1.958   .     S
C117   C118    1.528   .     S
C117   H122    1.113   .     S
C117   H123    1.108   .     S
C118   H121    1.110   .     S
C118   H120    1.111   .     S
C118   H119    1.108   .     S
C125   O168    1.284   .     A
C125   O169    1.282   .     A
C125   C141    1.417   .     S
C126   C127    1.406   .     A
C126   C686    1.413   .     S
C126   C710    1.412   .     S
C127   C134    1.417   .     A
C127   C131    1.416   .     A
C128   C132    1.390   .     A
C128   C684    1.413   1_554 S
C128   C687    1.418   1_554 S
C129   C130    1.393   .     A
C129   C686    1.418   .     S
C129   C706    1.406   .     S
C130   C131    1.390   .     A
C130   H160    1.084   .     S
C131   H165    1.081   .     S
C132   C149    1.386   .     A
C132   H162    1.079   .     S
C133   C148    1.397   .     A
C133   H153    1.083   .     S
C133   C149    1.400   .     A
C134   C150    1.430   .     A
C134   C136    1.476   .     S
C135   Cl186   1.766   .     S
C135   C141    1.407   .     A
C135   C323    1.374   .     S
C136   O171    1.303   .     A
C136   O170    1.290   .     A
C137   C138    1.394   .     A
C137   H154    1.085   .     S
C137   C507    1.374   1_545 S
C138   C146    1.411   .     S
C138   C139    1.392   .     A
C139   H155    1.083   .     S
C139   C512    1.370   1_545 S
C140   H156    1.084   .     S
C140   C141    1.398   .     A
C140   C325    1.370   .     S
C142   N167    1.360   .     A
C142   H157    1.082   .     S
C142   C19     1.413   1_655 S
C143   N166    1.376   .     A
C143   Cl178   1.753   .     S
C144   N166    1.366   .     A
C144   H158    1.082   .     S
C145   H159    1.080   .     S
C145   N167    1.368   .     A
C145   C20     1.417   1_655 S
C146   O172    1.282   .     A
C146   O173    1.282   .     A
C147   C149    1.451   .     S
C147   O174    1.294   .     A
C147   O175    1.290   .     A
C148   C687    1.406   1_554 S
C148   H719    1.084   1_554 S
C150   C179    1.518   .     S
C150   C709    1.397   .     S
C151   H164    1.084   .     S
C151   C152    1.385   .     A
C151   C708    1.397   1_554 S
C152   H163    1.079   .     S
C152   C684    1.412   1_554 S
H161   C706    1.084   .     S
N166   Zn176   2.012   .     S
N167   Zn177   2.011   .     S
O168   Zn176   1.991   .     S
O169   Zn177   1.995   .     S
O170   Zn176   1.958   .     S
O171   Zn177   1.902   .     S
O172   Zn176   1.995   .     S
O173   Zn177   1.991   .     S
O174   Zn176   1.902   .     S
O175   Zn177   1.958   .     S
C179   C180    1.528   .     S
C179   H184    1.113   .     S
C179   H185    1.108   .     S
C180   H183    1.110   .     S
C180   H182    1.111   .     S
C180   H181    1.108   .     S
C187   O230    1.284   .     A
C187   O231    1.282   .     A
C187   C203    1.417   .     S
C188   C189    1.406   .     A
C188   C748    1.413   .     S
C188   C772    1.412   .     S
C189   C196    1.417   .     A
C189   C193    1.416   .     A
C190   C194    1.390   .     A
C190   C746    1.413   1_554 S
C190   C749    1.418   1_554 S
C191   C192    1.393   .     A
C191   C748    1.418   .     S
C191   C768    1.406   .     S
C192   C193    1.390   .     A
C192   H222    1.084   .     S
C193   H227    1.081   .     S
C194   C211    1.386   .     A
C194   H224    1.079   .     S
C195   C210    1.397   .     A
C195   H215    1.083   .     S
C195   C211    1.400   .     A
C196   C212    1.430   .     A
C196   C198    1.476   .     S
C197   Cl248   1.766   .     S
C197   C203    1.407   .     A
C197   C385    1.374   .     S
C198   O233    1.303   .     A
C198   O232    1.290   .     A
C199   C200    1.394   .     A
C199   H216    1.085   .     S
C200   C208    1.411   .     S
C200   C201    1.392   .     A
C201   H217    1.083   .     S
C202   H218    1.084   .     S
C202   C203    1.398   .     A
C202   C387    1.370   .     S
C204   N229    1.360   .     A
C204   H219    1.082   .     S
C204   C267    1.413   .     S
C205   N228    1.376   .     A
C205   Cl240   1.753   .     S
C205   C328    1.413   1_455 S
C206   N228    1.366   .     A
C206   H220    1.082   .     S
C206   C331    1.417   1_455 S
C207   H221    1.080   .     S
C207   N229    1.368   .     A
C207   C268    1.417   .     S
C208   O234    1.282   .     A
C208   O235    1.282   .     A
C209   C211    1.451   .     S
C209   O236    1.294   .     A
C209   O237    1.290   .     A
C210   C749    1.406   1_554 S
C210   H781    1.084   1_554 S
C212   C241    1.518   .     S
C212   C771    1.397   .     S
C213   H226    1.084   .     S
C213   C214    1.385   .     A
C213   C770    1.397   1_554 S
C214   H225    1.079   .     S
C214   C746    1.412   1_554 S
H223   C768    1.084   .     S
N228   Zn238   2.012   .     S
N229   Zn239   2.011   .     S
O230   Zn238   1.991   .     S
O231   Zn239   1.995   .     S
O232   Zn238   1.958   .     S
O233   Zn239   1.902   .     S
O234   Zn238   1.995   .     S
O235   Zn239   1.991   .     S
O236   Zn238   1.902   .     S
O237   Zn239   1.958   .     S
C241   C242    1.528   .     S
C241   H246    1.113   .     S
C241   H247    1.108   .     S
C242   H245    1.110   .     S
C242   H244    1.111   .     S
C242   H243    1.108   .     S
C249   O292    1.284   .     A
C249   O293    1.282   .     A
C249   C265    1.417   .     S
C250   C251    1.406   .     A
C250   C810    1.413   .     S
C250   C834    1.412   .     S
C251   C258    1.417   .     A
C251   C255    1.416   .     A
C252   C256    1.390   .     A
C252   C808    1.413   1_554 S
C252   C811    1.418   1_554 S
C253   C254    1.393   .     A
C253   C810    1.418   .     S
C253   C830    1.406   .     S
C254   C255    1.390   .     A
C254   H284    1.084   .     S
C255   H289    1.081   .     S
C256   C273    1.386   .     A
C256   H286    1.079   .     S
C257   C272    1.397   .     A
C257   H277    1.083   .     S
C257   C273    1.400   .     A
C258   C274    1.430   .     A
C258   C260    1.476   .     S
C259   Cl310   1.766   .     S
C259   C265    1.407   .     A
C259   C447    1.374   .     S
C260   O295    1.303   .     A
C260   O294    1.290   .     A
C261   C262    1.394   .     A
C261   H278    1.085   .     S
C262   C270    1.411   .     S
C262   C263    1.392   .     A
C263   H279    1.083   .     S
C264   H280    1.084   .     S
C264   C265    1.398   .     A
C264   C449    1.370   .     S
C266   N291    1.360   .     A
C266   H281    1.082   .     S
C266   C329    1.413   .     S
C267   N290    1.376   .     A
C267   Cl302   1.753   .     S
C268   N290    1.366   .     A
C268   H282    1.082   .     S
C269   H283    1.080   .     S
C269   N291    1.368   .     A
C269   C330    1.417   .     S
C270   O296    1.282   .     A
C270   O297    1.282   .     A
C271   C273    1.451   .     S
C271   O298    1.294   .     A
C271   O299    1.290   .     A
C272   C811    1.406   1_554 S
C272   H843    1.084   1_554 S
C274   C303    1.518   .     S
C274   C833    1.397   .     S
C275   H288    1.084   .     S
C275   C276    1.385   .     A
C275   C832    1.397   1_554 S
C276   H287    1.079   .     S
C276   C808    1.412   1_554 S
H285   C830    1.084   .     S
N290   Zn300   2.012   .     S
N291   Zn301   2.011   .     S
O292   Zn300   1.991   .     S
O293   Zn301   1.995   .     S
O294   Zn300   1.958   .     S
O295   Zn301   1.902   .     S
O296   Zn300   1.995   .     S
O297   Zn301   1.991   .     S
O298   Zn300   1.902   .     S
O299   Zn301   1.958   .     S
C303   C304    1.528   .     S
C303   H308    1.113   .     S
C303   H309    1.108   .     S
C304   H307    1.110   .     S
C304   H306    1.111   .     S
C304   H305    1.108   .     S
C311   O354    1.284   .     A
C311   O355    1.282   .     A
C311   C327    1.417   .     S
C312   C313    1.406   .     A
C312   C872    1.413   .     S
C312   C896    1.412   .     S
C313   C320    1.417   .     A
C313   C317    1.416   .     A
C314   C318    1.390   .     A
C314   C870    1.413   1_554 S
C314   C873    1.418   1_554 S
C315   C316    1.393   .     A
C315   C872    1.418   .     S
C315   C892    1.406   .     S
C316   C317    1.390   .     A
C316   H346    1.084   .     S
C317   H351    1.081   .     S
C318   C335    1.386   .     A
C318   H348    1.079   .     S
C319   C334    1.397   .     A
C319   H339    1.083   .     S
C319   C335    1.400   .     A
C320   C336    1.430   .     A
C320   C322    1.476   .     S
C321   Cl372   1.766   .     S
C321   C327    1.407   .     A
C321   C509    1.374   .     S
C322   O357    1.303   .     A
C322   O356    1.290   .     A
C323   C324    1.394   .     A
C323   H340    1.085   .     S
C324   C332    1.411   .     S
C324   C325    1.392   .     A
C325   H341    1.083   .     S
C326   H342    1.084   .     S
C326   C327    1.398   .     A
C326   C511    1.370   .     S
C328   N353    1.360   .     A
C328   H343    1.082   .     S
C328   C205    1.413   1_655 S
C329   N352    1.376   .     A
C329   Cl364   1.753   .     S
C330   N352    1.366   .     A
C330   H344    1.082   .     S
C331   H345    1.080   .     S
C331   N353    1.368   .     A
C331   C206    1.417   1_655 S
C332   O358    1.282   .     A
C332   O359    1.282   .     A
C333   C335    1.451   .     S
C333   O360    1.294   .     A
C333   O361    1.290   .     A
C334   C873    1.406   1_554 S
C334   H905    1.084   1_554 S
C336   C365    1.518   .     S
C336   C895    1.397   .     S
C337   H350    1.084   .     S
C337   C338    1.385   .     A
C337   C894    1.397   1_554 S
C338   H349    1.079   .     S
C338   C870    1.412   1_554 S
H347   C892    1.084   .     S
N352   Zn362   2.012   .     S
N353   Zn363   2.011   .     S
O354   Zn362   1.991   .     S
O355   Zn363   1.995   .     S
O356   Zn362   1.958   .     S
O357   Zn363   1.902   .     S
O358   Zn362   1.995   .     S
O359   Zn363   1.991   .     S
O360   Zn362   1.902   .     S
O361   Zn363   1.958   .     S
C365   C366    1.528   .     S
C365   H370    1.113   .     S
C365   H371    1.108   .     S
C366   H369    1.110   .     S
C366   H368    1.111   .     S
C366   H367    1.108   .     S
C373   O416    1.284   .     A
C373   O417    1.282   .     A
C373   C389    1.417   .     S
C374   C375    1.406   .     A
C374   C934    1.413   .     S
C374   C958    1.412   .     S
C375   C382    1.417   .     A
C375   C379    1.416   .     A
C376   C380    1.390   .     A
C376   C932    1.413   1_554 S
C376   C935    1.418   1_554 S
C377   C378    1.393   .     A
C377   C934    1.418   .     S
C377   C954    1.406   .     S
C378   C379    1.390   .     A
C378   H408    1.084   .     S
C379   H413    1.081   .     S
C380   C397    1.386   .     A
C380   H410    1.079   .     S
C381   C396    1.397   .     A
C381   H401    1.083   .     S
C381   C397    1.400   .     A
C382   C398    1.430   .     A
C382   C384    1.476   .     S
C383   Cl434   1.766   .     S
C383   C389    1.407   .     A
C383   C13     1.374   1_565 S
C384   O419    1.303   .     A
C384   O418    1.290   .     A
C385   C386    1.394   .     A
C385   H402    1.085   .     S
C386   C394    1.411   .     S
C386   C387    1.392   .     A
C387   H403    1.083   .     S
C388   H404    1.084   .     S
C388   C389    1.398   .     A
C388   C15     1.370   1_565 S
C390   N415    1.360   .     A
C390   H405    1.082   .     S
C390   C453    1.413   .     S
C391   N414    1.376   .     A
C391   Cl426   1.753   .     S
C391   C514    1.413   1_455 S
C392   N414    1.366   .     A
C392   H406    1.082   .     S
C392   C517    1.417   1_455 S
C393   H407    1.080   .     S
C393   N415    1.368   .     A
C393   C454    1.417   .     S
C394   O420    1.282   .     A
C394   O421    1.282   .     A
C395   C397    1.451   .     S
C395   O422    1.294   .     A
C395   O423    1.290   .     A
C396   C935    1.406   1_554 S
C396   H967    1.084   1_554 S
C398   C427    1.518   .     S
C398   C957    1.397   .     S
C399   H412    1.084   .     S
C399   C400    1.385   .     A
C399   C956    1.397   1_554 S
C400   H411    1.079   .     S
C400   C932    1.412   1_554 S
H409   C954    1.084   .     S
N414   Zn424   2.012   .     S
N415   Zn425   2.011   .     S
O416   Zn424   1.991   .     S
O417   Zn425   1.995   .     S
O418   Zn424   1.958   .     S
O419   Zn425   1.902   .     S
O420   Zn424   1.995   .     S
O421   Zn425   1.991   .     S
O422   Zn424   1.902   .     S
O423   Zn425   1.958   .     S
C427   C428    1.528   .     S
C427   H432    1.113   .     S
C427   H433    1.108   .     S
C428   H431    1.110   .     S
C428   H430    1.111   .     S
C428   H429    1.108   .     S
C435   O478    1.284   .     A
C435   O479    1.282   .     A
C435   C451    1.417   .     S
C436   C437    1.406   .     A
C436   C996    1.413   .     S
C436   C1020   1.412   .     S
C437   C444    1.417   .     A
C437   C441    1.416   .     A
C438   C442    1.390   .     A
C438   C994    1.413   1_554 S
C438   C997    1.418   1_554 S
C439   C440    1.393   .     A
C439   C996    1.418   .     S
C439   C1016   1.406   .     S
C440   C441    1.390   .     A
C440   H470    1.084   .     S
C441   H475    1.081   .     S
C442   C459    1.386   .     A
C442   H472    1.079   .     S
C443   C458    1.397   .     A
C443   H463    1.083   .     S
C443   C459    1.400   .     A
C444   C460    1.430   .     A
C444   C446    1.476   .     S
C445   Cl496   1.766   .     S
C445   C451    1.407   .     A
C445   C75     1.374   1_565 S
C446   O481    1.303   .     A
C446   O480    1.290   .     A
C447   C448    1.394   .     A
C447   H464    1.085   .     S
C448   C456    1.411   .     S
C448   C449    1.392   .     A
C449   H465    1.083   .     S
C450   H466    1.084   .     S
C450   C451    1.398   .     A
C450   C77     1.370   1_565 S
C452   N477    1.360   .     A
C452   H467    1.082   .     S
C452   C515    1.413   .     S
C453   N476    1.376   .     A
C453   Cl488   1.753   .     S
C454   N476    1.366   .     A
C454   H468    1.082   .     S
C455   H469    1.080   .     S
C455   N477    1.368   .     A
C455   C516    1.417   .     S
C456   O482    1.282   .     A
C456   O483    1.282   .     A
C457   C459    1.451   .     S
C457   O484    1.294   .     A
C457   O485    1.290   .     A
C458   C997    1.406   1_554 S
C458   H1029   1.084   1_554 S
C460   C489    1.518   .     S
C460   C1019   1.397   .     S
C461   H474    1.084   .     S
C461   C462    1.385   .     A
C461   C1018   1.397   1_554 S
C462   H473    1.079   .     S
C462   C994    1.412   1_554 S
H471   C1016   1.084   .     S
N476   Zn486   2.012   .     S
N477   Zn487   2.011   .     S
O478   Zn486   1.991   .     S
O479   Zn487   1.995   .     S
O480   Zn486   1.958   .     S
O481   Zn487   1.902   .     S
O482   Zn486   1.995   .     S
O483   Zn487   1.991   .     S
O484   Zn486   1.902   .     S
O485   Zn487   1.958   .     S
C489   C490    1.528   .     S
C489   H494    1.113   .     S
C489   H495    1.108   .     S
C490   H493    1.110   .     S
C490   H492    1.111   .     S
C490   H491    1.108   .     S
C497   O540    1.284   .     A
C497   O541    1.282   .     A
C497   C513    1.417   .     S
C498   C499    1.406   .     A
C498   C1058   1.413   .     S
C498   C1082   1.412   .     S
C499   C506    1.417   .     A
C499   C503    1.416   .     A
C500   C504    1.390   .     A
C500   C1056   1.413   1_554 S
C500   C1059   1.418   1_554 S
C501   C502    1.393   .     A
C501   C1058   1.418   .     S
C501   C1078   1.406   .     S
C502   C503    1.390   .     A
C502   H532    1.084   .     S
C503   H537    1.081   .     S
C504   C521    1.386   .     A
C504   H534    1.079   .     S
C505   C520    1.397   .     A
C505   H525    1.083   .     S
C505   C521    1.400   .     A
C506   C522    1.430   .     A
C506   C508    1.476   .     S
C507   Cl558   1.766   .     S
C507   C513    1.407   .     A
C507   C137    1.374   1_565 S
C508   O543    1.303   .     A
C508   O542    1.290   .     A
C509   C510    1.394   .     A
C509   H526    1.085   .     S
C510   C518    1.411   .     S
C510   C511    1.392   .     A
C511   H527    1.083   .     S
C512   H528    1.084   .     S
C512   C513    1.398   .     A
C512   C139    1.370   1_565 S
C514   N539    1.360   .     A
C514   H529    1.082   .     S
C514   C391    1.413   1_655 S
C515   N538    1.376   .     A
C515   Cl550   1.753   .     S
C516   N538    1.366   .     A
C516   H530    1.082   .     S
C517   H531    1.080   .     S
C517   N539    1.368   .     A
C517   C392    1.417   1_655 S
C518   O544    1.282   .     A
C518   O545    1.282   .     A
C519   C521    1.451   .     S
C519   O546    1.294   .     A
C519   O547    1.290   .     A
C520   C1059   1.406   1_554 S
C520   H1091   1.084   1_554 S
C522   C551    1.518   .     S
C522   C1081   1.397   .     S
C523   H536    1.084   .     S
C523   C524    1.385   .     A
C523   C1080   1.397   1_554 S
C524   H535    1.079   .     S
C524   C1056   1.412   1_554 S
H533   C1078   1.084   .     S
N538   Zn548   2.012   .     S
N539   Zn549   2.011   .     S
O540   Zn548   1.991   .     S
O541   Zn549   1.995   .     S
O542   Zn548   1.958   .     S
O543   Zn549   1.902   .     S
O544   Zn548   1.995   .     S
O545   Zn549   1.991   .     S
O546   Zn548   1.902   .     S
O547   Zn549   1.958   .     S
C551   C552    1.528   .     S
C551   H556    1.113   .     S
C551   H557    1.108   .     S
C552   H555    1.110   .     S
C552   H554    1.111   .     S
C552   H553    1.108   .     S
C559   O602    1.284   .     A
C559   O603    1.282   .     A
C559   C575    1.417   .     S
C560   C561    1.406   .     A
C560   C4      1.413   1_556 S
C560   C28     1.412   1_556 S
C561   C568    1.417   .     A
C561   C565    1.416   .     A
C562   C566    1.390   .     A
C563   C564    1.393   .     A
C563   C4      1.418   1_556 S
C563   C24     1.406   1_556 S
C564   C565    1.390   .     A
C564   H594    1.084   .     S
C565   H599    1.081   .     S
C566   C583    1.386   .     A
C566   H596    1.079   .     S
C567   C582    1.397   .     A
C567   H587    1.083   .     S
C567   C583    1.400   .     A
C568   C584    1.430   .     A
C568   C570    1.476   .     S
C569   Cl620   1.766   .     S
C569   C575    1.407   .     A
C569   C757    1.374   .     S
C570   O605    1.303   .     A
C570   O604    1.290   .     A
C571   C572    1.394   .     A
C571   H588    1.085   .     S
C571   C941    1.374   1_545 S
C572   C580    1.411   .     S
C572   C573    1.392   .     A
C573   H589    1.083   .     S
C573   C946    1.370   1_545 S
C574   H590    1.084   .     S
C574   C575    1.398   .     A
C574   C759    1.370   .     S
C576   N601    1.360   .     A
C576   H591    1.082   .     S
C576   C639    1.413   .     S
C577   N600    1.376   .     A
C577   Cl612   1.753   .     S
C577   C700    1.413   1_455 S
C578   N600    1.366   .     A
C578   H592    1.082   .     S
C578   C703    1.417   1_455 S
C579   H593    1.080   .     S
C579   N601    1.368   .     A
C579   C640    1.417   .     S
C580   O606    1.282   .     A
C580   O607    1.282   .     A
C581   C583    1.451   .     S
C581   O608    1.294   .     A
C581   O609    1.290   .     A
C584   C613    1.518   .     S
C584   C27     1.397   1_556 S
C585   H598    1.084   .     S
C585   C586    1.385   .     A
C586   H597    1.079   .     S
H595   C24     1.084   1_556 S
N600   Zn610   2.012   .     S
N601   Zn611   2.011   .     S
O602   Zn610   1.991   .     S
O603   Zn611   1.995   .     S
O604   Zn610   1.958   .     S
O605   Zn611   1.902   .     S
O606   Zn610   1.995   .     S
O607   Zn611   1.991   .     S
O608   Zn610   1.902   .     S
O609   Zn611   1.958   .     S
C613   C614    1.528   .     S
C613   H618    1.113   .     S
C613   H619    1.108   .     S
C614   H617    1.110   .     S
C614   H616    1.111   .     S
C614   H615    1.108   .     S
C621   O664    1.284   .     A
C621   O665    1.282   .     A
C621   C637    1.417   .     S
C622   C623    1.406   .     A
C622   C66     1.413   1_556 S
C622   C90     1.412   1_556 S
C623   C630    1.417   .     A
C623   C627    1.416   .     A
C624   C628    1.390   .     A
C625   C626    1.393   .     A
C625   C66     1.418   1_556 S
C625   C86     1.406   1_556 S
C626   C627    1.390   .     A
C626   H656    1.084   .     S
C627   H661    1.081   .     S
C628   C645    1.386   .     A
C628   H658    1.079   .     S
C629   C644    1.397   .     A
C629   H649    1.083   .     S
C629   C645    1.400   .     A
C630   C646    1.430   .     A
C630   C632    1.476   .     S
C631   Cl682   1.766   .     S
C631   C637    1.407   .     A
C631   C819    1.374   .     S
C632   O667    1.303   .     A
C632   O666    1.290   .     A
C633   C634    1.394   .     A
C633   H650    1.085   .     S
C633   C1003   1.374   1_545 S
C634   C642    1.411   .     S
C634   C635    1.392   .     A
C635   H651    1.083   .     S
C635   C1008   1.370   1_545 S
C636   H652    1.084   .     S
C636   C637    1.398   .     A
C636   C821    1.370   .     S
C638   N663    1.360   .     A
C638   H653    1.082   .     S
C638   C701    1.413   .     S
C639   N662    1.376   .     A
C639   Cl674   1.753   .     S
C640   N662    1.366   .     A
C640   H654    1.082   .     S
C641   H655    1.080   .     S
C641   N663    1.368   .     A
C641   C702    1.417   .     S
C642   O668    1.282   .     A
C642   O669    1.282   .     A
C643   C645    1.451   .     S
C643   O670    1.294   .     A
C643   O671    1.290   .     A
C646   C675    1.518   .     S
C646   C89     1.397   1_556 S
C647   H660    1.084   .     S
C647   C648    1.385   .     A
C648   H659    1.079   .     S
H657   C86     1.084   1_556 S
N662   Zn672   2.012   .     S
N663   Zn673   2.011   .     S
O664   Zn672   1.991   .     S
O665   Zn673   1.995   .     S
O666   Zn672   1.958   .     S
O667   Zn673   1.902   .     S
O668   Zn672   1.995   .     S
O669   Zn673   1.991   .     S
O670   Zn672   1.902   .     S
O671   Zn673   1.958   .     S
C675   C676    1.528   .     S
C675   H680    1.113   .     S
C675   H681    1.108   .     S
C676   H679    1.110   .     S
C676   H678    1.111   .     S
C676   H677    1.108   .     S
C683   O726    1.284   .     A
C683   O727    1.282   .     A
C683   C699    1.417   .     S
C684   C685    1.406   .     A
C684   C128    1.413   1_556 S
C684   C152    1.412   1_556 S
C685   C692    1.417   .     A
C685   C689    1.416   .     A
C686   C690    1.390   .     A
C687   C688    1.393   .     A
C687   C128    1.418   1_556 S
C687   C148    1.406   1_556 S
C688   C689    1.390   .     A
C688   H718    1.084   .     S
C689   H723    1.081   .     S
C690   C707    1.386   .     A
C690   H720    1.079   .     S
C691   C706    1.397   .     A
C691   H711    1.083   .     S
C691   C707    1.400   .     A
C692   C708    1.430   .     A
C692   C694    1.476   .     S
C693   Cl744   1.766   .     S
C693   C699    1.407   .     A
C693   C881    1.374   .     S
C694   O729    1.303   .     A
C694   O728    1.290   .     A
C695   C696    1.394   .     A
C695   H712    1.085   .     S
C695   C1065   1.374   1_545 S
C696   C704    1.411   .     S
C696   C697    1.392   .     A
C697   H713    1.083   .     S
C697   C1070   1.370   1_545 S
C698   H714    1.084   .     S
C698   C699    1.398   .     A
C698   C883    1.370   .     S
C700   N725    1.360   .     A
C700   H715    1.082   .     S
C700   C577    1.413   1_655 S
C701   N724    1.376   .     A
C701   Cl736   1.753   .     S
C702   N724    1.366   .     A
C702   H716    1.082   .     S
C703   H717    1.080   .     S
C703   N725    1.368   .     A
C703   C578    1.417   1_655 S
C704   O730    1.282   .     A
C704   O731    1.282   .     A
C705   C707    1.451   .     S
C705   O732    1.294   .     A
C705   O733    1.290   .     A
C708   C737    1.518   .     S
C708   C151    1.397   1_556 S
C709   H722    1.084   .     S
C709   C710    1.385   .     A
C710   H721    1.079   .     S
H719   C148    1.084   1_556 S
N724   Zn734   2.012   .     S
N725   Zn735   2.011   .     S
O726   Zn734   1.991   .     S
O727   Zn735   1.995   .     S
O728   Zn734   1.958   .     S
O729   Zn735   1.902   .     S
O730   Zn734   1.995   .     S
O731   Zn735   1.991   .     S
O732   Zn734   1.902   .     S
O733   Zn735   1.958   .     S
C737   C738    1.528   .     S
C737   H742    1.113   .     S
C737   H743    1.108   .     S
C738   H741    1.110   .     S
C738   H740    1.111   .     S
C738   H739    1.108   .     S
C745   O788    1.284   .     A
C745   O789    1.282   .     A
C745   C761    1.417   .     S
C746   C747    1.406   .     A
C746   C190    1.413   1_556 S
C746   C214    1.412   1_556 S
C747   C754    1.417   .     A
C747   C751    1.416   .     A
C748   C752    1.390   .     A
C749   C750    1.393   .     A
C749   C190    1.418   1_556 S
C749   C210    1.406   1_556 S
C750   C751    1.390   .     A
C750   H780    1.084   .     S
C751   H785    1.081   .     S
C752   C769    1.386   .     A
C752   H782    1.079   .     S
C753   C768    1.397   .     A
C753   H773    1.083   .     S
C753   C769    1.400   .     A
C754   C770    1.430   .     A
C754   C756    1.476   .     S
C755   Cl806   1.766   .     S
C755   C761    1.407   .     A
C755   C943    1.374   .     S
C756   O791    1.303   .     A
C756   O790    1.290   .     A
C757   C758    1.394   .     A
C757   H774    1.085   .     S
C758   C766    1.411   .     S
C758   C759    1.392   .     A
C759   H775    1.083   .     S
C760   H776    1.084   .     S
C760   C761    1.398   .     A
C760   C945    1.370   .     S
C762   N787    1.360   .     A
C762   H777    1.082   .     S
C762   C825    1.413   .     S
C763   N786    1.376   .     A
C763   Cl798   1.753   .     S
C763   C886    1.413   1_455 S
C764   N786    1.366   .     A
C764   H778    1.082   .     S
C764   C889    1.417   1_455 S
C765   H779    1.080   .     S
C765   N787    1.368   .     A
C765   C826    1.417   .     S
C766   O792    1.282   .     A
C766   O793    1.282   .     A
C767   C769    1.451   .     S
C767   O794    1.294   .     A
C767   O795    1.290   .     A
C770   C799    1.518   .     S
C770   C213    1.397   1_556 S
C771   H784    1.084   .     S
C771   C772    1.385   .     A
C772   H783    1.079   .     S
H781   C210    1.084   1_556 S
N786   Zn796   2.012   .     S
N787   Zn797   2.011   .     S
O788   Zn796   1.991   .     S
O789   Zn797   1.995   .     S
O790   Zn796   1.958   .     S
O791   Zn797   1.902   .     S
O792   Zn796   1.995   .     S
O793   Zn797   1.991   .     S
O794   Zn796   1.902   .     S
O795   Zn797   1.958   .     S
C799   C800    1.528   .     S
C799   H804    1.113   .     S
C799   H805    1.108   .     S
C800   H803    1.110   .     S
C800   H802    1.111   .     S
C800   H801    1.108   .     S
C807   O850    1.284   .     A
C807   O851    1.282   .     A
C807   C823    1.417   .     S
C808   C809    1.406   .     A
C808   C252    1.413   1_556 S
C808   C276    1.412   1_556 S
C809   C816    1.417   .     A
C809   C813    1.416   .     A
C810   C814    1.390   .     A
C811   C812    1.393   .     A
C811   C252    1.418   1_556 S
C811   C272    1.406   1_556 S
C812   C813    1.390   .     A
C812   H842    1.084   .     S
C813   H847    1.081   .     S
C814   C831    1.386   .     A
C814   H844    1.079   .     S
C815   C830    1.397   .     A
C815   H835    1.083   .     S
C815   C831    1.400   .     A
C816   C832    1.430   .     A
C816   C818    1.476   .     S
C817   Cl868   1.766   .     S
C817   C823    1.407   .     A
C817   C1005   1.374   .     S
C818   O853    1.303   .     A
C818   O852    1.290   .     A
C819   C820    1.394   .     A
C819   H836    1.085   .     S
C820   C828    1.411   .     S
C820   C821    1.392   .     A
C821   H837    1.083   .     S
C822   H838    1.084   .     S
C822   C823    1.398   .     A
C822   C1007   1.370   .     S
C824   N849    1.360   .     A
C824   H839    1.082   .     S
C824   C887    1.413   .     S
C825   N848    1.376   .     A
C825   Cl860   1.753   .     S
C826   N848    1.366   .     A
C826   H840    1.082   .     S
C827   H841    1.080   .     S
C827   N849    1.368   .     A
C827   C888    1.417   .     S
C828   O854    1.282   .     A
C828   O855    1.282   .     A
C829   C831    1.451   .     S
C829   O856    1.294   .     A
C829   O857    1.290   .     A
C832   C861    1.518   .     S
C832   C275    1.397   1_556 S
C833   H846    1.084   .     S
C833   C834    1.385   .     A
C834   H845    1.079   .     S
H843   C272    1.084   1_556 S
N848   Zn858   2.012   .     S
N849   Zn859   2.011   .     S
O850   Zn858   1.991   .     S
O851   Zn859   1.995   .     S
O852   Zn858   1.958   .     S
O853   Zn859   1.902   .     S
O854   Zn858   1.995   .     S
O855   Zn859   1.991   .     S
O856   Zn858   1.902   .     S
O857   Zn859   1.958   .     S
C861   C862    1.528   .     S
C861   H866    1.113   .     S
C861   H867    1.108   .     S
C862   H865    1.110   .     S
C862   H864    1.111   .     S
C862   H863    1.108   .     S
C869   O912    1.284   .     A
C869   O913    1.282   .     A
C869   C885    1.417   .     S
C870   C871    1.406   .     A
C870   C314    1.413   1_556 S
C870   C338    1.412   1_556 S
C871   C878    1.417   .     A
C871   C875    1.416   .     A
C872   C876    1.390   .     A
C873   C874    1.393   .     A
C873   C314    1.418   1_556 S
C873   C334    1.406   1_556 S
C874   C875    1.390   .     A
C874   H904    1.084   .     S
C875   H909    1.081   .     S
C876   C893    1.386   .     A
C876   H906    1.079   .     S
C877   C892    1.397   .     A
C877   H897    1.083   .     S
C877   C893    1.400   .     A
C878   C894    1.430   .     A
C878   C880    1.476   .     S
C879   Cl930   1.766   .     S
C879   C885    1.407   .     A
C879   C1067   1.374   .     S
C880   O915    1.303   .     A
C880   O914    1.290   .     A
C881   C882    1.394   .     A
C881   H898    1.085   .     S
C882   C890    1.411   .     S
C882   C883    1.392   .     A
C883   H899    1.083   .     S
C884   H900    1.084   .     S
C884   C885    1.398   .     A
C884   C1069   1.370   .     S
C886   N911    1.360   .     A
C886   H901    1.082   .     S
C886   C763    1.413   1_655 S
C887   N910    1.376   .     A
C887   Cl922   1.753   .     S
C888   N910    1.366   .     A
C888   H902    1.082   .     S
C889   H903    1.080   .     S
C889   N911    1.368   .     A
C889   C764    1.417   1_655 S
C890   O916    1.282   .     A
C890   O917    1.282   .     A
C891   C893    1.451   .     S
C891   O918    1.294   .     A
C891   O919    1.290   .     A
C894   C923    1.518   .     S
C894   C337    1.397   1_556 S
C895   H908    1.084   .     S
C895   C896    1.385   .     A
C896   H907    1.079   .     S
H905   C334    1.084   1_556 S
N910   Zn920   2.012   .     S
N911   Zn921   2.011   .     S
O912   Zn920   1.991   .     S
O913   Zn921   1.995   .     S
O914   Zn920   1.958   .     S
O915   Zn921   1.902   .     S
O916   Zn920   1.995   .     S
O917   Zn921   1.991   .     S
O918   Zn920   1.902   .     S
O919   Zn921   1.958   .     S
C923   C924    1.528   .     S
C923   H928    1.113   .     S
C923   H929    1.108   .     S
C924   H927    1.110   .     S
C924   H926    1.111   .     S
C924   H925    1.108   .     S
C931   O974    1.284   .     A
C931   O975    1.282   .     A
C931   C947    1.417   .     S
C932   C933    1.406   .     A
C932   C376    1.413   1_556 S
C932   C400    1.412   1_556 S
C933   C940    1.417   .     A
C933   C937    1.416   .     A
C934   C938    1.390   .     A
C935   C936    1.393   .     A
C935   C376    1.418   1_556 S
C935   C396    1.406   1_556 S
C936   C937    1.390   .     A
C936   H966    1.084   .     S
C937   H971    1.081   .     S
C938   C955    1.386   .     A
C938   H968    1.079   .     S
C939   C954    1.397   .     A
C939   H959    1.083   .     S
C939   C955    1.400   .     A
C940   C956    1.430   .     A
C940   C942    1.476   .     S
C941   Cl992   1.766   .     S
C941   C947    1.407   .     A
C941   C571    1.374   1_565 S
C942   O977    1.303   .     A
C942   O976    1.290   .     A
C943   C944    1.394   .     A
C943   H960    1.085   .     S
C944   C952    1.411   .     S
C944   C945    1.392   .     A
C945   H961    1.083   .     S
C946   H962    1.084   .     S
C946   C947    1.398   .     A
C946   C573    1.370   1_565 S
C948   N973    1.360   .     A
C948   H963    1.082   .     S
C948   C1011   1.413   .     S
C949   N972    1.376   .     A
C949   Cl984   1.753   .     S
C949   C1072   1.413   1_455 S
C950   N972    1.366   .     A
C950   H964    1.082   .     S
C950   C1075   1.417   1_455 S
C951   H965    1.080   .     S
C951   N973    1.368   .     A
C951   C1012   1.417   .     S
C952   O978    1.282   .     A
C952   O979    1.282   .     A
C953   C955    1.451   .     S
C953   O980    1.294   .     A
C953   O981    1.290   .     A
C956   C985    1.518   .     S
C956   C399    1.397   1_556 S
C957   H970    1.084   .     S
C957   C958    1.385   .     A
C958   H969    1.079   .     S
H967   C396    1.084   1_556 S
N972   Zn982   2.012   .     S
N973   Zn983   2.011   .     S
O974   Zn982   1.991   .     S
O975   Zn983   1.995   .     S
O976   Zn982   1.958   .     S
O977   Zn983   1.902   .     S
O978   Zn982   1.995   .     S
O979   Zn983   1.991   .     S
O980   Zn982   1.902   .     S
O981   Zn983   1.958   .     S
C985   C986    1.528   .     S
C985   H990    1.113   .     S
C985   H991    1.108   .     S
C986   H989    1.110   .     S
C986   H988    1.111   .     S
C986   H987    1.108   .     S
C993   O1036   1.284   .     A
C993   O1037   1.282   .     A
C993   C1009   1.417   .     S
C994   C995    1.406   .     A
C994   C438    1.413   1_556 S
C994   C462    1.412   1_556 S
C995   C1002   1.417   .     A
C995   C999    1.416   .     A
C996   C1000   1.390   .     A
C997   C998    1.393   .     A
C997   C438    1.418   1_556 S
C997   C458    1.406   1_556 S
C998   C999    1.390   .     A
C998   H1028   1.084   .     S
C999   H1033   1.081   .     S
C1000  C1017   1.386   .     A
C1000  H1030   1.079   .     S
C1001  C1016   1.397   .     A
C1001  H1021   1.083   .     S
C1001  C1017   1.400   .     A
C1002  C1018   1.430   .     A
C1002  C1004   1.476   .     S
C1003  Cl1054  1.766   .     S
C1003  C1009   1.407   .     A
C1003  C633    1.374   1_565 S
C1004  O1039   1.303   .     A
C1004  O1038   1.290   .     A
C1005  C1006   1.394   .     A
C1005  H1022   1.085   .     S
C1006  C1014   1.411   .     S
C1006  C1007   1.392   .     A
C1007  H1023   1.083   .     S
C1008  H1024   1.084   .     S
C1008  C1009   1.398   .     A
C1008  C635    1.370   1_565 S
C1010  N1035   1.360   .     A
C1010  H1025   1.082   .     S
C1010  C1073   1.413   .     S
C1011  N1034   1.376   .     A
C1011  Cl1046  1.753   .     S
C1012  N1034   1.366   .     A
C1012  H1026   1.082   .     S
C1013  H1027   1.080   .     S
C1013  N1035   1.368   .     A
C1013  C1074   1.417   .     S
C1014  O1040   1.282   .     A
C1014  O1041   1.282   .     A
C1015  C1017   1.451   .     S
C1015  O1042   1.294   .     A
C1015  O1043   1.290   .     A
C1018  C1047   1.518   .     S
C1018  C461    1.397   1_556 S
C1019  H1032   1.084   .     S
C1019  C1020   1.385   .     A
C1020  H1031   1.079   .     S
H1029  C458    1.084   1_556 S
N1034  Zn1044  2.012   .     S
N1035  Zn1045  2.011   .     S
O1036  Zn1044  1.991   .     S
O1037  Zn1045  1.995   .     S
O1038  Zn1044  1.958   .     S
O1039  Zn1045  1.902   .     S
O1040  Zn1044  1.995   .     S
O1041  Zn1045  1.991   .     S
O1042  Zn1044  1.902   .     S
O1043  Zn1045  1.958   .     S
C1047  C1048   1.528   .     S
C1047  H1052   1.113   .     S
C1047  H1053   1.108   .     S
C1048  H1051   1.110   .     S
C1048  H1050   1.111   .     S
C1048  H1049   1.108   .     S
C1055  O1098   1.284   .     A
C1055  O1099   1.282   .     A
C1055  C1071   1.417   .     S
C1056  C1057   1.406   .     A
C1056  C500    1.413   1_556 S
C1056  C524    1.412   1_556 S
C1057  C1064   1.417   .     A
C1057  C1061   1.416   .     A
C1058  C1062   1.390   .     A
C1059  C1060   1.393   .     A
C1059  C500    1.418   1_556 S
C1059  C520    1.406   1_556 S
C1060  C1061   1.390   .     A
C1060  H1090   1.084   .     S
C1061  H1095   1.081   .     S
C1062  C1079   1.386   .     A
C1062  H1092   1.079   .     S
C1063  C1078   1.397   .     A
C1063  H1083   1.083   .     S
C1063  C1079   1.400   .     A
C1064  C1080   1.430   .     A
C1064  C1066   1.476   .     S
C1065  Cl1116  1.766   .     S
C1065  C1071   1.407   .     A
C1065  C695    1.374   1_565 S
C1066  O1101   1.303   .     A
C1066  O1100   1.290   .     A
C1067  C1068   1.394   .     A
C1067  H1084   1.085   .     S
C1068  C1076   1.411   .     S
C1068  C1069   1.392   .     A
C1069  H1085   1.083   .     S
C1070  H1086   1.084   .     S
C1070  C1071   1.398   .     A
C1070  C697    1.370   1_565 S
C1072  N1097   1.360   .     A
C1072  H1087   1.082   .     S
C1072  C949    1.413   1_655 S
C1073  N1096   1.376   .     A
C1073  Cl1108  1.753   .     S
C1074  N1096   1.366   .     A
C1074  H1088   1.082   .     S
C1075  H1089   1.080   .     S
C1075  N1097   1.368   .     A
C1075  C950    1.417   1_655 S
C1076  O1102   1.282   .     A
C1076  O1103   1.282   .     A
C1077  C1079   1.451   .     S
C1077  O1104   1.294   .     A
C1077  O1105   1.290   .     A
C1080  C1109   1.518   .     S
C1080  C523    1.397   1_556 S
C1081  H1094   1.084   .     S
C1081  C1082   1.385   .     A
C1082  H1093   1.079   .     S
H1091  C520    1.084   1_556 S
N1096  Zn1106  2.012   .     S
N1097  Zn1107  2.011   .     S
O1098  Zn1106  1.991   .     S
O1099  Zn1107  1.995   .     S
O1100  Zn1106  1.958   .     S
O1101  Zn1107  1.902   .     S
O1102  Zn1106  1.995   .     S
O1103  Zn1107  1.991   .     S
O1104  Zn1106  1.902   .     S
O1105  Zn1107  1.958   .     S
C1109  C1110   1.528   .     S
C1109  H1114   1.113   .     S
C1109  H1115   1.108   .     S
C1110  H1113   1.110   .     S
C1110  H1112   1.111   .     S
C1110  H1111   1.108   .     S
