data_str_m3_o1_o5_pcu_sym.46
_audit_creation_date              2020-01-03
_audit_creation_method            'Materials Studio'
_symmetry_space_group_name_H-M    'P1'
_symmetry_Int_Tables_number       1
_symmetry_cell_setting            triclinic
loop_
_symmetry_equiv_pos_as_xyz
  x,y,z
_cell_length_a                    32.5445
_cell_length_b                    30.0442
_cell_length_c                    26.6433
_cell_angle_alpha                 89.7809
_cell_angle_beta                  91.3497
_cell_angle_gamma                 90.8614
loop_
_atom_site_label
_atom_site_type_symbol
_atom_site_fract_x
_atom_site_fract_y
_atom_site_fract_z
_atom_site_U_iso_or_equiv
_atom_site_adp_type
_atom_site_occupancy
Br1    Br    0.20813   0.05143   0.26416   0.00000  Uiso   1.00
Br2    Br    0.10813   0.27745   0.08561   0.00000  Uiso   1.00
Br3    Br    0.11856   0.05160   0.07540   0.00000  Uiso   1.00
Br4    Br    0.22320   0.27901   0.25016   0.00000  Uiso   1.00
C5     C     0.08689   0.16675   0.16640   0.00000  Uiso   1.00
C6     C     0.02221   0.20501   0.18320   0.00000  Uiso   1.00
C7     C     0.29115   0.16771   0.16362   0.00000  Uiso   1.00
C8     C     0.04283   0.16797   0.16455   0.00000  Uiso   1.00
C9     C     0.18625   0.02355   0.20429   0.00000  Uiso   1.00
C10    C     0.14410   0.30904   0.13181   0.00000  Uiso   1.00
C11    C     0.14590   0.02314   0.13022   0.00000  Uiso   1.00
C12    C     0.18867   0.30958   0.20213   0.00000  Uiso   1.00
C13    C     0.04583   0.13007   0.06228   0.00000  Uiso   1.00
C14    C     0.03474   0.10160   0.01637   0.00000  Uiso   1.00
C15    C     0.05201   0.12149   0.30138   0.00000  Uiso   1.00
C16    C     0.24668   0.16696   0.16578   0.00000  Uiso   1.00
C17    C     0.28856   0.26704   0.12924   0.00000  Uiso   1.00
C18    C     0.32870   0.28349   0.10558   0.00000  Uiso   1.00
C19    C     0.32042   0.31636   0.06285   0.00000  Uiso   1.00
C20    C     0.28886   0.06559   0.18675   0.00000  Uiso   1.00
C21    C     0.32874   0.04832   0.21086   0.00000  Uiso   1.00
C22    C     0.31996   0.02764   0.26212   0.00000  Uiso   1.00
C23    C     0.03624   0.24535   0.25415   0.00000  Uiso   1.00
C24    C     0.06213   0.28373   0.27610   0.00000  Uiso   1.00
C25    C     0.10726   0.27230   0.28146   0.00000  Uiso   1.00
C26    C     0.16678   0.16673   0.07309   0.00000  Uiso   1.00
C27    C     0.16675   0.16661   0.26025   0.00000  Uiso   1.00
C28    C     0.16689   0.16674   0.02186   0.00000  Uiso   1.00
C29    C     0.16691   0.16657   0.31148   0.00000  Uiso   1.00
C30    C     0.02072   0.13340   0.14112   0.00000  Uiso   1.00
C31    C     0.31345   0.20751   0.17413   0.00000  Uiso   1.00
C32    C     0.31266   0.12922   0.14968   0.00000  Uiso   1.00
H33    H     0.07900   0.13926   0.06219   0.00000  Uiso   1.00
H34    H     0.01552   0.29980   0.13429   0.00000  Uiso   1.00
H35    H     0.01206   0.25461   0.09055   0.00000  Uiso   1.00
H36    H     0.30189   0.30009   0.03234   0.00000  Uiso   1.00
H37    H     0.01672   0.32810   0.04752   0.00000  Uiso   1.00
H38    H     0.30383   0.01241   0.07670   0.00000  Uiso   1.00
H39    H     0.26793   0.03673   0.17958   0.00000  Uiso   1.00
H40    H     0.27448   0.08731   0.21475   0.00000  Uiso   1.00
H41    H     0.00958   0.02359   0.18631   0.00000  Uiso   1.00
H42    H     0.01761   0.07610   0.21648   0.00000  Uiso   1.00
H43    H     0.29928   0.04875   0.28402   0.00000  Uiso   1.00
H44    H     0.02814   0.16164   0.05839   0.00000  Uiso   1.00
H45    H     0.01539   0.02508   0.28466   0.00000  Uiso   1.00
H46    H     0.30568   0.32747   0.25738   0.00000  Uiso   1.00
H47    H     0.04404   0.21422   0.27467   0.00000  Uiso   1.00
H48    H     0.00338   0.25276   0.26044   0.00000  Uiso   1.00
H49    H     0.05966   0.31305   0.25084   0.00000  Uiso   1.00
H50    H     0.05064   0.29225   0.31369   0.00000  Uiso   1.00
H51    H     0.11133   0.24220   0.30523   0.00000  Uiso   1.00
H52    H     0.12460   0.30056   0.29899   0.00000  Uiso   1.00
H53    H     0.11938   0.26664   0.24371   0.00000  Uiso   1.00
H54    H     0.04668   0.06755   0.02167   0.00000  Uiso   1.00
H55    H     0.00074   0.09840   0.01274   0.00000  Uiso   1.00
H56    H     0.07715   0.14611   0.30894   0.00000  Uiso   1.00
H57    H     0.02712   0.13795   0.27938   0.00000  Uiso   1.00
H58    H     0.06498   0.09472   0.27824   0.00000  Uiso   1.00
H59    H     0.26773   0.29568   0.13343   0.00000  Uiso   1.00
H60    H     0.27245   0.24331   0.10316   0.00000  Uiso   1.00
N61    N     0.16667   0.28573   0.16667   0.00000  Uiso   1.00
N62    N     0.16667   0.04760   0.16667   0.00000  Uiso   1.00
O63    O     0.10559   0.20487   0.16666   0.00000  Uiso   1.00
O64    O     0.29509   0.24860   0.17790   0.00000  Uiso   1.00
O65    O     0.29411   0.08825   0.14044   0.00000  Uiso   1.00
O66    O     0.04374   0.24154   0.20235   0.00000  Uiso   1.00
O67    O     0.22774   0.12846   0.16667   0.00000  Uiso   1.00
O68    O     0.22774   0.20487   0.16667   0.00000  Uiso   1.00
O69    O     0.10559   0.12846   0.16666   0.00000  Uiso   1.00
O70    O     0.16667   0.20488   0.09511   0.00000  Uiso   1.00
O71    O     0.16666   0.12845   0.23822   0.00000  Uiso   1.00
O72    O     0.16666   0.20488   0.23822   0.00000  Uiso   1.00
O73    O     0.16667   0.12845   0.09511   0.00000  Uiso   1.00
O74    O     0.03813   0.10543   0.10685   0.00000  Uiso   1.00
Zn75   Zn    0.16667   0.21771   0.16667   0.00000  Uiso   1.00
Zn76   Zn    0.16667   0.11563   0.16667   0.00000  Uiso   1.00
Br77   Br    0.54146   0.05143   0.26416   0.00000  Uiso   1.00
Br78   Br    0.44147   0.27745   0.08561   0.00000  Uiso   1.00
Br79   Br    0.45189   0.05160   0.07540   0.00000  Uiso   1.00
Br80   Br    0.55654   0.27901   0.25016   0.00000  Uiso   1.00
C81    C     0.42023   0.16675   0.16640   0.00000  Uiso   1.00
C82    C     0.35554   0.20501   0.18320   0.00000  Uiso   1.00
C83    C     0.62448   0.16771   0.16362   0.00000  Uiso   1.00
C84    C     0.37616   0.16797   0.16455   0.00000  Uiso   1.00
C85    C     0.51959   0.02355   0.20429   0.00000  Uiso   1.00
C86    C     0.47743   0.30904   0.13181   0.00000  Uiso   1.00
C87    C     0.47923   0.02314   0.13022   0.00000  Uiso   1.00
C88    C     0.52200   0.30958   0.20213   0.00000  Uiso   1.00
C89    C     0.37916   0.13007   0.06228   0.00000  Uiso   1.00
C90    C     0.36807   0.10160   0.01637   0.00000  Uiso   1.00
C91    C     0.38535   0.12149   0.30138   0.00000  Uiso   1.00
C92    C     0.58001   0.16696   0.16578   0.00000  Uiso   1.00
C93    C     0.62190   0.26704   0.12924   0.00000  Uiso   1.00
C94    C     0.66203   0.28349   0.10558   0.00000  Uiso   1.00
C95    C     0.65375   0.31636   0.06285   0.00000  Uiso   1.00
C96    C     0.62219   0.06559   0.18675   0.00000  Uiso   1.00
C97    C     0.66207   0.04832   0.21086   0.00000  Uiso   1.00
C98    C     0.65330   0.02764   0.26212   0.00000  Uiso   1.00
C99    C     0.36957   0.24535   0.25415   0.00000  Uiso   1.00
C100   C     0.39547   0.28373   0.27610   0.00000  Uiso   1.00
C101   C     0.44060   0.27230   0.28146   0.00000  Uiso   1.00
C102   C     0.50012   0.16673   0.07309   0.00000  Uiso   1.00
C103   C     0.50008   0.16661   0.26025   0.00000  Uiso   1.00
C104   C     0.50023   0.16674   0.02186   0.00000  Uiso   1.00
C105   C     0.50024   0.16657   0.31148   0.00000  Uiso   1.00
C106   C     0.35405   0.13340   0.14112   0.00000  Uiso   1.00
C107   C     0.64679   0.20751   0.17413   0.00000  Uiso   1.00
C108   C     0.64599   0.12922   0.14968   0.00000  Uiso   1.00
H109   H     0.41233   0.13926   0.06219   0.00000  Uiso   1.00
H110   H     0.34886   0.29980   0.13429   0.00000  Uiso   1.00
H111   H     0.34539   0.25461   0.09055   0.00000  Uiso   1.00
H112   H     0.63522   0.30009   0.03234   0.00000  Uiso   1.00
H113   H     0.35006   0.32810   0.04752   0.00000  Uiso   1.00
H114   H     0.63717   0.01241   0.07670   0.00000  Uiso   1.00
H115   H     0.60126   0.03673   0.17958   0.00000  Uiso   1.00
H116   H     0.60782   0.08731   0.21475   0.00000  Uiso   1.00
H117   H     0.34292   0.02359   0.18631   0.00000  Uiso   1.00
H118   H     0.35095   0.07610   0.21648   0.00000  Uiso   1.00
H119   H     0.63261   0.04875   0.28402   0.00000  Uiso   1.00
H120   H     0.36147   0.16164   0.05839   0.00000  Uiso   1.00
H121   H     0.34872   0.02508   0.28466   0.00000  Uiso   1.00
H122   H     0.63901   0.32747   0.25738   0.00000  Uiso   1.00
H123   H     0.37737   0.21422   0.27467   0.00000  Uiso   1.00
H124   H     0.33671   0.25276   0.26044   0.00000  Uiso   1.00
H125   H     0.39300   0.31305   0.25084   0.00000  Uiso   1.00
H126   H     0.38397   0.29225   0.31369   0.00000  Uiso   1.00
H127   H     0.44466   0.24220   0.30523   0.00000  Uiso   1.00
H128   H     0.45793   0.30056   0.29899   0.00000  Uiso   1.00
H129   H     0.45271   0.26664   0.24371   0.00000  Uiso   1.00
H130   H     0.38002   0.06755   0.02167   0.00000  Uiso   1.00
H131   H     0.33407   0.09840   0.01274   0.00000  Uiso   1.00
H132   H     0.41049   0.14611   0.30894   0.00000  Uiso   1.00
H133   H     0.36045   0.13795   0.27938   0.00000  Uiso   1.00
H134   H     0.39832   0.09472   0.27824   0.00000  Uiso   1.00
H135   H     0.60106   0.29568   0.13343   0.00000  Uiso   1.00
H136   H     0.60578   0.24331   0.10316   0.00000  Uiso   1.00
N137   N     0.50000   0.28573   0.16667   0.00000  Uiso   1.00
N138   N     0.50000   0.04760   0.16667   0.00000  Uiso   1.00
O139   O     0.43892   0.20487   0.16666   0.00000  Uiso   1.00
O140   O     0.62842   0.24860   0.17790   0.00000  Uiso   1.00
O141   O     0.62744   0.08825   0.14044   0.00000  Uiso   1.00
O142   O     0.37707   0.24154   0.20235   0.00000  Uiso   1.00
O143   O     0.56108   0.12846   0.16667   0.00000  Uiso   1.00
O144   O     0.56108   0.20487   0.16667   0.00000  Uiso   1.00
O145   O     0.43892   0.12846   0.16666   0.00000  Uiso   1.00
O146   O     0.50000   0.20488   0.09511   0.00000  Uiso   1.00
O147   O     0.50000   0.12845   0.23822   0.00000  Uiso   1.00
O148   O     0.50000   0.20488   0.23822   0.00000  Uiso   1.00
O149   O     0.50000   0.12845   0.09511   0.00000  Uiso   1.00
O150   O     0.37147   0.10543   0.10685   0.00000  Uiso   1.00
Zn151  Zn    0.50000   0.21771   0.16667   0.00000  Uiso   1.00
Zn152  Zn    0.50000   0.11563   0.16667   0.00000  Uiso   1.00
Br153  Br    0.87480   0.05143   0.26416   0.00000  Uiso   1.00
Br154  Br    0.77480   0.27745   0.08561   0.00000  Uiso   1.00
Br155  Br    0.78522   0.05160   0.07540   0.00000  Uiso   1.00
Br156  Br    0.88987   0.27901   0.25016   0.00000  Uiso   1.00
C157   C     0.75356   0.16675   0.16640   0.00000  Uiso   1.00
C158   C     0.68887   0.20501   0.18320   0.00000  Uiso   1.00
C159   C     0.95782   0.16771   0.16362   0.00000  Uiso   1.00
C160   C     0.70950   0.16797   0.16455   0.00000  Uiso   1.00
C161   C     0.85292   0.02355   0.20429   0.00000  Uiso   1.00
C162   C     0.81076   0.30904   0.13181   0.00000  Uiso   1.00
C163   C     0.81256   0.02314   0.13022   0.00000  Uiso   1.00
C164   C     0.85534   0.30958   0.20213   0.00000  Uiso   1.00
C165   C     0.71249   0.13007   0.06228   0.00000  Uiso   1.00
C166   C     0.70141   0.10160   0.01637   0.00000  Uiso   1.00
C167   C     0.71868   0.12149   0.30138   0.00000  Uiso   1.00
C168   C     0.91334   0.16696   0.16578   0.00000  Uiso   1.00
C169   C     0.95523   0.26704   0.12924   0.00000  Uiso   1.00
C170   C     0.99537   0.28349   0.10558   0.00000  Uiso   1.00
C171   C     0.98708   0.31636   0.06285   0.00000  Uiso   1.00
C172   C     0.95552   0.06559   0.18675   0.00000  Uiso   1.00
C173   C     0.99540   0.04832   0.21086   0.00000  Uiso   1.00
C174   C     0.98663   0.02764   0.26212   0.00000  Uiso   1.00
C175   C     0.70290   0.24535   0.25415   0.00000  Uiso   1.00
C176   C     0.72880   0.28373   0.27610   0.00000  Uiso   1.00
C177   C     0.77393   0.27230   0.28146   0.00000  Uiso   1.00
C178   C     0.83345   0.16673   0.07309   0.00000  Uiso   1.00
C179   C     0.83341   0.16661   0.26025   0.00000  Uiso   1.00
C180   C     0.83356   0.16674   0.02186   0.00000  Uiso   1.00
C181   C     0.83357   0.16657   0.31148   0.00000  Uiso   1.00
C182   C     0.68739   0.13340   0.14112   0.00000  Uiso   1.00
C183   C     0.98012   0.20751   0.17413   0.00000  Uiso   1.00
C184   C     0.97932   0.12922   0.14968   0.00000  Uiso   1.00
H185   H     0.74567   0.13926   0.06219   0.00000  Uiso   1.00
H186   H     0.68219   0.29980   0.13429   0.00000  Uiso   1.00
H187   H     0.67872   0.25461   0.09055   0.00000  Uiso   1.00
H188   H     0.96856   0.30009   0.03234   0.00000  Uiso   1.00
H189   H     0.68339   0.32810   0.04752   0.00000  Uiso   1.00
H190   H     0.97050   0.01241   0.07670   0.00000  Uiso   1.00
H191   H     0.93460   0.03673   0.17958   0.00000  Uiso   1.00
H192   H     0.94115   0.08731   0.21475   0.00000  Uiso   1.00
H193   H     0.67625   0.02359   0.18631   0.00000  Uiso   1.00
H194   H     0.68428   0.07610   0.21648   0.00000  Uiso   1.00
H195   H     0.96594   0.04875   0.28402   0.00000  Uiso   1.00
H196   H     0.69480   0.16164   0.05839   0.00000  Uiso   1.00
H197   H     0.68205   0.02508   0.28466   0.00000  Uiso   1.00
H198   H     0.97235   0.32747   0.25738   0.00000  Uiso   1.00
H199   H     0.71070   0.21422   0.27467   0.00000  Uiso   1.00
H200   H     0.67005   0.25276   0.26044   0.00000  Uiso   1.00
H201   H     0.72633   0.31305   0.25084   0.00000  Uiso   1.00
H202   H     0.71731   0.29225   0.31369   0.00000  Uiso   1.00
H203   H     0.77799   0.24220   0.30523   0.00000  Uiso   1.00
H204   H     0.79127   0.30056   0.29899   0.00000  Uiso   1.00
H205   H     0.78605   0.26664   0.24371   0.00000  Uiso   1.00
H206   H     0.71335   0.06755   0.02167   0.00000  Uiso   1.00
H207   H     0.66740   0.09840   0.01274   0.00000  Uiso   1.00
H208   H     0.74382   0.14611   0.30894   0.00000  Uiso   1.00
H209   H     0.69378   0.13795   0.27938   0.00000  Uiso   1.00
H210   H     0.73165   0.09472   0.27824   0.00000  Uiso   1.00
H211   H     0.93439   0.29568   0.13343   0.00000  Uiso   1.00
H212   H     0.93911   0.24331   0.10316   0.00000  Uiso   1.00
N213   N     0.83333   0.28573   0.16667   0.00000  Uiso   1.00
N214   N     0.83333   0.04760   0.16667   0.00000  Uiso   1.00
O215   O     0.77226   0.20487   0.16666   0.00000  Uiso   1.00
O216   O     0.96176   0.24860   0.17790   0.00000  Uiso   1.00
O217   O     0.96077   0.08825   0.14044   0.00000  Uiso   1.00
O218   O     0.71041   0.24154   0.20235   0.00000  Uiso   1.00
O219   O     0.89441   0.12846   0.16667   0.00000  Uiso   1.00
O220   O     0.89441   0.20487   0.16667   0.00000  Uiso   1.00
O221   O     0.77226   0.12846   0.16666   0.00000  Uiso   1.00
O222   O     0.83334   0.20488   0.09511   0.00000  Uiso   1.00
O223   O     0.83333   0.12845   0.23822   0.00000  Uiso   1.00
O224   O     0.83333   0.20488   0.23822   0.00000  Uiso   1.00
O225   O     0.83334   0.12845   0.09511   0.00000  Uiso   1.00
O226   O     0.70480   0.10543   0.10685   0.00000  Uiso   1.00
Zn227  Zn    0.83333   0.21771   0.16667   0.00000  Uiso   1.00
Zn228  Zn    0.83333   0.11563   0.16667   0.00000  Uiso   1.00
Br229  Br    0.20813   0.38477   0.26416   0.00000  Uiso   1.00
Br230  Br    0.10813   0.61078   0.08561   0.00000  Uiso   1.00
Br231  Br    0.11856   0.38493   0.07540   0.00000  Uiso   1.00
Br232  Br    0.22320   0.61234   0.25016   0.00000  Uiso   1.00
C233   C     0.08689   0.50009   0.16640   0.00000  Uiso   1.00
C234   C     0.02221   0.53835   0.18320   0.00000  Uiso   1.00
C235   C     0.29115   0.50105   0.16362   0.00000  Uiso   1.00
C236   C     0.04283   0.50131   0.16455   0.00000  Uiso   1.00
C237   C     0.18625   0.35688   0.20429   0.00000  Uiso   1.00
C238   C     0.14410   0.64237   0.13181   0.00000  Uiso   1.00
C239   C     0.14590   0.35647   0.13022   0.00000  Uiso   1.00
C240   C     0.18867   0.64291   0.20213   0.00000  Uiso   1.00
C241   C     0.04583   0.46341   0.06228   0.00000  Uiso   1.00
C242   C     0.03474   0.43493   0.01637   0.00000  Uiso   1.00
C243   C     0.05201   0.45482   0.30138   0.00000  Uiso   1.00
C244   C     0.24668   0.50029   0.16578   0.00000  Uiso   1.00
C245   C     0.28856   0.60038   0.12924   0.00000  Uiso   1.00
C246   C     0.32870   0.61682   0.10558   0.00000  Uiso   1.00
C247   C     0.32042   0.64969   0.06285   0.00000  Uiso   1.00
C248   C     0.28886   0.39892   0.18675   0.00000  Uiso   1.00
C249   C     0.32874   0.38166   0.21086   0.00000  Uiso   1.00
C250   C     0.31996   0.36097   0.26212   0.00000  Uiso   1.00
C251   C     0.03624   0.57868   0.25415   0.00000  Uiso   1.00
C252   C     0.06213   0.61706   0.27610   0.00000  Uiso   1.00
C253   C     0.10726   0.60563   0.28146   0.00000  Uiso   1.00
C254   C     0.16678   0.50006   0.07309   0.00000  Uiso   1.00
C255   C     0.16675   0.49995   0.26025   0.00000  Uiso   1.00
C256   C     0.16689   0.50008   0.02186   0.00000  Uiso   1.00
C257   C     0.16691   0.49990   0.31148   0.00000  Uiso   1.00
C258   C     0.02072   0.46673   0.14112   0.00000  Uiso   1.00
C259   C     0.31345   0.54084   0.17413   0.00000  Uiso   1.00
C260   C     0.31266   0.46255   0.14968   0.00000  Uiso   1.00
H261   H     0.07900   0.47259   0.06219   0.00000  Uiso   1.00
H262   H     0.01552   0.63313   0.13429   0.00000  Uiso   1.00
H263   H     0.01206   0.58794   0.09055   0.00000  Uiso   1.00
H264   H     0.30189   0.63343   0.03234   0.00000  Uiso   1.00
H265   H     0.01672   0.66143   0.04752   0.00000  Uiso   1.00
H266   H     0.30383   0.34574   0.07670   0.00000  Uiso   1.00
H267   H     0.26793   0.37007   0.17958   0.00000  Uiso   1.00
H268   H     0.27448   0.42064   0.21475   0.00000  Uiso   1.00
H269   H     0.00958   0.35692   0.18631   0.00000  Uiso   1.00
H270   H     0.01761   0.40944   0.21648   0.00000  Uiso   1.00
H271   H     0.29928   0.38209   0.28402   0.00000  Uiso   1.00
H272   H     0.02814   0.49497   0.05839   0.00000  Uiso   1.00
H273   H     0.01539   0.35841   0.28466   0.00000  Uiso   1.00
H274   H     0.30568   0.66081   0.25738   0.00000  Uiso   1.00
H275   H     0.04404   0.54755   0.27467   0.00000  Uiso   1.00
H276   H     0.00338   0.58609   0.26044   0.00000  Uiso   1.00
H277   H     0.05966   0.64638   0.25084   0.00000  Uiso   1.00
H278   H     0.05064   0.62558   0.31369   0.00000  Uiso   1.00
H279   H     0.11133   0.57553   0.30523   0.00000  Uiso   1.00
H280   H     0.12460   0.63389   0.29899   0.00000  Uiso   1.00
H281   H     0.11938   0.59997   0.24371   0.00000  Uiso   1.00
H282   H     0.04668   0.40089   0.02167   0.00000  Uiso   1.00
H283   H     0.00074   0.43173   0.01274   0.00000  Uiso   1.00
H284   H     0.07715   0.47944   0.30894   0.00000  Uiso   1.00
H285   H     0.02712   0.47129   0.27938   0.00000  Uiso   1.00
H286   H     0.06498   0.42806   0.27824   0.00000  Uiso   1.00
H287   H     0.26773   0.62901   0.13343   0.00000  Uiso   1.00
H288   H     0.27245   0.57664   0.10316   0.00000  Uiso   1.00
N289   N     0.16667   0.61907   0.16667   0.00000  Uiso   1.00
N290   N     0.16667   0.38093   0.16667   0.00000  Uiso   1.00
O291   O     0.10559   0.53821   0.16666   0.00000  Uiso   1.00
O292   O     0.29509   0.58193   0.17790   0.00000  Uiso   1.00
O293   O     0.29411   0.42158   0.14044   0.00000  Uiso   1.00
O294   O     0.04374   0.57488   0.20235   0.00000  Uiso   1.00
O295   O     0.22774   0.46179   0.16667   0.00000  Uiso   1.00
O296   O     0.22774   0.53821   0.16667   0.00000  Uiso   1.00
O297   O     0.10559   0.46179   0.16666   0.00000  Uiso   1.00
O298   O     0.16667   0.53821   0.09511   0.00000  Uiso   1.00
O299   O     0.16666   0.46179   0.23822   0.00000  Uiso   1.00
O300   O     0.16666   0.53821   0.23822   0.00000  Uiso   1.00
O301   O     0.16667   0.46179   0.09511   0.00000  Uiso   1.00
O302   O     0.03813   0.43876   0.10685   0.00000  Uiso   1.00
Zn303  Zn    0.16667   0.55104   0.16667   0.00000  Uiso   1.00
Zn304  Zn    0.16667   0.44896   0.16667   0.00000  Uiso   1.00
Br305  Br    0.54146   0.38477   0.26416   0.00000  Uiso   1.00
Br306  Br    0.44147   0.61078   0.08561   0.00000  Uiso   1.00
Br307  Br    0.45189   0.38493   0.07540   0.00000  Uiso   1.00
Br308  Br    0.55654   0.61234   0.25016   0.00000  Uiso   1.00
C309   C     0.42023   0.50009   0.16640   0.00000  Uiso   1.00
C310   C     0.35554   0.53835   0.18320   0.00000  Uiso   1.00
C311   C     0.62448   0.50105   0.16362   0.00000  Uiso   1.00
C312   C     0.37616   0.50131   0.16455   0.00000  Uiso   1.00
C313   C     0.51959   0.35688   0.20429   0.00000  Uiso   1.00
C314   C     0.47743   0.64237   0.13181   0.00000  Uiso   1.00
C315   C     0.47923   0.35647   0.13022   0.00000  Uiso   1.00
C316   C     0.52200   0.64291   0.20213   0.00000  Uiso   1.00
C317   C     0.37916   0.46341   0.06228   0.00000  Uiso   1.00
C318   C     0.36807   0.43493   0.01637   0.00000  Uiso   1.00
C319   C     0.38535   0.45482   0.30138   0.00000  Uiso   1.00
C320   C     0.58001   0.50029   0.16578   0.00000  Uiso   1.00
C321   C     0.62190   0.60038   0.12924   0.00000  Uiso   1.00
C322   C     0.66203   0.61682   0.10558   0.00000  Uiso   1.00
C323   C     0.65375   0.64969   0.06285   0.00000  Uiso   1.00
C324   C     0.62219   0.39892   0.18675   0.00000  Uiso   1.00
C325   C     0.66207   0.38166   0.21086   0.00000  Uiso   1.00
C326   C     0.65330   0.36097   0.26212   0.00000  Uiso   1.00
C327   C     0.36957   0.57868   0.25415   0.00000  Uiso   1.00
C328   C     0.39547   0.61706   0.27610   0.00000  Uiso   1.00
C329   C     0.44060   0.60563   0.28146   0.00000  Uiso   1.00
C330   C     0.50012   0.50006   0.07309   0.00000  Uiso   1.00
C331   C     0.50008   0.49995   0.26025   0.00000  Uiso   1.00
C332   C     0.50023   0.50008   0.02186   0.00000  Uiso   1.00
C333   C     0.50024   0.49990   0.31148   0.00000  Uiso   1.00
C334   C     0.35405   0.46673   0.14112   0.00000  Uiso   1.00
C335   C     0.64679   0.54084   0.17413   0.00000  Uiso   1.00
C336   C     0.64599   0.46255   0.14968   0.00000  Uiso   1.00
H337   H     0.41233   0.47259   0.06219   0.00000  Uiso   1.00
H338   H     0.34886   0.63313   0.13429   0.00000  Uiso   1.00
H339   H     0.34539   0.58794   0.09055   0.00000  Uiso   1.00
H340   H     0.63522   0.63343   0.03234   0.00000  Uiso   1.00
H341   H     0.35006   0.66143   0.04752   0.00000  Uiso   1.00
H342   H     0.63717   0.34574   0.07670   0.00000  Uiso   1.00
H343   H     0.60126   0.37007   0.17958   0.00000  Uiso   1.00
H344   H     0.60782   0.42064   0.21475   0.00000  Uiso   1.00
H345   H     0.34292   0.35692   0.18631   0.00000  Uiso   1.00
H346   H     0.35095   0.40944   0.21648   0.00000  Uiso   1.00
H347   H     0.63261   0.38209   0.28402   0.00000  Uiso   1.00
H348   H     0.36147   0.49497   0.05839   0.00000  Uiso   1.00
H349   H     0.34872   0.35841   0.28466   0.00000  Uiso   1.00
H350   H     0.63901   0.66081   0.25738   0.00000  Uiso   1.00
H351   H     0.37737   0.54755   0.27467   0.00000  Uiso   1.00
H352   H     0.33671   0.58609   0.26044   0.00000  Uiso   1.00
H353   H     0.39300   0.64638   0.25084   0.00000  Uiso   1.00
H354   H     0.38397   0.62558   0.31369   0.00000  Uiso   1.00
H355   H     0.44466   0.57553   0.30523   0.00000  Uiso   1.00
H356   H     0.45793   0.63389   0.29899   0.00000  Uiso   1.00
H357   H     0.45271   0.59997   0.24371   0.00000  Uiso   1.00
H358   H     0.38002   0.40089   0.02167   0.00000  Uiso   1.00
H359   H     0.33407   0.43173   0.01274   0.00000  Uiso   1.00
H360   H     0.41049   0.47944   0.30894   0.00000  Uiso   1.00
H361   H     0.36045   0.47129   0.27938   0.00000  Uiso   1.00
H362   H     0.39832   0.42806   0.27824   0.00000  Uiso   1.00
H363   H     0.60106   0.62901   0.13343   0.00000  Uiso   1.00
H364   H     0.60578   0.57664   0.10316   0.00000  Uiso   1.00
N365   N     0.50000   0.61907   0.16667   0.00000  Uiso   1.00
N366   N     0.50000   0.38093   0.16667   0.00000  Uiso   1.00
O367   O     0.43892   0.53821   0.16666   0.00000  Uiso   1.00
O368   O     0.62842   0.58193   0.17790   0.00000  Uiso   1.00
O369   O     0.62744   0.42158   0.14044   0.00000  Uiso   1.00
O370   O     0.37707   0.57488   0.20235   0.00000  Uiso   1.00
O371   O     0.56108   0.46179   0.16667   0.00000  Uiso   1.00
O372   O     0.56108   0.53821   0.16667   0.00000  Uiso   1.00
O373   O     0.43892   0.46179   0.16666   0.00000  Uiso   1.00
O374   O     0.50000   0.53821   0.09511   0.00000  Uiso   1.00
O375   O     0.50000   0.46179   0.23822   0.00000  Uiso   1.00
O376   O     0.50000   0.53821   0.23822   0.00000  Uiso   1.00
O377   O     0.50000   0.46179   0.09511   0.00000  Uiso   1.00
O378   O     0.37147   0.43876   0.10685   0.00000  Uiso   1.00
Zn379  Zn    0.50000   0.55104   0.16667   0.00000  Uiso   1.00
Zn380  Zn    0.50000   0.44896   0.16667   0.00000  Uiso   1.00
Br381  Br    0.87480   0.38477   0.26416   0.00000  Uiso   1.00
Br382  Br    0.77480   0.61078   0.08561   0.00000  Uiso   1.00
Br383  Br    0.78522   0.38493   0.07540   0.00000  Uiso   1.00
Br384  Br    0.88987   0.61234   0.25016   0.00000  Uiso   1.00
C385   C     0.75356   0.50009   0.16640   0.00000  Uiso   1.00
C386   C     0.68887   0.53835   0.18320   0.00000  Uiso   1.00
C387   C     0.95782   0.50105   0.16362   0.00000  Uiso   1.00
C388   C     0.70950   0.50131   0.16455   0.00000  Uiso   1.00
C389   C     0.85292   0.35688   0.20429   0.00000  Uiso   1.00
C390   C     0.81076   0.64237   0.13181   0.00000  Uiso   1.00
C391   C     0.81256   0.35647   0.13022   0.00000  Uiso   1.00
C392   C     0.85534   0.64291   0.20213   0.00000  Uiso   1.00
C393   C     0.71249   0.46341   0.06228   0.00000  Uiso   1.00
C394   C     0.70141   0.43493   0.01637   0.00000  Uiso   1.00
C395   C     0.71868   0.45482   0.30138   0.00000  Uiso   1.00
C396   C     0.91334   0.50029   0.16578   0.00000  Uiso   1.00
C397   C     0.95523   0.60038   0.12924   0.00000  Uiso   1.00
C398   C     0.99537   0.61682   0.10558   0.00000  Uiso   1.00
C399   C     0.98708   0.64969   0.06285   0.00000  Uiso   1.00
C400   C     0.95552   0.39892   0.18675   0.00000  Uiso   1.00
C401   C     0.99540   0.38166   0.21086   0.00000  Uiso   1.00
C402   C     0.98663   0.36097   0.26212   0.00000  Uiso   1.00
C403   C     0.70290   0.57868   0.25415   0.00000  Uiso   1.00
C404   C     0.72880   0.61706   0.27610   0.00000  Uiso   1.00
C405   C     0.77393   0.60563   0.28146   0.00000  Uiso   1.00
C406   C     0.83345   0.50006   0.07309   0.00000  Uiso   1.00
C407   C     0.83341   0.49995   0.26025   0.00000  Uiso   1.00
C408   C     0.83356   0.50008   0.02186   0.00000  Uiso   1.00
C409   C     0.83357   0.49990   0.31148   0.00000  Uiso   1.00
C410   C     0.68739   0.46673   0.14112   0.00000  Uiso   1.00
C411   C     0.98012   0.54084   0.17413   0.00000  Uiso   1.00
C412   C     0.97932   0.46255   0.14968   0.00000  Uiso   1.00
H413   H     0.74567   0.47259   0.06219   0.00000  Uiso   1.00
H414   H     0.68219   0.63313   0.13429   0.00000  Uiso   1.00
H415   H     0.67872   0.58794   0.09055   0.00000  Uiso   1.00
H416   H     0.96856   0.63343   0.03234   0.00000  Uiso   1.00
H417   H     0.68339   0.66143   0.04752   0.00000  Uiso   1.00
H418   H     0.97050   0.34574   0.07670   0.00000  Uiso   1.00
H419   H     0.93460   0.37007   0.17958   0.00000  Uiso   1.00
H420   H     0.94115   0.42064   0.21475   0.00000  Uiso   1.00
H421   H     0.67625   0.35692   0.18631   0.00000  Uiso   1.00
H422   H     0.68428   0.40944   0.21648   0.00000  Uiso   1.00
H423   H     0.96594   0.38209   0.28402   0.00000  Uiso   1.00
H424   H     0.69480   0.49497   0.05839   0.00000  Uiso   1.00
H425   H     0.68205   0.35841   0.28466   0.00000  Uiso   1.00
H426   H     0.97235   0.66081   0.25738   0.00000  Uiso   1.00
H427   H     0.71070   0.54755   0.27467   0.00000  Uiso   1.00
H428   H     0.67005   0.58609   0.26044   0.00000  Uiso   1.00
H429   H     0.72633   0.64638   0.25084   0.00000  Uiso   1.00
H430   H     0.71731   0.62558   0.31369   0.00000  Uiso   1.00
H431   H     0.77799   0.57553   0.30523   0.00000  Uiso   1.00
H432   H     0.79127   0.63389   0.29899   0.00000  Uiso   1.00
H433   H     0.78605   0.59997   0.24371   0.00000  Uiso   1.00
H434   H     0.71335   0.40089   0.02167   0.00000  Uiso   1.00
H435   H     0.66740   0.43173   0.01274   0.00000  Uiso   1.00
H436   H     0.74382   0.47944   0.30894   0.00000  Uiso   1.00
H437   H     0.69378   0.47129   0.27938   0.00000  Uiso   1.00
H438   H     0.73165   0.42806   0.27824   0.00000  Uiso   1.00
H439   H     0.93439   0.62901   0.13343   0.00000  Uiso   1.00
H440   H     0.93911   0.57664   0.10316   0.00000  Uiso   1.00
N441   N     0.83333   0.61907   0.16667   0.00000  Uiso   1.00
N442   N     0.83333   0.38093   0.16667   0.00000  Uiso   1.00
O443   O     0.77226   0.53821   0.16666   0.00000  Uiso   1.00
O444   O     0.96176   0.58193   0.17790   0.00000  Uiso   1.00
O445   O     0.96077   0.42158   0.14044   0.00000  Uiso   1.00
O446   O     0.71041   0.57488   0.20235   0.00000  Uiso   1.00
O447   O     0.89441   0.46179   0.16667   0.00000  Uiso   1.00
O448   O     0.89441   0.53821   0.16667   0.00000  Uiso   1.00
O449   O     0.77226   0.46179   0.16666   0.00000  Uiso   1.00
O450   O     0.83334   0.53821   0.09511   0.00000  Uiso   1.00
O451   O     0.83333   0.46179   0.23822   0.00000  Uiso   1.00
O452   O     0.83333   0.53821   0.23822   0.00000  Uiso   1.00
O453   O     0.83334   0.46179   0.09511   0.00000  Uiso   1.00
O454   O     0.70480   0.43876   0.10685   0.00000  Uiso   1.00
Zn455  Zn    0.83333   0.55104   0.16667   0.00000  Uiso   1.00
Zn456  Zn    0.83333   0.44896   0.16667   0.00000  Uiso   1.00
Br457  Br    0.20813   0.71810   0.26416   0.00000  Uiso   1.00
Br458  Br    0.10813   0.94412   0.08561   0.00000  Uiso   1.00
Br459  Br    0.11856   0.71826   0.07540   0.00000  Uiso   1.00
Br460  Br    0.22320   0.94568   0.25016   0.00000  Uiso   1.00
C461   C     0.08689   0.83342   0.16640   0.00000  Uiso   1.00
C462   C     0.02221   0.87168   0.18320   0.00000  Uiso   1.00
C463   C     0.29115   0.83438   0.16362   0.00000  Uiso   1.00
C464   C     0.04283   0.83464   0.16455   0.00000  Uiso   1.00
C465   C     0.18625   0.69021   0.20429   0.00000  Uiso   1.00
C466   C     0.14410   0.97570   0.13181   0.00000  Uiso   1.00
C467   C     0.14590   0.68981   0.13022   0.00000  Uiso   1.00
C468   C     0.18867   0.97624   0.20213   0.00000  Uiso   1.00
C469   C     0.04583   0.79674   0.06228   0.00000  Uiso   1.00
C470   C     0.03474   0.76826   0.01637   0.00000  Uiso   1.00
C471   C     0.05201   0.78816   0.30138   0.00000  Uiso   1.00
C472   C     0.24668   0.83362   0.16578   0.00000  Uiso   1.00
C473   C     0.28856   0.93371   0.12924   0.00000  Uiso   1.00
C474   C     0.32870   0.95016   0.10558   0.00000  Uiso   1.00
C475   C     0.32042   0.98302   0.06285   0.00000  Uiso   1.00
C476   C     0.28886   0.73226   0.18675   0.00000  Uiso   1.00
C477   C     0.32874   0.71499   0.21086   0.00000  Uiso   1.00
C478   C     0.31996   0.69430   0.26212   0.00000  Uiso   1.00
C479   C     0.03624   0.91201   0.25415   0.00000  Uiso   1.00
C480   C     0.06213   0.95039   0.27610   0.00000  Uiso   1.00
C481   C     0.10726   0.93897   0.28146   0.00000  Uiso   1.00
C482   C     0.16678   0.83339   0.07309   0.00000  Uiso   1.00
C483   C     0.16675   0.83328   0.26025   0.00000  Uiso   1.00
C484   C     0.16689   0.83341   0.02186   0.00000  Uiso   1.00
C485   C     0.16691   0.83324   0.31148   0.00000  Uiso   1.00
C486   C     0.02072   0.80007   0.14112   0.00000  Uiso   1.00
C487   C     0.31345   0.87418   0.17413   0.00000  Uiso   1.00
C488   C     0.31266   0.79589   0.14968   0.00000  Uiso   1.00
H489   H     0.07900   0.80592   0.06219   0.00000  Uiso   1.00
H490   H     0.01552   0.96647   0.13429   0.00000  Uiso   1.00
H491   H     0.01206   0.92127   0.09055   0.00000  Uiso   1.00
H492   H     0.30189   0.96676   0.03234   0.00000  Uiso   1.00
H493   H     0.01672   0.99476   0.04752   0.00000  Uiso   1.00
H494   H     0.30383   0.67908   0.07670   0.00000  Uiso   1.00
H495   H     0.26793   0.70340   0.17958   0.00000  Uiso   1.00
H496   H     0.27448   0.75398   0.21475   0.00000  Uiso   1.00
H497   H     0.00958   0.69025   0.18631   0.00000  Uiso   1.00
H498   H     0.01761   0.74277   0.21648   0.00000  Uiso   1.00
H499   H     0.29928   0.71542   0.28402   0.00000  Uiso   1.00
H500   H     0.02814   0.82830   0.05839   0.00000  Uiso   1.00
H501   H     0.01539   0.69174   0.28466   0.00000  Uiso   1.00
H502   H     0.30568   0.99414   0.25738   0.00000  Uiso   1.00
H503   H     0.04404   0.88089   0.27467   0.00000  Uiso   1.00
H504   H     0.00338   0.91943   0.26044   0.00000  Uiso   1.00
H505   H     0.05966   0.97972   0.25084   0.00000  Uiso   1.00
H506   H     0.05064   0.95892   0.31369   0.00000  Uiso   1.00
H507   H     0.11133   0.90887   0.30523   0.00000  Uiso   1.00
H508   H     0.12460   0.96722   0.29899   0.00000  Uiso   1.00
H509   H     0.11938   0.93330   0.24371   0.00000  Uiso   1.00
H510   H     0.04668   0.73422   0.02167   0.00000  Uiso   1.00
H511   H     0.00074   0.76507   0.01274   0.00000  Uiso   1.00
H512   H     0.07715   0.81278   0.30894   0.00000  Uiso   1.00
H513   H     0.02712   0.80462   0.27938   0.00000  Uiso   1.00
H514   H     0.06498   0.76139   0.27824   0.00000  Uiso   1.00
H515   H     0.26773   0.96234   0.13343   0.00000  Uiso   1.00
H516   H     0.27245   0.90998   0.10316   0.00000  Uiso   1.00
N517   N     0.16667   0.95240   0.16667   0.00000  Uiso   1.00
N518   N     0.16667   0.71427   0.16667   0.00000  Uiso   1.00
O519   O     0.10559   0.87154   0.16666   0.00000  Uiso   1.00
O520   O     0.29509   0.91526   0.17790   0.00000  Uiso   1.00
O521   O     0.29411   0.75491   0.14044   0.00000  Uiso   1.00
O522   O     0.04374   0.90821   0.20235   0.00000  Uiso   1.00
O523   O     0.22774   0.79513   0.16667   0.00000  Uiso   1.00
O524   O     0.22774   0.87154   0.16667   0.00000  Uiso   1.00
O525   O     0.10559   0.79513   0.16666   0.00000  Uiso   1.00
O526   O     0.16667   0.87155   0.09511   0.00000  Uiso   1.00
O527   O     0.16666   0.79512   0.23822   0.00000  Uiso   1.00
O528   O     0.16666   0.87155   0.23822   0.00000  Uiso   1.00
O529   O     0.16667   0.79512   0.09511   0.00000  Uiso   1.00
O530   O     0.03813   0.77209   0.10685   0.00000  Uiso   1.00
Zn531  Zn    0.16667   0.88437   0.16667   0.00000  Uiso   1.00
Zn532  Zn    0.16667   0.78229   0.16667   0.00000  Uiso   1.00
Br533  Br    0.54146   0.71810   0.26416   0.00000  Uiso   1.00
Br534  Br    0.44147   0.94412   0.08561   0.00000  Uiso   1.00
Br535  Br    0.45189   0.71826   0.07540   0.00000  Uiso   1.00
Br536  Br    0.55654   0.94568   0.25016   0.00000  Uiso   1.00
C537   C     0.42023   0.83342   0.16640   0.00000  Uiso   1.00
C538   C     0.35554   0.87168   0.18320   0.00000  Uiso   1.00
C539   C     0.62448   0.83438   0.16362   0.00000  Uiso   1.00
C540   C     0.37616   0.83464   0.16455   0.00000  Uiso   1.00
C541   C     0.51959   0.69021   0.20429   0.00000  Uiso   1.00
C542   C     0.47743   0.97570   0.13181   0.00000  Uiso   1.00
C543   C     0.47923   0.68981   0.13022   0.00000  Uiso   1.00
C544   C     0.52200   0.97624   0.20213   0.00000  Uiso   1.00
C545   C     0.37916   0.79674   0.06228   0.00000  Uiso   1.00
C546   C     0.36807   0.76826   0.01637   0.00000  Uiso   1.00
C547   C     0.38535   0.78816   0.30138   0.00000  Uiso   1.00
C548   C     0.58001   0.83362   0.16578   0.00000  Uiso   1.00
C549   C     0.62190   0.93371   0.12924   0.00000  Uiso   1.00
C550   C     0.66203   0.95016   0.10558   0.00000  Uiso   1.00
C551   C     0.65375   0.98302   0.06285   0.00000  Uiso   1.00
C552   C     0.62219   0.73226   0.18675   0.00000  Uiso   1.00
C553   C     0.66207   0.71499   0.21086   0.00000  Uiso   1.00
C554   C     0.65330   0.69430   0.26212   0.00000  Uiso   1.00
C555   C     0.36957   0.91201   0.25415   0.00000  Uiso   1.00
C556   C     0.39547   0.95039   0.27610   0.00000  Uiso   1.00
C557   C     0.44060   0.93897   0.28146   0.00000  Uiso   1.00
C558   C     0.50012   0.83339   0.07309   0.00000  Uiso   1.00
C559   C     0.50008   0.83328   0.26025   0.00000  Uiso   1.00
C560   C     0.50023   0.83341   0.02186   0.00000  Uiso   1.00
C561   C     0.50024   0.83324   0.31148   0.00000  Uiso   1.00
C562   C     0.35405   0.80007   0.14112   0.00000  Uiso   1.00
C563   C     0.64679   0.87418   0.17413   0.00000  Uiso   1.00
C564   C     0.64599   0.79589   0.14968   0.00000  Uiso   1.00
H565   H     0.41233   0.80592   0.06219   0.00000  Uiso   1.00
H566   H     0.34886   0.96647   0.13429   0.00000  Uiso   1.00
H567   H     0.34539   0.92127   0.09055   0.00000  Uiso   1.00
H568   H     0.63522   0.96676   0.03234   0.00000  Uiso   1.00
H569   H     0.35006   0.99476   0.04752   0.00000  Uiso   1.00
H570   H     0.63717   0.67908   0.07670   0.00000  Uiso   1.00
H571   H     0.60126   0.70340   0.17958   0.00000  Uiso   1.00
H572   H     0.60782   0.75398   0.21475   0.00000  Uiso   1.00
H573   H     0.34292   0.69025   0.18631   0.00000  Uiso   1.00
H574   H     0.35095   0.74277   0.21648   0.00000  Uiso   1.00
H575   H     0.63261   0.71542   0.28402   0.00000  Uiso   1.00
H576   H     0.36147   0.82830   0.05839   0.00000  Uiso   1.00
H577   H     0.34872   0.69174   0.28466   0.00000  Uiso   1.00
H578   H     0.63901   0.99414   0.25738   0.00000  Uiso   1.00
H579   H     0.37737   0.88089   0.27467   0.00000  Uiso   1.00
H580   H     0.33671   0.91943   0.26044   0.00000  Uiso   1.00
H581   H     0.39300   0.97972   0.25084   0.00000  Uiso   1.00
H582   H     0.38397   0.95892   0.31369   0.00000  Uiso   1.00
H583   H     0.44466   0.90887   0.30523   0.00000  Uiso   1.00
H584   H     0.45793   0.96722   0.29899   0.00000  Uiso   1.00
H585   H     0.45271   0.93330   0.24371   0.00000  Uiso   1.00
H586   H     0.38002   0.73422   0.02167   0.00000  Uiso   1.00
H587   H     0.33407   0.76507   0.01274   0.00000  Uiso   1.00
H588   H     0.41049   0.81278   0.30894   0.00000  Uiso   1.00
H589   H     0.36045   0.80462   0.27938   0.00000  Uiso   1.00
H590   H     0.39832   0.76139   0.27824   0.00000  Uiso   1.00
H591   H     0.60106   0.96234   0.13343   0.00000  Uiso   1.00
H592   H     0.60578   0.90998   0.10316   0.00000  Uiso   1.00
N593   N     0.50000   0.95240   0.16667   0.00000  Uiso   1.00
N594   N     0.50000   0.71427   0.16667   0.00000  Uiso   1.00
O595   O     0.43892   0.87154   0.16666   0.00000  Uiso   1.00
O596   O     0.62842   0.91526   0.17790   0.00000  Uiso   1.00
O597   O     0.62744   0.75491   0.14044   0.00000  Uiso   1.00
O598   O     0.37707   0.90821   0.20235   0.00000  Uiso   1.00
O599   O     0.56108   0.79513   0.16667   0.00000  Uiso   1.00
O600   O     0.56108   0.87154   0.16667   0.00000  Uiso   1.00
O601   O     0.43892   0.79513   0.16666   0.00000  Uiso   1.00
O602   O     0.50000   0.87155   0.09511   0.00000  Uiso   1.00
O603   O     0.50000   0.79512   0.23822   0.00000  Uiso   1.00
O604   O     0.50000   0.87155   0.23822   0.00000  Uiso   1.00
O605   O     0.50000   0.79512   0.09511   0.00000  Uiso   1.00
O606   O     0.37147   0.77209   0.10685   0.00000  Uiso   1.00
Zn607  Zn    0.50000   0.88437   0.16667   0.00000  Uiso   1.00
Zn608  Zn    0.50000   0.78229   0.16667   0.00000  Uiso   1.00
Br609  Br    0.87480   0.71810   0.26416   0.00000  Uiso   1.00
Br610  Br    0.77480   0.94412   0.08561   0.00000  Uiso   1.00
Br611  Br    0.78522   0.71826   0.07540   0.00000  Uiso   1.00
Br612  Br    0.88987   0.94568   0.25016   0.00000  Uiso   1.00
C613   C     0.75356   0.83342   0.16640   0.00000  Uiso   1.00
C614   C     0.68887   0.87168   0.18320   0.00000  Uiso   1.00
C615   C     0.95782   0.83438   0.16362   0.00000  Uiso   1.00
C616   C     0.70950   0.83464   0.16455   0.00000  Uiso   1.00
C617   C     0.85292   0.69021   0.20429   0.00000  Uiso   1.00
C618   C     0.81076   0.97570   0.13181   0.00000  Uiso   1.00
C619   C     0.81256   0.68981   0.13022   0.00000  Uiso   1.00
C620   C     0.85534   0.97624   0.20213   0.00000  Uiso   1.00
C621   C     0.71249   0.79674   0.06228   0.00000  Uiso   1.00
C622   C     0.70141   0.76826   0.01637   0.00000  Uiso   1.00
C623   C     0.71868   0.78816   0.30138   0.00000  Uiso   1.00
C624   C     0.91334   0.83362   0.16578   0.00000  Uiso   1.00
C625   C     0.95523   0.93371   0.12924   0.00000  Uiso   1.00
C626   C     0.99537   0.95016   0.10558   0.00000  Uiso   1.00
C627   C     0.98708   0.98302   0.06285   0.00000  Uiso   1.00
C628   C     0.95552   0.73226   0.18675   0.00000  Uiso   1.00
C629   C     0.99540   0.71499   0.21086   0.00000  Uiso   1.00
C630   C     0.98663   0.69430   0.26212   0.00000  Uiso   1.00
C631   C     0.70290   0.91201   0.25415   0.00000  Uiso   1.00
C632   C     0.72880   0.95039   0.27610   0.00000  Uiso   1.00
C633   C     0.77393   0.93897   0.28146   0.00000  Uiso   1.00
C634   C     0.83345   0.83339   0.07309   0.00000  Uiso   1.00
C635   C     0.83341   0.83328   0.26025   0.00000  Uiso   1.00
C636   C     0.83356   0.83341   0.02186   0.00000  Uiso   1.00
C637   C     0.83357   0.83324   0.31148   0.00000  Uiso   1.00
C638   C     0.68739   0.80007   0.14112   0.00000  Uiso   1.00
C639   C     0.98012   0.87418   0.17413   0.00000  Uiso   1.00
C640   C     0.97932   0.79589   0.14968   0.00000  Uiso   1.00
H641   H     0.74567   0.80592   0.06219   0.00000  Uiso   1.00
H642   H     0.68219   0.96647   0.13429   0.00000  Uiso   1.00
H643   H     0.67872   0.92127   0.09055   0.00000  Uiso   1.00
H644   H     0.96856   0.96676   0.03234   0.00000  Uiso   1.00
H645   H     0.68339   0.99476   0.04752   0.00000  Uiso   1.00
H646   H     0.97050   0.67908   0.07670   0.00000  Uiso   1.00
H647   H     0.93460   0.70340   0.17958   0.00000  Uiso   1.00
H648   H     0.94115   0.75398   0.21475   0.00000  Uiso   1.00
H649   H     0.67625   0.69025   0.18631   0.00000  Uiso   1.00
H650   H     0.68428   0.74277   0.21648   0.00000  Uiso   1.00
H651   H     0.96594   0.71542   0.28402   0.00000  Uiso   1.00
H652   H     0.69480   0.82830   0.05839   0.00000  Uiso   1.00
H653   H     0.68205   0.69174   0.28466   0.00000  Uiso   1.00
H654   H     0.97235   0.99414   0.25738   0.00000  Uiso   1.00
H655   H     0.71070   0.88089   0.27467   0.00000  Uiso   1.00
H656   H     0.67005   0.91943   0.26044   0.00000  Uiso   1.00
H657   H     0.72633   0.97972   0.25084   0.00000  Uiso   1.00
H658   H     0.71731   0.95892   0.31369   0.00000  Uiso   1.00
H659   H     0.77799   0.90887   0.30523   0.00000  Uiso   1.00
H660   H     0.79127   0.96722   0.29899   0.00000  Uiso   1.00
H661   H     0.78605   0.93330   0.24371   0.00000  Uiso   1.00
H662   H     0.71335   0.73422   0.02167   0.00000  Uiso   1.00
H663   H     0.66740   0.76507   0.01274   0.00000  Uiso   1.00
H664   H     0.74382   0.81278   0.30894   0.00000  Uiso   1.00
H665   H     0.69378   0.80462   0.27938   0.00000  Uiso   1.00
H666   H     0.73165   0.76139   0.27824   0.00000  Uiso   1.00
H667   H     0.93439   0.96234   0.13343   0.00000  Uiso   1.00
H668   H     0.93911   0.90998   0.10316   0.00000  Uiso   1.00
N669   N     0.83333   0.95240   0.16667   0.00000  Uiso   1.00
N670   N     0.83333   0.71427   0.16667   0.00000  Uiso   1.00
O671   O     0.77226   0.87154   0.16666   0.00000  Uiso   1.00
O672   O     0.96176   0.91526   0.17790   0.00000  Uiso   1.00
O673   O     0.96077   0.75491   0.14044   0.00000  Uiso   1.00
O674   O     0.71041   0.90821   0.20235   0.00000  Uiso   1.00
O675   O     0.89441   0.79513   0.16667   0.00000  Uiso   1.00
O676   O     0.89441   0.87154   0.16667   0.00000  Uiso   1.00
O677   O     0.77226   0.79513   0.16666   0.00000  Uiso   1.00
O678   O     0.83334   0.87155   0.09511   0.00000  Uiso   1.00
O679   O     0.83333   0.79512   0.23822   0.00000  Uiso   1.00
O680   O     0.83333   0.87155   0.23822   0.00000  Uiso   1.00
O681   O     0.83334   0.79512   0.09511   0.00000  Uiso   1.00
O682   O     0.70480   0.77209   0.10685   0.00000  Uiso   1.00
Zn683  Zn    0.83333   0.88437   0.16667   0.00000  Uiso   1.00
Zn684  Zn    0.83333   0.78229   0.16667   0.00000  Uiso   1.00
Br685  Br    0.20813   0.05143   0.59749   0.00000  Uiso   1.00
Br686  Br    0.10813   0.27745   0.41894   0.00000  Uiso   1.00
Br687  Br    0.11856   0.05160   0.40873   0.00000  Uiso   1.00
Br688  Br    0.22320   0.27901   0.58349   0.00000  Uiso   1.00
C689   C     0.08689   0.16675   0.49974   0.00000  Uiso   1.00
C690   C     0.02221   0.20501   0.51653   0.00000  Uiso   1.00
C691   C     0.29115   0.16771   0.49696   0.00000  Uiso   1.00
C692   C     0.04283   0.16797   0.49788   0.00000  Uiso   1.00
C693   C     0.18625   0.02355   0.53763   0.00000  Uiso   1.00
C694   C     0.14410   0.30904   0.46515   0.00000  Uiso   1.00
C695   C     0.14590   0.02314   0.46356   0.00000  Uiso   1.00
C696   C     0.18867   0.30958   0.53546   0.00000  Uiso   1.00
C697   C     0.04583   0.13007   0.39561   0.00000  Uiso   1.00
C698   C     0.03474   0.10160   0.34970   0.00000  Uiso   1.00
C699   C     0.05201   0.12149   0.63471   0.00000  Uiso   1.00
C700   C     0.24668   0.16696   0.49911   0.00000  Uiso   1.00
C701   C     0.28856   0.26704   0.46257   0.00000  Uiso   1.00
C702   C     0.32870   0.28349   0.43892   0.00000  Uiso   1.00
C703   C     0.32042   0.31636   0.39618   0.00000  Uiso   1.00
C704   C     0.28886   0.06559   0.52008   0.00000  Uiso   1.00
C705   C     0.32874   0.04832   0.54419   0.00000  Uiso   1.00
C706   C     0.31996   0.02764   0.59545   0.00000  Uiso   1.00
C707   C     0.03624   0.24535   0.58748   0.00000  Uiso   1.00
C708   C     0.06213   0.28373   0.60943   0.00000  Uiso   1.00
C709   C     0.10726   0.27230   0.61479   0.00000  Uiso   1.00
C710   C     0.16678   0.16673   0.40642   0.00000  Uiso   1.00
C711   C     0.16675   0.16661   0.59358   0.00000  Uiso   1.00
C712   C     0.16689   0.16674   0.35519   0.00000  Uiso   1.00
C713   C     0.16691   0.16657   0.64482   0.00000  Uiso   1.00
C714   C     0.02072   0.13340   0.47445   0.00000  Uiso   1.00
C715   C     0.31345   0.20751   0.50746   0.00000  Uiso   1.00
C716   C     0.31266   0.12922   0.48301   0.00000  Uiso   1.00
H717   H     0.07900   0.13926   0.39553   0.00000  Uiso   1.00
H718   H     0.01552   0.29980   0.46762   0.00000  Uiso   1.00
H719   H     0.01206   0.25461   0.42388   0.00000  Uiso   1.00
H720   H     0.30189   0.30009   0.36567   0.00000  Uiso   1.00
H721   H     0.01672   0.32810   0.38086   0.00000  Uiso   1.00
H722   H     0.30383   0.01241   0.41004   0.00000  Uiso   1.00
H723   H     0.26793   0.03673   0.51291   0.00000  Uiso   1.00
H724   H     0.27448   0.08731   0.54809   0.00000  Uiso   1.00
H725   H     0.00958   0.02359   0.51965   0.00000  Uiso   1.00
H726   H     0.01761   0.07610   0.54982   0.00000  Uiso   1.00
H727   H     0.29928   0.04875   0.61736   0.00000  Uiso   1.00
H728   H     0.02814   0.16164   0.39173   0.00000  Uiso   1.00
H729   H     0.01539   0.02508   0.61800   0.00000  Uiso   1.00
H730   H     0.30568   0.32747   0.59071   0.00000  Uiso   1.00
H731   H     0.04404   0.21422   0.60800   0.00000  Uiso   1.00
H732   H     0.00338   0.25276   0.59378   0.00000  Uiso   1.00
H733   H     0.05966   0.31305   0.58417   0.00000  Uiso   1.00
H734   H     0.05064   0.29225   0.64702   0.00000  Uiso   1.00
H735   H     0.11133   0.24220   0.63856   0.00000  Uiso   1.00
H736   H     0.12460   0.30056   0.63233   0.00000  Uiso   1.00
H737   H     0.11938   0.26664   0.57704   0.00000  Uiso   1.00
H738   H     0.04668   0.06755   0.35500   0.00000  Uiso   1.00
H739   H     0.00074   0.09840   0.34608   0.00000  Uiso   1.00
H740   H     0.07715   0.14611   0.64228   0.00000  Uiso   1.00
H741   H     0.02712   0.13795   0.61271   0.00000  Uiso   1.00
H742   H     0.06498   0.09472   0.61158   0.00000  Uiso   1.00
H743   H     0.26773   0.29568   0.46676   0.00000  Uiso   1.00
H744   H     0.27245   0.24331   0.43649   0.00000  Uiso   1.00
N745   N     0.16667   0.28573   0.50000   0.00000  Uiso   1.00
N746   N     0.16667   0.04760   0.50000   0.00000  Uiso   1.00
O747   O     0.10559   0.20487   0.50000   0.00000  Uiso   1.00
O748   O     0.29509   0.24860   0.51124   0.00000  Uiso   1.00
O749   O     0.29411   0.08825   0.47377   0.00000  Uiso   1.00
O750   O     0.04374   0.24154   0.53569   0.00000  Uiso   1.00
O751   O     0.22774   0.12846   0.50000   0.00000  Uiso   1.00
O752   O     0.22774   0.20487   0.50000   0.00000  Uiso   1.00
O753   O     0.10559   0.12846   0.50000   0.00000  Uiso   1.00
O754   O     0.16667   0.20488   0.42845   0.00000  Uiso   1.00
O755   O     0.16666   0.12845   0.57155   0.00000  Uiso   1.00
O756   O     0.16666   0.20488   0.57155   0.00000  Uiso   1.00
O757   O     0.16667   0.12845   0.42845   0.00000  Uiso   1.00
O758   O     0.03813   0.10543   0.44018   0.00000  Uiso   1.00
Zn759  Zn    0.16667   0.21771   0.50000   0.00000  Uiso   1.00
Zn760  Zn    0.16667   0.11563   0.50000   0.00000  Uiso   1.00
Br761  Br    0.54146   0.05143   0.59749   0.00000  Uiso   1.00
Br762  Br    0.44147   0.27745   0.41894   0.00000  Uiso   1.00
Br763  Br    0.45189   0.05160   0.40873   0.00000  Uiso   1.00
Br764  Br    0.55654   0.27901   0.58349   0.00000  Uiso   1.00
C765   C     0.42023   0.16675   0.49974   0.00000  Uiso   1.00
C766   C     0.35554   0.20501   0.51653   0.00000  Uiso   1.00
C767   C     0.62448   0.16771   0.49696   0.00000  Uiso   1.00
C768   C     0.37616   0.16797   0.49788   0.00000  Uiso   1.00
C769   C     0.51959   0.02355   0.53763   0.00000  Uiso   1.00
C770   C     0.47743   0.30904   0.46515   0.00000  Uiso   1.00
C771   C     0.47923   0.02314   0.46356   0.00000  Uiso   1.00
C772   C     0.52200   0.30958   0.53546   0.00000  Uiso   1.00
C773   C     0.37916   0.13007   0.39561   0.00000  Uiso   1.00
C774   C     0.36807   0.10160   0.34970   0.00000  Uiso   1.00
C775   C     0.38535   0.12149   0.63471   0.00000  Uiso   1.00
C776   C     0.58001   0.16696   0.49911   0.00000  Uiso   1.00
C777   C     0.62190   0.26704   0.46257   0.00000  Uiso   1.00
C778   C     0.66203   0.28349   0.43892   0.00000  Uiso   1.00
C779   C     0.65375   0.31636   0.39618   0.00000  Uiso   1.00
C780   C     0.62219   0.06559   0.52008   0.00000  Uiso   1.00
C781   C     0.66207   0.04832   0.54419   0.00000  Uiso   1.00
C782   C     0.65330   0.02764   0.59545   0.00000  Uiso   1.00
C783   C     0.36957   0.24535   0.58748   0.00000  Uiso   1.00
C784   C     0.39547   0.28373   0.60943   0.00000  Uiso   1.00
C785   C     0.44060   0.27230   0.61479   0.00000  Uiso   1.00
C786   C     0.50012   0.16673   0.40642   0.00000  Uiso   1.00
C787   C     0.50008   0.16661   0.59358   0.00000  Uiso   1.00
C788   C     0.50023   0.16674   0.35519   0.00000  Uiso   1.00
C789   C     0.50024   0.16657   0.64482   0.00000  Uiso   1.00
C790   C     0.35405   0.13340   0.47445   0.00000  Uiso   1.00
C791   C     0.64679   0.20751   0.50746   0.00000  Uiso   1.00
C792   C     0.64599   0.12922   0.48301   0.00000  Uiso   1.00
H793   H     0.41233   0.13926   0.39553   0.00000  Uiso   1.00
H794   H     0.34886   0.29980   0.46762   0.00000  Uiso   1.00
H795   H     0.34539   0.25461   0.42388   0.00000  Uiso   1.00
H796   H     0.63522   0.30009   0.36567   0.00000  Uiso   1.00
H797   H     0.35006   0.32810   0.38086   0.00000  Uiso   1.00
H798   H     0.63717   0.01241   0.41004   0.00000  Uiso   1.00
H799   H     0.60126   0.03673   0.51291   0.00000  Uiso   1.00
H800   H     0.60782   0.08731   0.54809   0.00000  Uiso   1.00
H801   H     0.34292   0.02359   0.51965   0.00000  Uiso   1.00
H802   H     0.35095   0.07610   0.54982   0.00000  Uiso   1.00
H803   H     0.63261   0.04875   0.61736   0.00000  Uiso   1.00
H804   H     0.36147   0.16164   0.39173   0.00000  Uiso   1.00
H805   H     0.34872   0.02508   0.61800   0.00000  Uiso   1.00
H806   H     0.63901   0.32747   0.59071   0.00000  Uiso   1.00
H807   H     0.37737   0.21422   0.60800   0.00000  Uiso   1.00
H808   H     0.33671   0.25276   0.59378   0.00000  Uiso   1.00
H809   H     0.39300   0.31305   0.58417   0.00000  Uiso   1.00
H810   H     0.38397   0.29225   0.64702   0.00000  Uiso   1.00
H811   H     0.44466   0.24220   0.63856   0.00000  Uiso   1.00
H812   H     0.45793   0.30056   0.63233   0.00000  Uiso   1.00
H813   H     0.45271   0.26664   0.57704   0.00000  Uiso   1.00
H814   H     0.38002   0.06755   0.35500   0.00000  Uiso   1.00
H815   H     0.33407   0.09840   0.34608   0.00000  Uiso   1.00
H816   H     0.41049   0.14611   0.64228   0.00000  Uiso   1.00
H817   H     0.36045   0.13795   0.61271   0.00000  Uiso   1.00
H818   H     0.39832   0.09472   0.61158   0.00000  Uiso   1.00
H819   H     0.60106   0.29568   0.46676   0.00000  Uiso   1.00
H820   H     0.60578   0.24331   0.43649   0.00000  Uiso   1.00
N821   N     0.50000   0.28573   0.50000   0.00000  Uiso   1.00
N822   N     0.50000   0.04760   0.50000   0.00000  Uiso   1.00
O823   O     0.43892   0.20487   0.50000   0.00000  Uiso   1.00
O824   O     0.62842   0.24860   0.51124   0.00000  Uiso   1.00
O825   O     0.62744   0.08825   0.47377   0.00000  Uiso   1.00
O826   O     0.37707   0.24154   0.53569   0.00000  Uiso   1.00
O827   O     0.56108   0.12846   0.50000   0.00000  Uiso   1.00
O828   O     0.56108   0.20487   0.50000   0.00000  Uiso   1.00
O829   O     0.43892   0.12846   0.50000   0.00000  Uiso   1.00
O830   O     0.50000   0.20488   0.42845   0.00000  Uiso   1.00
O831   O     0.50000   0.12845   0.57155   0.00000  Uiso   1.00
O832   O     0.50000   0.20488   0.57155   0.00000  Uiso   1.00
O833   O     0.50000   0.12845   0.42845   0.00000  Uiso   1.00
O834   O     0.37147   0.10543   0.44018   0.00000  Uiso   1.00
Zn835  Zn    0.50000   0.21771   0.50000   0.00000  Uiso   1.00
Zn836  Zn    0.50000   0.11563   0.50000   0.00000  Uiso   1.00
Br837  Br    0.87480   0.05143   0.59749   0.00000  Uiso   1.00
Br838  Br    0.77480   0.27745   0.41894   0.00000  Uiso   1.00
Br839  Br    0.78522   0.05160   0.40873   0.00000  Uiso   1.00
Br840  Br    0.88987   0.27901   0.58349   0.00000  Uiso   1.00
C841   C     0.75356   0.16675   0.49974   0.00000  Uiso   1.00
C842   C     0.68887   0.20501   0.51653   0.00000  Uiso   1.00
C843   C     0.95782   0.16771   0.49696   0.00000  Uiso   1.00
C844   C     0.70950   0.16797   0.49788   0.00000  Uiso   1.00
C845   C     0.85292   0.02355   0.53763   0.00000  Uiso   1.00
C846   C     0.81076   0.30904   0.46515   0.00000  Uiso   1.00
C847   C     0.81256   0.02314   0.46356   0.00000  Uiso   1.00
C848   C     0.85534   0.30958   0.53546   0.00000  Uiso   1.00
C849   C     0.71249   0.13007   0.39561   0.00000  Uiso   1.00
C850   C     0.70141   0.10160   0.34970   0.00000  Uiso   1.00
C851   C     0.71868   0.12149   0.63471   0.00000  Uiso   1.00
C852   C     0.91334   0.16696   0.49911   0.00000  Uiso   1.00
C853   C     0.95523   0.26704   0.46257   0.00000  Uiso   1.00
C854   C     0.99537   0.28349   0.43892   0.00000  Uiso   1.00
C855   C     0.98708   0.31636   0.39618   0.00000  Uiso   1.00
C856   C     0.95552   0.06559   0.52008   0.00000  Uiso   1.00
C857   C     0.99540   0.04832   0.54419   0.00000  Uiso   1.00
C858   C     0.98663   0.02764   0.59545   0.00000  Uiso   1.00
C859   C     0.70290   0.24535   0.58748   0.00000  Uiso   1.00
C860   C     0.72880   0.28373   0.60943   0.00000  Uiso   1.00
C861   C     0.77393   0.27230   0.61479   0.00000  Uiso   1.00
C862   C     0.83345   0.16673   0.40642   0.00000  Uiso   1.00
C863   C     0.83341   0.16661   0.59358   0.00000  Uiso   1.00
C864   C     0.83356   0.16674   0.35519   0.00000  Uiso   1.00
C865   C     0.83357   0.16657   0.64482   0.00000  Uiso   1.00
C866   C     0.68739   0.13340   0.47445   0.00000  Uiso   1.00
C867   C     0.98012   0.20751   0.50746   0.00000  Uiso   1.00
C868   C     0.97932   0.12922   0.48301   0.00000  Uiso   1.00
H869   H     0.74567   0.13926   0.39553   0.00000  Uiso   1.00
H870   H     0.68219   0.29980   0.46762   0.00000  Uiso   1.00
H871   H     0.67872   0.25461   0.42388   0.00000  Uiso   1.00
H872   H     0.96856   0.30009   0.36567   0.00000  Uiso   1.00
H873   H     0.68339   0.32810   0.38086   0.00000  Uiso   1.00
H874   H     0.97050   0.01241   0.41004   0.00000  Uiso   1.00
H875   H     0.93460   0.03673   0.51291   0.00000  Uiso   1.00
H876   H     0.94115   0.08731   0.54809   0.00000  Uiso   1.00
H877   H     0.67625   0.02359   0.51965   0.00000  Uiso   1.00
H878   H     0.68428   0.07610   0.54982   0.00000  Uiso   1.00
H879   H     0.96594   0.04875   0.61736   0.00000  Uiso   1.00
H880   H     0.69480   0.16164   0.39173   0.00000  Uiso   1.00
H881   H     0.68205   0.02508   0.61800   0.00000  Uiso   1.00
H882   H     0.97235   0.32747   0.59071   0.00000  Uiso   1.00
H883   H     0.71070   0.21422   0.60800   0.00000  Uiso   1.00
H884   H     0.67005   0.25276   0.59378   0.00000  Uiso   1.00
H885   H     0.72633   0.31305   0.58417   0.00000  Uiso   1.00
H886   H     0.71731   0.29225   0.64702   0.00000  Uiso   1.00
H887   H     0.77799   0.24220   0.63856   0.00000  Uiso   1.00
H888   H     0.79127   0.30056   0.63233   0.00000  Uiso   1.00
H889   H     0.78605   0.26664   0.57704   0.00000  Uiso   1.00
H890   H     0.71335   0.06755   0.35500   0.00000  Uiso   1.00
H891   H     0.66740   0.09840   0.34608   0.00000  Uiso   1.00
H892   H     0.74382   0.14611   0.64228   0.00000  Uiso   1.00
H893   H     0.69378   0.13795   0.61271   0.00000  Uiso   1.00
H894   H     0.73165   0.09472   0.61158   0.00000  Uiso   1.00
H895   H     0.93439   0.29568   0.46676   0.00000  Uiso   1.00
H896   H     0.93911   0.24331   0.43649   0.00000  Uiso   1.00
N897   N     0.83333   0.28573   0.50000   0.00000  Uiso   1.00
N898   N     0.83333   0.04760   0.50000   0.00000  Uiso   1.00
O899   O     0.77226   0.20487   0.50000   0.00000  Uiso   1.00
O900   O     0.96176   0.24860   0.51124   0.00000  Uiso   1.00
O901   O     0.96077   0.08825   0.47377   0.00000  Uiso   1.00
O902   O     0.71041   0.24154   0.53569   0.00000  Uiso   1.00
O903   O     0.89441   0.12846   0.50000   0.00000  Uiso   1.00
O904   O     0.89441   0.20487   0.50000   0.00000  Uiso   1.00
O905   O     0.77226   0.12846   0.50000   0.00000  Uiso   1.00
O906   O     0.83334   0.20488   0.42845   0.00000  Uiso   1.00
O907   O     0.83333   0.12845   0.57155   0.00000  Uiso   1.00
O908   O     0.83333   0.20488   0.57155   0.00000  Uiso   1.00
O909   O     0.83334   0.12845   0.42845   0.00000  Uiso   1.00
O910   O     0.70480   0.10543   0.44018   0.00000  Uiso   1.00
Zn911  Zn    0.83333   0.21771   0.50000   0.00000  Uiso   1.00
Zn912  Zn    0.83333   0.11563   0.50000   0.00000  Uiso   1.00
Br913  Br    0.20813   0.38477   0.59749   0.00000  Uiso   1.00
Br914  Br    0.10813   0.61078   0.41894   0.00000  Uiso   1.00
Br915  Br    0.11856   0.38493   0.40873   0.00000  Uiso   1.00
Br916  Br    0.22320   0.61234   0.58349   0.00000  Uiso   1.00
C917   C     0.08689   0.50009   0.49974   0.00000  Uiso   1.00
C918   C     0.02221   0.53835   0.51653   0.00000  Uiso   1.00
C919   C     0.29115   0.50105   0.49696   0.00000  Uiso   1.00
C920   C     0.04283   0.50131   0.49788   0.00000  Uiso   1.00
C921   C     0.18625   0.35688   0.53763   0.00000  Uiso   1.00
C922   C     0.14410   0.64237   0.46515   0.00000  Uiso   1.00
C923   C     0.14590   0.35647   0.46356   0.00000  Uiso   1.00
C924   C     0.18867   0.64291   0.53546   0.00000  Uiso   1.00
C925   C     0.04583   0.46341   0.39561   0.00000  Uiso   1.00
C926   C     0.03474   0.43493   0.34970   0.00000  Uiso   1.00
C927   C     0.05201   0.45482   0.63471   0.00000  Uiso   1.00
C928   C     0.24668   0.50029   0.49911   0.00000  Uiso   1.00
C929   C     0.28856   0.60038   0.46257   0.00000  Uiso   1.00
C930   C     0.32870   0.61682   0.43892   0.00000  Uiso   1.00
C931   C     0.32042   0.64969   0.39618   0.00000  Uiso   1.00
C932   C     0.28886   0.39892   0.52008   0.00000  Uiso   1.00
C933   C     0.32874   0.38166   0.54419   0.00000  Uiso   1.00
C934   C     0.31996   0.36097   0.59545   0.00000  Uiso   1.00
C935   C     0.03624   0.57868   0.58748   0.00000  Uiso   1.00
C936   C     0.06213   0.61706   0.60943   0.00000  Uiso   1.00
C937   C     0.10726   0.60563   0.61479   0.00000  Uiso   1.00
C938   C     0.16678   0.50006   0.40642   0.00000  Uiso   1.00
C939   C     0.16675   0.49995   0.59358   0.00000  Uiso   1.00
C940   C     0.16689   0.50008   0.35519   0.00000  Uiso   1.00
C941   C     0.16691   0.49990   0.64482   0.00000  Uiso   1.00
C942   C     0.02072   0.46673   0.47445   0.00000  Uiso   1.00
C943   C     0.31345   0.54084   0.50746   0.00000  Uiso   1.00
C944   C     0.31266   0.46255   0.48301   0.00000  Uiso   1.00
H945   H     0.07900   0.47259   0.39553   0.00000  Uiso   1.00
H946   H     0.01552   0.63313   0.46762   0.00000  Uiso   1.00
H947   H     0.01206   0.58794   0.42388   0.00000  Uiso   1.00
H948   H     0.30189   0.63343   0.36567   0.00000  Uiso   1.00
H949   H     0.01672   0.66143   0.38086   0.00000  Uiso   1.00
H950   H     0.30383   0.34574   0.41004   0.00000  Uiso   1.00
H951   H     0.26793   0.37007   0.51291   0.00000  Uiso   1.00
H952   H     0.27448   0.42064   0.54809   0.00000  Uiso   1.00
H953   H     0.00958   0.35692   0.51965   0.00000  Uiso   1.00
H954   H     0.01761   0.40944   0.54982   0.00000  Uiso   1.00
H955   H     0.29928   0.38209   0.61736   0.00000  Uiso   1.00
H956   H     0.02814   0.49497   0.39173   0.00000  Uiso   1.00
H957   H     0.01539   0.35841   0.61800   0.00000  Uiso   1.00
H958   H     0.30568   0.66081   0.59071   0.00000  Uiso   1.00
H959   H     0.04404   0.54755   0.60800   0.00000  Uiso   1.00
H960   H     0.00338   0.58609   0.59378   0.00000  Uiso   1.00
H961   H     0.05966   0.64638   0.58417   0.00000  Uiso   1.00
H962   H     0.05064   0.62558   0.64702   0.00000  Uiso   1.00
H963   H     0.11133   0.57553   0.63856   0.00000  Uiso   1.00
H964   H     0.12460   0.63389   0.63233   0.00000  Uiso   1.00
H965   H     0.11938   0.59997   0.57704   0.00000  Uiso   1.00
H966   H     0.04668   0.40089   0.35500   0.00000  Uiso   1.00
H967   H     0.00074   0.43173   0.34608   0.00000  Uiso   1.00
H968   H     0.07715   0.47944   0.64228   0.00000  Uiso   1.00
H969   H     0.02712   0.47129   0.61271   0.00000  Uiso   1.00
H970   H     0.06498   0.42806   0.61158   0.00000  Uiso   1.00
H971   H     0.26773   0.62901   0.46676   0.00000  Uiso   1.00
H972   H     0.27245   0.57664   0.43649   0.00000  Uiso   1.00
N973   N     0.16667   0.61907   0.50000   0.00000  Uiso   1.00
N974   N     0.16667   0.38093   0.50000   0.00000  Uiso   1.00
O975   O     0.10559   0.53821   0.50000   0.00000  Uiso   1.00
O976   O     0.29509   0.58193   0.51124   0.00000  Uiso   1.00
O977   O     0.29411   0.42158   0.47377   0.00000  Uiso   1.00
O978   O     0.04374   0.57488   0.53569   0.00000  Uiso   1.00
O979   O     0.22774   0.46179   0.50000   0.00000  Uiso   1.00
O980   O     0.22774   0.53821   0.50000   0.00000  Uiso   1.00
O981   O     0.10559   0.46179   0.50000   0.00000  Uiso   1.00
O982   O     0.16667   0.53821   0.42845   0.00000  Uiso   1.00
O983   O     0.16666   0.46179   0.57155   0.00000  Uiso   1.00
O984   O     0.16666   0.53821   0.57155   0.00000  Uiso   1.00
O985   O     0.16667   0.46179   0.42845   0.00000  Uiso   1.00
O986   O     0.03813   0.43876   0.44018   0.00000  Uiso   1.00
Zn987  Zn    0.16667   0.55104   0.50000   0.00000  Uiso   1.00
Zn988  Zn    0.16667   0.44896   0.50000   0.00000  Uiso   1.00
Br989  Br    0.54146   0.38477   0.59749   0.00000  Uiso   1.00
Br990  Br    0.44147   0.61078   0.41894   0.00000  Uiso   1.00
Br991  Br    0.45189   0.38493   0.40873   0.00000  Uiso   1.00
Br992  Br    0.55654   0.61234   0.58349   0.00000  Uiso   1.00
C993   C     0.42023   0.50009   0.49974   0.00000  Uiso   1.00
C994   C     0.35554   0.53835   0.51653   0.00000  Uiso   1.00
C995   C     0.62448   0.50105   0.49696   0.00000  Uiso   1.00
C996   C     0.37616   0.50131   0.49788   0.00000  Uiso   1.00
C997   C     0.51959   0.35688   0.53763   0.00000  Uiso   1.00
C998   C     0.47743   0.64237   0.46515   0.00000  Uiso   1.00
C999   C     0.47923   0.35647   0.46356   0.00000  Uiso   1.00
C1000  C     0.52200   0.64291   0.53546   0.00000  Uiso   1.00
C1001  C     0.37916   0.46341   0.39561   0.00000  Uiso   1.00
C1002  C     0.36807   0.43493   0.34970   0.00000  Uiso   1.00
C1003  C     0.38535   0.45482   0.63471   0.00000  Uiso   1.00
C1004  C     0.58001   0.50029   0.49911   0.00000  Uiso   1.00
C1005  C     0.62190   0.60038   0.46257   0.00000  Uiso   1.00
C1006  C     0.66203   0.61682   0.43892   0.00000  Uiso   1.00
C1007  C     0.65375   0.64969   0.39618   0.00000  Uiso   1.00
C1008  C     0.62219   0.39892   0.52008   0.00000  Uiso   1.00
C1009  C     0.66207   0.38166   0.54419   0.00000  Uiso   1.00
C1010  C     0.65330   0.36097   0.59545   0.00000  Uiso   1.00
C1011  C     0.36957   0.57868   0.58748   0.00000  Uiso   1.00
C1012  C     0.39547   0.61706   0.60943   0.00000  Uiso   1.00
C1013  C     0.44060   0.60563   0.61479   0.00000  Uiso   1.00
C1014  C     0.50012   0.50006   0.40642   0.00000  Uiso   1.00
C1015  C     0.50008   0.49995   0.59358   0.00000  Uiso   1.00
C1016  C     0.50023   0.50008   0.35519   0.00000  Uiso   1.00
C1017  C     0.50024   0.49990   0.64482   0.00000  Uiso   1.00
C1018  C     0.35405   0.46673   0.47445   0.00000  Uiso   1.00
C1019  C     0.64679   0.54084   0.50746   0.00000  Uiso   1.00
C1020  C     0.64599   0.46255   0.48301   0.00000  Uiso   1.00
H1021  H     0.41233   0.47259   0.39553   0.00000  Uiso   1.00
H1022  H     0.34886   0.63313   0.46762   0.00000  Uiso   1.00
H1023  H     0.34539   0.58794   0.42388   0.00000  Uiso   1.00
H1024  H     0.63522   0.63343   0.36567   0.00000  Uiso   1.00
H1025  H     0.35006   0.66143   0.38086   0.00000  Uiso   1.00
H1026  H     0.63717   0.34574   0.41004   0.00000  Uiso   1.00
H1027  H     0.60126   0.37007   0.51291   0.00000  Uiso   1.00
H1028  H     0.60782   0.42064   0.54809   0.00000  Uiso   1.00
H1029  H     0.34292   0.35692   0.51965   0.00000  Uiso   1.00
H1030  H     0.35095   0.40944   0.54982   0.00000  Uiso   1.00
H1031  H     0.63261   0.38209   0.61736   0.00000  Uiso   1.00
H1032  H     0.36147   0.49497   0.39173   0.00000  Uiso   1.00
H1033  H     0.34872   0.35841   0.61800   0.00000  Uiso   1.00
H1034  H     0.63901   0.66081   0.59071   0.00000  Uiso   1.00
H1035  H     0.37737   0.54755   0.60800   0.00000  Uiso   1.00
H1036  H     0.33671   0.58609   0.59378   0.00000  Uiso   1.00
H1037  H     0.39300   0.64638   0.58417   0.00000  Uiso   1.00
H1038  H     0.38397   0.62558   0.64702   0.00000  Uiso   1.00
H1039  H     0.44466   0.57553   0.63856   0.00000  Uiso   1.00
H1040  H     0.45793   0.63389   0.63233   0.00000  Uiso   1.00
H1041  H     0.45271   0.59997   0.57704   0.00000  Uiso   1.00
H1042  H     0.38002   0.40089   0.35500   0.00000  Uiso   1.00
H1043  H     0.33407   0.43173   0.34608   0.00000  Uiso   1.00
H1044  H     0.41049   0.47944   0.64228   0.00000  Uiso   1.00
H1045  H     0.36045   0.47129   0.61271   0.00000  Uiso   1.00
H1046  H     0.39832   0.42806   0.61158   0.00000  Uiso   1.00
H1047  H     0.60106   0.62901   0.46676   0.00000  Uiso   1.00
H1048  H     0.60578   0.57664   0.43649   0.00000  Uiso   1.00
N1049  N     0.50000   0.61907   0.50000   0.00000  Uiso   1.00
N1050  N     0.50000   0.38093   0.50000   0.00000  Uiso   1.00
O1051  O     0.43892   0.53821   0.50000   0.00000  Uiso   1.00
O1052  O     0.62842   0.58193   0.51124   0.00000  Uiso   1.00
O1053  O     0.62744   0.42158   0.47377   0.00000  Uiso   1.00
O1054  O     0.37707   0.57488   0.53569   0.00000  Uiso   1.00
O1055  O     0.56108   0.46179   0.50000   0.00000  Uiso   1.00
O1056  O     0.56108   0.53821   0.50000   0.00000  Uiso   1.00
O1057  O     0.43892   0.46179   0.50000   0.00000  Uiso   1.00
O1058  O     0.50000   0.53821   0.42845   0.00000  Uiso   1.00
O1059  O     0.50000   0.46179   0.57155   0.00000  Uiso   1.00
O1060  O     0.50000   0.53821   0.57155   0.00000  Uiso   1.00
O1061  O     0.50000   0.46179   0.42845   0.00000  Uiso   1.00
O1062  O     0.37147   0.43876   0.44018   0.00000  Uiso   1.00
Zn1063 Zn    0.50000   0.55104   0.50000   0.00000  Uiso   1.00
Zn1064 Zn    0.50000   0.44896   0.50000   0.00000  Uiso   1.00
Br1065 Br    0.87480   0.38477   0.59749   0.00000  Uiso   1.00
Br1066 Br    0.77480   0.61078   0.41894   0.00000  Uiso   1.00
Br1067 Br    0.78522   0.38493   0.40873   0.00000  Uiso   1.00
Br1068 Br    0.88987   0.61234   0.58349   0.00000  Uiso   1.00
C1069  C     0.75356   0.50009   0.49974   0.00000  Uiso   1.00
C1070  C     0.68887   0.53835   0.51653   0.00000  Uiso   1.00
C1071  C     0.95782   0.50105   0.49696   0.00000  Uiso   1.00
C1072  C     0.70950   0.50131   0.49788   0.00000  Uiso   1.00
C1073  C     0.85292   0.35688   0.53763   0.00000  Uiso   1.00
C1074  C     0.81076   0.64237   0.46515   0.00000  Uiso   1.00
C1075  C     0.81256   0.35647   0.46356   0.00000  Uiso   1.00
C1076  C     0.85534   0.64291   0.53546   0.00000  Uiso   1.00
C1077  C     0.71249   0.46341   0.39561   0.00000  Uiso   1.00
C1078  C     0.70141   0.43493   0.34970   0.00000  Uiso   1.00
C1079  C     0.71868   0.45482   0.63471   0.00000  Uiso   1.00
C1080  C     0.91334   0.50029   0.49911   0.00000  Uiso   1.00
C1081  C     0.95523   0.60038   0.46257   0.00000  Uiso   1.00
C1082  C     0.99537   0.61682   0.43892   0.00000  Uiso   1.00
C1083  C     0.98708   0.64969   0.39618   0.00000  Uiso   1.00
C1084  C     0.95552   0.39892   0.52008   0.00000  Uiso   1.00
C1085  C     0.99540   0.38166   0.54419   0.00000  Uiso   1.00
C1086  C     0.98663   0.36097   0.59545   0.00000  Uiso   1.00
C1087  C     0.70290   0.57868   0.58748   0.00000  Uiso   1.00
C1088  C     0.72880   0.61706   0.60943   0.00000  Uiso   1.00
C1089  C     0.77393   0.60563   0.61479   0.00000  Uiso   1.00
C1090  C     0.83345   0.50006   0.40642   0.00000  Uiso   1.00
C1091  C     0.83341   0.49995   0.59358   0.00000  Uiso   1.00
C1092  C     0.83356   0.50008   0.35519   0.00000  Uiso   1.00
C1093  C     0.83357   0.49990   0.64482   0.00000  Uiso   1.00
C1094  C     0.68739   0.46673   0.47445   0.00000  Uiso   1.00
C1095  C     0.98012   0.54084   0.50746   0.00000  Uiso   1.00
C1096  C     0.97932   0.46255   0.48301   0.00000  Uiso   1.00
H1097  H     0.74567   0.47259   0.39553   0.00000  Uiso   1.00
H1098  H     0.68219   0.63313   0.46762   0.00000  Uiso   1.00
H1099  H     0.67872   0.58794   0.42388   0.00000  Uiso   1.00
H1100  H     0.96856   0.63343   0.36567   0.00000  Uiso   1.00
H1101  H     0.68339   0.66143   0.38086   0.00000  Uiso   1.00
H1102  H     0.97050   0.34574   0.41004   0.00000  Uiso   1.00
H1103  H     0.93460   0.37007   0.51291   0.00000  Uiso   1.00
H1104  H     0.94115   0.42064   0.54809   0.00000  Uiso   1.00
H1105  H     0.67625   0.35692   0.51965   0.00000  Uiso   1.00
H1106  H     0.68428   0.40944   0.54982   0.00000  Uiso   1.00
H1107  H     0.96594   0.38209   0.61736   0.00000  Uiso   1.00
H1108  H     0.69480   0.49497   0.39173   0.00000  Uiso   1.00
H1109  H     0.68205   0.35841   0.61800   0.00000  Uiso   1.00
H1110  H     0.97235   0.66081   0.59071   0.00000  Uiso   1.00
H1111  H     0.71070   0.54755   0.60800   0.00000  Uiso   1.00
H1112  H     0.67005   0.58609   0.59378   0.00000  Uiso   1.00
H1113  H     0.72633   0.64638   0.58417   0.00000  Uiso   1.00
H1114  H     0.71731   0.62558   0.64702   0.00000  Uiso   1.00
H1115  H     0.77799   0.57553   0.63856   0.00000  Uiso   1.00
H1116  H     0.79127   0.63389   0.63233   0.00000  Uiso   1.00
H1117  H     0.78605   0.59997   0.57704   0.00000  Uiso   1.00
H1118  H     0.71335   0.40089   0.35500   0.00000  Uiso   1.00
H1119  H     0.66740   0.43173   0.34608   0.00000  Uiso   1.00
H1120  H     0.74382   0.47944   0.64228   0.00000  Uiso   1.00
H1121  H     0.69378   0.47129   0.61271   0.00000  Uiso   1.00
H1122  H     0.73165   0.42806   0.61158   0.00000  Uiso   1.00
H1123  H     0.93439   0.62901   0.46676   0.00000  Uiso   1.00
H1124  H     0.93911   0.57664   0.43649   0.00000  Uiso   1.00
N1125  N     0.83333   0.61907   0.50000   0.00000  Uiso   1.00
N1126  N     0.83333   0.38093   0.50000   0.00000  Uiso   1.00
O1127  O     0.77226   0.53821   0.50000   0.00000  Uiso   1.00
O1128  O     0.96176   0.58193   0.51124   0.00000  Uiso   1.00
O1129  O     0.96077   0.42158   0.47377   0.00000  Uiso   1.00
O1130  O     0.71041   0.57488   0.53569   0.00000  Uiso   1.00
O1131  O     0.89441   0.46179   0.50000   0.00000  Uiso   1.00
O1132  O     0.89441   0.53821   0.50000   0.00000  Uiso   1.00
O1133  O     0.77226   0.46179   0.50000   0.00000  Uiso   1.00
O1134  O     0.83334   0.53821   0.42845   0.00000  Uiso   1.00
O1135  O     0.83333   0.46179   0.57155   0.00000  Uiso   1.00
O1136  O     0.83333   0.53821   0.57155   0.00000  Uiso   1.00
O1137  O     0.83334   0.46179   0.42845   0.00000  Uiso   1.00
O1138  O     0.70480   0.43876   0.44018   0.00000  Uiso   1.00
Zn1139 Zn    0.83333   0.55104   0.50000   0.00000  Uiso   1.00
Zn1140 Zn    0.83333   0.44896   0.50000   0.00000  Uiso   1.00
Br1141 Br    0.20813   0.71810   0.59749   0.00000  Uiso   1.00
Br1142 Br    0.10813   0.94412   0.41894   0.00000  Uiso   1.00
Br1143 Br    0.11856   0.71826   0.40873   0.00000  Uiso   1.00
Br1144 Br    0.22320   0.94568   0.58349   0.00000  Uiso   1.00
C1145  C     0.08689   0.83342   0.49974   0.00000  Uiso   1.00
C1146  C     0.02221   0.87168   0.51653   0.00000  Uiso   1.00
C1147  C     0.29115   0.83438   0.49696   0.00000  Uiso   1.00
C1148  C     0.04283   0.83464   0.49788   0.00000  Uiso   1.00
C1149  C     0.18625   0.69021   0.53763   0.00000  Uiso   1.00
C1150  C     0.14410   0.97570   0.46515   0.00000  Uiso   1.00
C1151  C     0.14590   0.68981   0.46356   0.00000  Uiso   1.00
C1152  C     0.18867   0.97624   0.53546   0.00000  Uiso   1.00
C1153  C     0.04583   0.79674   0.39561   0.00000  Uiso   1.00
C1154  C     0.03474   0.76826   0.34970   0.00000  Uiso   1.00
C1155  C     0.05201   0.78816   0.63471   0.00000  Uiso   1.00
C1156  C     0.24668   0.83362   0.49911   0.00000  Uiso   1.00
C1157  C     0.28856   0.93371   0.46257   0.00000  Uiso   1.00
C1158  C     0.32870   0.95016   0.43892   0.00000  Uiso   1.00
C1159  C     0.32042   0.98302   0.39618   0.00000  Uiso   1.00
C1160  C     0.28886   0.73226   0.52008   0.00000  Uiso   1.00
C1161  C     0.32874   0.71499   0.54419   0.00000  Uiso   1.00
C1162  C     0.31996   0.69430   0.59545   0.00000  Uiso   1.00
C1163  C     0.03624   0.91201   0.58748   0.00000  Uiso   1.00
C1164  C     0.06213   0.95039   0.60943   0.00000  Uiso   1.00
C1165  C     0.10726   0.93897   0.61479   0.00000  Uiso   1.00
C1166  C     0.16678   0.83339   0.40642   0.00000  Uiso   1.00
C1167  C     0.16675   0.83328   0.59358   0.00000  Uiso   1.00
C1168  C     0.16689   0.83341   0.35519   0.00000  Uiso   1.00
C1169  C     0.16691   0.83324   0.64482   0.00000  Uiso   1.00
C1170  C     0.02072   0.80007   0.47445   0.00000  Uiso   1.00
C1171  C     0.31345   0.87418   0.50746   0.00000  Uiso   1.00
C1172  C     0.31266   0.79589   0.48301   0.00000  Uiso   1.00
H1173  H     0.07900   0.80592   0.39553   0.00000  Uiso   1.00
H1174  H     0.01552   0.96647   0.46762   0.00000  Uiso   1.00
H1175  H     0.01206   0.92127   0.42388   0.00000  Uiso   1.00
H1176  H     0.30189   0.96676   0.36567   0.00000  Uiso   1.00
H1177  H     0.01672   0.99476   0.38086   0.00000  Uiso   1.00
H1178  H     0.30383   0.67908   0.41004   0.00000  Uiso   1.00
H1179  H     0.26793   0.70340   0.51291   0.00000  Uiso   1.00
H1180  H     0.27448   0.75398   0.54809   0.00000  Uiso   1.00
H1181  H     0.00958   0.69025   0.51965   0.00000  Uiso   1.00
H1182  H     0.01761   0.74277   0.54982   0.00000  Uiso   1.00
H1183  H     0.29928   0.71542   0.61736   0.00000  Uiso   1.00
H1184  H     0.02814   0.82830   0.39173   0.00000  Uiso   1.00
H1185  H     0.01539   0.69174   0.61800   0.00000  Uiso   1.00
H1186  H     0.30568   0.99414   0.59071   0.00000  Uiso   1.00
H1187  H     0.04404   0.88089   0.60800   0.00000  Uiso   1.00
H1188  H     0.00338   0.91943   0.59378   0.00000  Uiso   1.00
H1189  H     0.05966   0.97972   0.58417   0.00000  Uiso   1.00
H1190  H     0.05064   0.95892   0.64702   0.00000  Uiso   1.00
H1191  H     0.11133   0.90887   0.63856   0.00000  Uiso   1.00
H1192  H     0.12460   0.96722   0.63233   0.00000  Uiso   1.00
H1193  H     0.11938   0.93330   0.57704   0.00000  Uiso   1.00
H1194  H     0.04668   0.73422   0.35500   0.00000  Uiso   1.00
H1195  H     0.00074   0.76507   0.34608   0.00000  Uiso   1.00
H1196  H     0.07715   0.81278   0.64228   0.00000  Uiso   1.00
H1197  H     0.02712   0.80462   0.61271   0.00000  Uiso   1.00
H1198  H     0.06498   0.76139   0.61158   0.00000  Uiso   1.00
H1199  H     0.26773   0.96234   0.46676   0.00000  Uiso   1.00
H1200  H     0.27245   0.90998   0.43649   0.00000  Uiso   1.00
N1201  N     0.16667   0.95240   0.50000   0.00000  Uiso   1.00
N1202  N     0.16667   0.71427   0.50000   0.00000  Uiso   1.00
O1203  O     0.10559   0.87154   0.50000   0.00000  Uiso   1.00
O1204  O     0.29509   0.91526   0.51124   0.00000  Uiso   1.00
O1205  O     0.29411   0.75491   0.47377   0.00000  Uiso   1.00
O1206  O     0.04374   0.90821   0.53569   0.00000  Uiso   1.00
O1207  O     0.22774   0.79513   0.50000   0.00000  Uiso   1.00
O1208  O     0.22774   0.87154   0.50000   0.00000  Uiso   1.00
O1209  O     0.10559   0.79513   0.50000   0.00000  Uiso   1.00
O1210  O     0.16667   0.87155   0.42845   0.00000  Uiso   1.00
O1211  O     0.16666   0.79512   0.57155   0.00000  Uiso   1.00
O1212  O     0.16666   0.87155   0.57155   0.00000  Uiso   1.00
O1213  O     0.16667   0.79512   0.42845   0.00000  Uiso   1.00
O1214  O     0.03813   0.77209   0.44018   0.00000  Uiso   1.00
Zn1215 Zn    0.16667   0.88437   0.50000   0.00000  Uiso   1.00
Zn1216 Zn    0.16667   0.78229   0.50000   0.00000  Uiso   1.00
Br1217 Br    0.54146   0.71810   0.59749   0.00000  Uiso   1.00
Br1218 Br    0.44147   0.94412   0.41894   0.00000  Uiso   1.00
Br1219 Br    0.45189   0.71826   0.40873   0.00000  Uiso   1.00
Br1220 Br    0.55654   0.94568   0.58349   0.00000  Uiso   1.00
C1221  C     0.42023   0.83342   0.49974   0.00000  Uiso   1.00
C1222  C     0.35554   0.87168   0.51653   0.00000  Uiso   1.00
C1223  C     0.62448   0.83438   0.49696   0.00000  Uiso   1.00
C1224  C     0.37616   0.83464   0.49788   0.00000  Uiso   1.00
C1225  C     0.51959   0.69021   0.53763   0.00000  Uiso   1.00
C1226  C     0.47743   0.97570   0.46515   0.00000  Uiso   1.00
C1227  C     0.47923   0.68981   0.46356   0.00000  Uiso   1.00
C1228  C     0.52200   0.97624   0.53546   0.00000  Uiso   1.00
C1229  C     0.37916   0.79674   0.39561   0.00000  Uiso   1.00
C1230  C     0.36807   0.76826   0.34970   0.00000  Uiso   1.00
C1231  C     0.38535   0.78816   0.63471   0.00000  Uiso   1.00
C1232  C     0.58001   0.83362   0.49911   0.00000  Uiso   1.00
C1233  C     0.62190   0.93371   0.46257   0.00000  Uiso   1.00
C1234  C     0.66203   0.95016   0.43892   0.00000  Uiso   1.00
C1235  C     0.65375   0.98302   0.39618   0.00000  Uiso   1.00
C1236  C     0.62219   0.73226   0.52008   0.00000  Uiso   1.00
C1237  C     0.66207   0.71499   0.54419   0.00000  Uiso   1.00
C1238  C     0.65330   0.69430   0.59545   0.00000  Uiso   1.00
C1239  C     0.36957   0.91201   0.58748   0.00000  Uiso   1.00
C1240  C     0.39547   0.95039   0.60943   0.00000  Uiso   1.00
C1241  C     0.44060   0.93897   0.61479   0.00000  Uiso   1.00
C1242  C     0.50012   0.83339   0.40642   0.00000  Uiso   1.00
C1243  C     0.50008   0.83328   0.59358   0.00000  Uiso   1.00
C1244  C     0.50023   0.83341   0.35519   0.00000  Uiso   1.00
C1245  C     0.50024   0.83324   0.64482   0.00000  Uiso   1.00
C1246  C     0.35405   0.80007   0.47445   0.00000  Uiso   1.00
C1247  C     0.64679   0.87418   0.50746   0.00000  Uiso   1.00
C1248  C     0.64599   0.79589   0.48301   0.00000  Uiso   1.00
H1249  H     0.41233   0.80592   0.39553   0.00000  Uiso   1.00
H1250  H     0.34886   0.96647   0.46762   0.00000  Uiso   1.00
H1251  H     0.34539   0.92127   0.42388   0.00000  Uiso   1.00
H1252  H     0.63522   0.96676   0.36567   0.00000  Uiso   1.00
H1253  H     0.35006   0.99476   0.38086   0.00000  Uiso   1.00
H1254  H     0.63717   0.67908   0.41004   0.00000  Uiso   1.00
H1255  H     0.60126   0.70340   0.51291   0.00000  Uiso   1.00
H1256  H     0.60782   0.75398   0.54809   0.00000  Uiso   1.00
H1257  H     0.34292   0.69025   0.51965   0.00000  Uiso   1.00
H1258  H     0.35095   0.74277   0.54982   0.00000  Uiso   1.00
H1259  H     0.63261   0.71542   0.61736   0.00000  Uiso   1.00
H1260  H     0.36147   0.82830   0.39173   0.00000  Uiso   1.00
H1261  H     0.34872   0.69174   0.61800   0.00000  Uiso   1.00
H1262  H     0.63901   0.99414   0.59071   0.00000  Uiso   1.00
H1263  H     0.37737   0.88089   0.60800   0.00000  Uiso   1.00
H1264  H     0.33671   0.91943   0.59378   0.00000  Uiso   1.00
H1265  H     0.39300   0.97972   0.58417   0.00000  Uiso   1.00
H1266  H     0.38397   0.95892   0.64702   0.00000  Uiso   1.00
H1267  H     0.44466   0.90887   0.63856   0.00000  Uiso   1.00
H1268  H     0.45793   0.96722   0.63233   0.00000  Uiso   1.00
H1269  H     0.45271   0.93330   0.57704   0.00000  Uiso   1.00
H1270  H     0.38002   0.73422   0.35500   0.00000  Uiso   1.00
H1271  H     0.33407   0.76507   0.34608   0.00000  Uiso   1.00
H1272  H     0.41049   0.81278   0.64228   0.00000  Uiso   1.00
H1273  H     0.36045   0.80462   0.61271   0.00000  Uiso   1.00
H1274  H     0.39832   0.76139   0.61158   0.00000  Uiso   1.00
H1275  H     0.60106   0.96234   0.46676   0.00000  Uiso   1.00
H1276  H     0.60578   0.90998   0.43649   0.00000  Uiso   1.00
N1277  N     0.50000   0.95240   0.50000   0.00000  Uiso   1.00
N1278  N     0.50000   0.71427   0.50000   0.00000  Uiso   1.00
O1279  O     0.43892   0.87154   0.50000   0.00000  Uiso   1.00
O1280  O     0.62842   0.91526   0.51124   0.00000  Uiso   1.00
O1281  O     0.62744   0.75491   0.47377   0.00000  Uiso   1.00
O1282  O     0.37707   0.90821   0.53569   0.00000  Uiso   1.00
O1283  O     0.56108   0.79513   0.50000   0.00000  Uiso   1.00
O1284  O     0.56108   0.87154   0.50000   0.00000  Uiso   1.00
O1285  O     0.43892   0.79513   0.50000   0.00000  Uiso   1.00
O1286  O     0.50000   0.87155   0.42845   0.00000  Uiso   1.00
O1287  O     0.50000   0.79512   0.57155   0.00000  Uiso   1.00
O1288  O     0.50000   0.87155   0.57155   0.00000  Uiso   1.00
O1289  O     0.50000   0.79512   0.42845   0.00000  Uiso   1.00
O1290  O     0.37147   0.77209   0.44018   0.00000  Uiso   1.00
Zn1291 Zn    0.50000   0.88437   0.50000   0.00000  Uiso   1.00
Zn1292 Zn    0.50000   0.78229   0.50000   0.00000  Uiso   1.00
Br1293 Br    0.87480   0.71810   0.59749   0.00000  Uiso   1.00
Br1294 Br    0.77480   0.94412   0.41894   0.00000  Uiso   1.00
Br1295 Br    0.78522   0.71826   0.40873   0.00000  Uiso   1.00
Br1296 Br    0.88987   0.94568   0.58349   0.00000  Uiso   1.00
C1297  C     0.75356   0.83342   0.49974   0.00000  Uiso   1.00
C1298  C     0.68887   0.87168   0.51653   0.00000  Uiso   1.00
C1299  C     0.95782   0.83438   0.49696   0.00000  Uiso   1.00
C1300  C     0.70950   0.83464   0.49788   0.00000  Uiso   1.00
C1301  C     0.85292   0.69021   0.53763   0.00000  Uiso   1.00
C1302  C     0.81076   0.97570   0.46515   0.00000  Uiso   1.00
C1303  C     0.81256   0.68981   0.46356   0.00000  Uiso   1.00
C1304  C     0.85534   0.97624   0.53546   0.00000  Uiso   1.00
C1305  C     0.71249   0.79674   0.39561   0.00000  Uiso   1.00
C1306  C     0.70141   0.76826   0.34970   0.00000  Uiso   1.00
C1307  C     0.71868   0.78816   0.63471   0.00000  Uiso   1.00
C1308  C     0.91334   0.83362   0.49911   0.00000  Uiso   1.00
C1309  C     0.95523   0.93371   0.46257   0.00000  Uiso   1.00
C1310  C     0.99537   0.95016   0.43892   0.00000  Uiso   1.00
C1311  C     0.98708   0.98302   0.39618   0.00000  Uiso   1.00
C1312  C     0.95552   0.73226   0.52008   0.00000  Uiso   1.00
C1313  C     0.99540   0.71499   0.54419   0.00000  Uiso   1.00
C1314  C     0.98663   0.69430   0.59545   0.00000  Uiso   1.00
C1315  C     0.70290   0.91201   0.58748   0.00000  Uiso   1.00
C1316  C     0.72880   0.95039   0.60943   0.00000  Uiso   1.00
C1317  C     0.77393   0.93897   0.61479   0.00000  Uiso   1.00
C1318  C     0.83345   0.83339   0.40642   0.00000  Uiso   1.00
C1319  C     0.83341   0.83328   0.59358   0.00000  Uiso   1.00
C1320  C     0.83356   0.83341   0.35519   0.00000  Uiso   1.00
C1321  C     0.83357   0.83324   0.64482   0.00000  Uiso   1.00
C1322  C     0.68739   0.80007   0.47445   0.00000  Uiso   1.00
C1323  C     0.98012   0.87418   0.50746   0.00000  Uiso   1.00
C1324  C     0.97932   0.79589   0.48301   0.00000  Uiso   1.00
H1325  H     0.74567   0.80592   0.39553   0.00000  Uiso   1.00
H1326  H     0.68219   0.96647   0.46762   0.00000  Uiso   1.00
H1327  H     0.67872   0.92127   0.42388   0.00000  Uiso   1.00
H1328  H     0.96856   0.96676   0.36567   0.00000  Uiso   1.00
H1329  H     0.68339   0.99476   0.38086   0.00000  Uiso   1.00
H1330  H     0.97050   0.67908   0.41004   0.00000  Uiso   1.00
H1331  H     0.93460   0.70340   0.51291   0.00000  Uiso   1.00
H1332  H     0.94115   0.75398   0.54809   0.00000  Uiso   1.00
H1333  H     0.67625   0.69025   0.51965   0.00000  Uiso   1.00
H1334  H     0.68428   0.74277   0.54982   0.00000  Uiso   1.00
H1335  H     0.96594   0.71542   0.61736   0.00000  Uiso   1.00
H1336  H     0.69480   0.82830   0.39173   0.00000  Uiso   1.00
H1337  H     0.68205   0.69174   0.61800   0.00000  Uiso   1.00
H1338  H     0.97235   0.99414   0.59071   0.00000  Uiso   1.00
H1339  H     0.71070   0.88089   0.60800   0.00000  Uiso   1.00
H1340  H     0.67005   0.91943   0.59378   0.00000  Uiso   1.00
H1341  H     0.72633   0.97972   0.58417   0.00000  Uiso   1.00
H1342  H     0.71731   0.95892   0.64702   0.00000  Uiso   1.00
H1343  H     0.77799   0.90887   0.63856   0.00000  Uiso   1.00
H1344  H     0.79127   0.96722   0.63233   0.00000  Uiso   1.00
H1345  H     0.78605   0.93330   0.57704   0.00000  Uiso   1.00
H1346  H     0.71335   0.73422   0.35500   0.00000  Uiso   1.00
H1347  H     0.66740   0.76507   0.34608   0.00000  Uiso   1.00
H1348  H     0.74382   0.81278   0.64228   0.00000  Uiso   1.00
H1349  H     0.69378   0.80462   0.61271   0.00000  Uiso   1.00
H1350  H     0.73165   0.76139   0.61158   0.00000  Uiso   1.00
H1351  H     0.93439   0.96234   0.46676   0.00000  Uiso   1.00
H1352  H     0.93911   0.90998   0.43649   0.00000  Uiso   1.00
N1353  N     0.83333   0.95240   0.50000   0.00000  Uiso   1.00
N1354  N     0.83333   0.71427   0.50000   0.00000  Uiso   1.00
O1355  O     0.77226   0.87154   0.50000   0.00000  Uiso   1.00
O1356  O     0.96176   0.91526   0.51124   0.00000  Uiso   1.00
O1357  O     0.96077   0.75491   0.47377   0.00000  Uiso   1.00
O1358  O     0.71041   0.90821   0.53569   0.00000  Uiso   1.00
O1359  O     0.89441   0.79513   0.50000   0.00000  Uiso   1.00
O1360  O     0.89441   0.87154   0.50000   0.00000  Uiso   1.00
O1361  O     0.77226   0.79513   0.50000   0.00000  Uiso   1.00
O1362  O     0.83334   0.87155   0.42845   0.00000  Uiso   1.00
O1363  O     0.83333   0.79512   0.57155   0.00000  Uiso   1.00
O1364  O     0.83333   0.87155   0.57155   0.00000  Uiso   1.00
O1365  O     0.83334   0.79512   0.42845   0.00000  Uiso   1.00
O1366  O     0.70480   0.77209   0.44018   0.00000  Uiso   1.00
Zn1367 Zn    0.83333   0.88437   0.50000   0.00000  Uiso   1.00
Zn1368 Zn    0.83333   0.78229   0.50000   0.00000  Uiso   1.00
Br1369 Br    0.20813   0.05143   0.93082   0.00000  Uiso   1.00
Br1370 Br    0.10813   0.27745   0.75228   0.00000  Uiso   1.00
Br1371 Br    0.11856   0.05160   0.74206   0.00000  Uiso   1.00
Br1372 Br    0.22320   0.27901   0.91682   0.00000  Uiso   1.00
C1373  C     0.08689   0.16675   0.83307   0.00000  Uiso   1.00
C1374  C     0.02221   0.20501   0.84986   0.00000  Uiso   1.00
C1375  C     0.29115   0.16771   0.83029   0.00000  Uiso   1.00
C1376  C     0.04283   0.16797   0.83121   0.00000  Uiso   1.00
C1377  C     0.18625   0.02355   0.87096   0.00000  Uiso   1.00
C1378  C     0.14410   0.30904   0.79848   0.00000  Uiso   1.00
C1379  C     0.14590   0.02314   0.79689   0.00000  Uiso   1.00
C1380  C     0.18867   0.30958   0.86880   0.00000  Uiso   1.00
C1381  C     0.04583   0.13007   0.72895   0.00000  Uiso   1.00
C1382  C     0.03474   0.10160   0.68303   0.00000  Uiso   1.00
C1383  C     0.05201   0.12149   0.96805   0.00000  Uiso   1.00
C1384  C     0.24668   0.16696   0.83244   0.00000  Uiso   1.00
C1385  C     0.28856   0.26704   0.79590   0.00000  Uiso   1.00
C1386  C     0.32870   0.28349   0.77225   0.00000  Uiso   1.00
C1387  C     0.32042   0.31636   0.72952   0.00000  Uiso   1.00
C1388  C     0.28886   0.06559   0.85342   0.00000  Uiso   1.00
C1389  C     0.32874   0.04832   0.87753   0.00000  Uiso   1.00
C1390  C     0.31996   0.02764   0.92879   0.00000  Uiso   1.00
C1391  C     0.03624   0.24535   0.92082   0.00000  Uiso   1.00
C1392  C     0.06213   0.28373   0.94276   0.00000  Uiso   1.00
C1393  C     0.10726   0.27230   0.94812   0.00000  Uiso   1.00
C1394  C     0.16678   0.16673   0.73975   0.00000  Uiso   1.00
C1395  C     0.16675   0.16661   0.92691   0.00000  Uiso   1.00
C1396  C     0.16689   0.16674   0.68853   0.00000  Uiso   1.00
C1397  C     0.16691   0.16657   0.97815   0.00000  Uiso   1.00
C1398  C     0.02072   0.13340   0.80779   0.00000  Uiso   1.00
C1399  C     0.31345   0.20751   0.84079   0.00000  Uiso   1.00
C1400  C     0.31266   0.12922   0.81634   0.00000  Uiso   1.00
H1401  H     0.07900   0.13926   0.72886   0.00000  Uiso   1.00
H1402  H     0.01552   0.29980   0.80096   0.00000  Uiso   1.00
H1403  H     0.01206   0.25461   0.75721   0.00000  Uiso   1.00
H1404  H     0.30189   0.30009   0.69901   0.00000  Uiso   1.00
H1405  H     0.01672   0.32810   0.71419   0.00000  Uiso   1.00
H1406  H     0.30383   0.01241   0.74337   0.00000  Uiso   1.00
H1407  H     0.26793   0.03673   0.84624   0.00000  Uiso   1.00
H1408  H     0.27448   0.08731   0.88142   0.00000  Uiso   1.00
H1409  H     0.00958   0.02359   0.85298   0.00000  Uiso   1.00
H1410  H     0.01761   0.07610   0.88315   0.00000  Uiso   1.00
H1411  H     0.29928   0.04875   0.95069   0.00000  Uiso   1.00
H1412  H     0.02814   0.16164   0.72506   0.00000  Uiso   1.00
H1413  H     0.01539   0.02508   0.95133   0.00000  Uiso   1.00
H1414  H     0.30568   0.32747   0.92404   0.00000  Uiso   1.00
H1415  H     0.04404   0.21422   0.94134   0.00000  Uiso   1.00
H1416  H     0.00338   0.25276   0.92711   0.00000  Uiso   1.00
H1417  H     0.05966   0.31305   0.91750   0.00000  Uiso   1.00
H1418  H     0.05064   0.29225   0.98035   0.00000  Uiso   1.00
H1419  H     0.11133   0.24220   0.97190   0.00000  Uiso   1.00
H1420  H     0.12460   0.30056   0.96566   0.00000  Uiso   1.00
H1421  H     0.11938   0.26664   0.91037   0.00000  Uiso   1.00
H1422  H     0.04668   0.06755   0.68834   0.00000  Uiso   1.00
H1423  H     0.00074   0.09840   0.67941   0.00000  Uiso   1.00
H1424  H     0.07715   0.14611   0.97561   0.00000  Uiso   1.00
H1425  H     0.02712   0.13795   0.94605   0.00000  Uiso   1.00
H1426  H     0.06498   0.09472   0.94491   0.00000  Uiso   1.00
H1427  H     0.26773   0.29568   0.80009   0.00000  Uiso   1.00
H1428  H     0.27245   0.24331   0.76983   0.00000  Uiso   1.00
N1429  N     0.16667   0.28573   0.83333   0.00000  Uiso   1.00
N1430  N     0.16667   0.04760   0.83333   0.00000  Uiso   1.00
O1431  O     0.10559   0.20487   0.83333   0.00000  Uiso   1.00
O1432  O     0.29509   0.24860   0.84457   0.00000  Uiso   1.00
O1433  O     0.29411   0.08825   0.80710   0.00000  Uiso   1.00
O1434  O     0.04374   0.24154   0.86902   0.00000  Uiso   1.00
O1435  O     0.22774   0.12846   0.83334   0.00000  Uiso   1.00
O1436  O     0.22774   0.20487   0.83334   0.00000  Uiso   1.00
O1437  O     0.10559   0.12846   0.83333   0.00000  Uiso   1.00
O1438  O     0.16667   0.20488   0.76178   0.00000  Uiso   1.00
O1439  O     0.16666   0.12845   0.90489   0.00000  Uiso   1.00
O1440  O     0.16666   0.20488   0.90489   0.00000  Uiso   1.00
O1441  O     0.16667   0.12845   0.76178   0.00000  Uiso   1.00
O1442  O     0.03813   0.10543   0.77352   0.00000  Uiso   1.00
Zn1443 Zn    0.16667   0.21771   0.83333   0.00000  Uiso   1.00
Zn1444 Zn    0.16667   0.11563   0.83333   0.00000  Uiso   1.00
Br1445 Br    0.54146   0.05143   0.93082   0.00000  Uiso   1.00
Br1446 Br    0.44147   0.27745   0.75228   0.00000  Uiso   1.00
Br1447 Br    0.45189   0.05160   0.74206   0.00000  Uiso   1.00
Br1448 Br    0.55654   0.27901   0.91682   0.00000  Uiso   1.00
C1449  C     0.42023   0.16675   0.83307   0.00000  Uiso   1.00
C1450  C     0.35554   0.20501   0.84986   0.00000  Uiso   1.00
C1451  C     0.62448   0.16771   0.83029   0.00000  Uiso   1.00
C1452  C     0.37616   0.16797   0.83121   0.00000  Uiso   1.00
C1453  C     0.51959   0.02355   0.87096   0.00000  Uiso   1.00
C1454  C     0.47743   0.30904   0.79848   0.00000  Uiso   1.00
C1455  C     0.47923   0.02314   0.79689   0.00000  Uiso   1.00
C1456  C     0.52200   0.30958   0.86880   0.00000  Uiso   1.00
C1457  C     0.37916   0.13007   0.72895   0.00000  Uiso   1.00
C1458  C     0.36807   0.10160   0.68303   0.00000  Uiso   1.00
C1459  C     0.38535   0.12149   0.96805   0.00000  Uiso   1.00
C1460  C     0.58001   0.16696   0.83244   0.00000  Uiso   1.00
C1461  C     0.62190   0.26704   0.79590   0.00000  Uiso   1.00
C1462  C     0.66203   0.28349   0.77225   0.00000  Uiso   1.00
C1463  C     0.65375   0.31636   0.72952   0.00000  Uiso   1.00
C1464  C     0.62219   0.06559   0.85342   0.00000  Uiso   1.00
C1465  C     0.66207   0.04832   0.87753   0.00000  Uiso   1.00
C1466  C     0.65330   0.02764   0.92879   0.00000  Uiso   1.00
C1467  C     0.36957   0.24535   0.92082   0.00000  Uiso   1.00
C1468  C     0.39547   0.28373   0.94276   0.00000  Uiso   1.00
C1469  C     0.44060   0.27230   0.94812   0.00000  Uiso   1.00
C1470  C     0.50012   0.16673   0.73975   0.00000  Uiso   1.00
C1471  C     0.50008   0.16661   0.92691   0.00000  Uiso   1.00
C1472  C     0.50023   0.16674   0.68853   0.00000  Uiso   1.00
C1473  C     0.50024   0.16657   0.97815   0.00000  Uiso   1.00
C1474  C     0.35405   0.13340   0.80779   0.00000  Uiso   1.00
C1475  C     0.64679   0.20751   0.84079   0.00000  Uiso   1.00
C1476  C     0.64599   0.12922   0.81634   0.00000  Uiso   1.00
H1477  H     0.41233   0.13926   0.72886   0.00000  Uiso   1.00
H1478  H     0.34886   0.29980   0.80096   0.00000  Uiso   1.00
H1479  H     0.34539   0.25461   0.75721   0.00000  Uiso   1.00
H1480  H     0.63522   0.30009   0.69901   0.00000  Uiso   1.00
H1481  H     0.35006   0.32810   0.71419   0.00000  Uiso   1.00
H1482  H     0.63717   0.01241   0.74337   0.00000  Uiso   1.00
H1483  H     0.60126   0.03673   0.84624   0.00000  Uiso   1.00
H1484  H     0.60782   0.08731   0.88142   0.00000  Uiso   1.00
H1485  H     0.34292   0.02359   0.85298   0.00000  Uiso   1.00
H1486  H     0.35095   0.07610   0.88315   0.00000  Uiso   1.00
H1487  H     0.63261   0.04875   0.95069   0.00000  Uiso   1.00
H1488  H     0.36147   0.16164   0.72506   0.00000  Uiso   1.00
H1489  H     0.34872   0.02508   0.95133   0.00000  Uiso   1.00
H1490  H     0.63901   0.32747   0.92404   0.00000  Uiso   1.00
H1491  H     0.37737   0.21422   0.94134   0.00000  Uiso   1.00
H1492  H     0.33671   0.25276   0.92711   0.00000  Uiso   1.00
H1493  H     0.39300   0.31305   0.91750   0.00000  Uiso   1.00
H1494  H     0.38397   0.29225   0.98035   0.00000  Uiso   1.00
H1495  H     0.44466   0.24220   0.97190   0.00000  Uiso   1.00
H1496  H     0.45793   0.30056   0.96566   0.00000  Uiso   1.00
H1497  H     0.45271   0.26664   0.91037   0.00000  Uiso   1.00
H1498  H     0.38002   0.06755   0.68834   0.00000  Uiso   1.00
H1499  H     0.33407   0.09840   0.67941   0.00000  Uiso   1.00
H1500  H     0.41049   0.14611   0.97561   0.00000  Uiso   1.00
H1501  H     0.36045   0.13795   0.94605   0.00000  Uiso   1.00
H1502  H     0.39832   0.09472   0.94491   0.00000  Uiso   1.00
H1503  H     0.60106   0.29568   0.80009   0.00000  Uiso   1.00
H1504  H     0.60578   0.24331   0.76983   0.00000  Uiso   1.00
N1505  N     0.50000   0.28573   0.83333   0.00000  Uiso   1.00
N1506  N     0.50000   0.04760   0.83333   0.00000  Uiso   1.00
O1507  O     0.43892   0.20487   0.83333   0.00000  Uiso   1.00
O1508  O     0.62842   0.24860   0.84457   0.00000  Uiso   1.00
O1509  O     0.62744   0.08825   0.80710   0.00000  Uiso   1.00
O1510  O     0.37707   0.24154   0.86902   0.00000  Uiso   1.00
O1511  O     0.56108   0.12846   0.83334   0.00000  Uiso   1.00
O1512  O     0.56108   0.20487   0.83334   0.00000  Uiso   1.00
O1513  O     0.43892   0.12846   0.83333   0.00000  Uiso   1.00
O1514  O     0.50000   0.20488   0.76178   0.00000  Uiso   1.00
O1515  O     0.50000   0.12845   0.90489   0.00000  Uiso   1.00
O1516  O     0.50000   0.20488   0.90489   0.00000  Uiso   1.00
O1517  O     0.50000   0.12845   0.76178   0.00000  Uiso   1.00
O1518  O     0.37147   0.10543   0.77352   0.00000  Uiso   1.00
Zn1519 Zn    0.50000   0.21771   0.83333   0.00000  Uiso   1.00
Zn1520 Zn    0.50000   0.11563   0.83333   0.00000  Uiso   1.00
Br1521 Br    0.87480   0.05143   0.93082   0.00000  Uiso   1.00
Br1522 Br    0.77480   0.27745   0.75228   0.00000  Uiso   1.00
Br1523 Br    0.78522   0.05160   0.74206   0.00000  Uiso   1.00
Br1524 Br    0.88987   0.27901   0.91682   0.00000  Uiso   1.00
C1525  C     0.75356   0.16675   0.83307   0.00000  Uiso   1.00
C1526  C     0.68887   0.20501   0.84986   0.00000  Uiso   1.00
C1527  C     0.95782   0.16771   0.83029   0.00000  Uiso   1.00
C1528  C     0.70950   0.16797   0.83121   0.00000  Uiso   1.00
C1529  C     0.85292   0.02355   0.87096   0.00000  Uiso   1.00
C1530  C     0.81076   0.30904   0.79848   0.00000  Uiso   1.00
C1531  C     0.81256   0.02314   0.79689   0.00000  Uiso   1.00
C1532  C     0.85534   0.30958   0.86880   0.00000  Uiso   1.00
C1533  C     0.71249   0.13007   0.72895   0.00000  Uiso   1.00
C1534  C     0.70141   0.10160   0.68303   0.00000  Uiso   1.00
C1535  C     0.71868   0.12149   0.96805   0.00000  Uiso   1.00
C1536  C     0.91334   0.16696   0.83244   0.00000  Uiso   1.00
C1537  C     0.95523   0.26704   0.79590   0.00000  Uiso   1.00
C1538  C     0.99537   0.28349   0.77225   0.00000  Uiso   1.00
C1539  C     0.98708   0.31636   0.72952   0.00000  Uiso   1.00
C1540  C     0.95552   0.06559   0.85342   0.00000  Uiso   1.00
C1541  C     0.99540   0.04832   0.87753   0.00000  Uiso   1.00
C1542  C     0.98663   0.02764   0.92879   0.00000  Uiso   1.00
C1543  C     0.70290   0.24535   0.92082   0.00000  Uiso   1.00
C1544  C     0.72880   0.28373   0.94276   0.00000  Uiso   1.00
C1545  C     0.77393   0.27230   0.94812   0.00000  Uiso   1.00
C1546  C     0.83345   0.16673   0.73975   0.00000  Uiso   1.00
C1547  C     0.83341   0.16661   0.92691   0.00000  Uiso   1.00
C1548  C     0.83356   0.16674   0.68853   0.00000  Uiso   1.00
C1549  C     0.83357   0.16657   0.97815   0.00000  Uiso   1.00
C1550  C     0.68739   0.13340   0.80779   0.00000  Uiso   1.00
C1551  C     0.98012   0.20751   0.84079   0.00000  Uiso   1.00
C1552  C     0.97932   0.12922   0.81634   0.00000  Uiso   1.00
H1553  H     0.74567   0.13926   0.72886   0.00000  Uiso   1.00
H1554  H     0.68219   0.29980   0.80096   0.00000  Uiso   1.00
H1555  H     0.67872   0.25461   0.75721   0.00000  Uiso   1.00
H1556  H     0.96856   0.30009   0.69901   0.00000  Uiso   1.00
H1557  H     0.68339   0.32810   0.71419   0.00000  Uiso   1.00
H1558  H     0.97050   0.01241   0.74337   0.00000  Uiso   1.00
H1559  H     0.93460   0.03673   0.84624   0.00000  Uiso   1.00
H1560  H     0.94115   0.08731   0.88142   0.00000  Uiso   1.00
H1561  H     0.67625   0.02359   0.85298   0.00000  Uiso   1.00
H1562  H     0.68428   0.07610   0.88315   0.00000  Uiso   1.00
H1563  H     0.96594   0.04875   0.95069   0.00000  Uiso   1.00
H1564  H     0.69480   0.16164   0.72506   0.00000  Uiso   1.00
H1565  H     0.68205   0.02508   0.95133   0.00000  Uiso   1.00
H1566  H     0.97235   0.32747   0.92404   0.00000  Uiso   1.00
H1567  H     0.71070   0.21422   0.94134   0.00000  Uiso   1.00
H1568  H     0.67005   0.25276   0.92711   0.00000  Uiso   1.00
H1569  H     0.72633   0.31305   0.91750   0.00000  Uiso   1.00
H1570  H     0.71731   0.29225   0.98035   0.00000  Uiso   1.00
H1571  H     0.77799   0.24220   0.97190   0.00000  Uiso   1.00
H1572  H     0.79127   0.30056   0.96566   0.00000  Uiso   1.00
H1573  H     0.78605   0.26664   0.91037   0.00000  Uiso   1.00
H1574  H     0.71335   0.06755   0.68834   0.00000  Uiso   1.00
H1575  H     0.66740   0.09840   0.67941   0.00000  Uiso   1.00
H1576  H     0.74382   0.14611   0.97561   0.00000  Uiso   1.00
H1577  H     0.69378   0.13795   0.94605   0.00000  Uiso   1.00
H1578  H     0.73165   0.09472   0.94491   0.00000  Uiso   1.00
H1579  H     0.93439   0.29568   0.80009   0.00000  Uiso   1.00
H1580  H     0.93911   0.24331   0.76983   0.00000  Uiso   1.00
N1581  N     0.83333   0.28573   0.83333   0.00000  Uiso   1.00
N1582  N     0.83333   0.04760   0.83333   0.00000  Uiso   1.00
O1583  O     0.77226   0.20487   0.83333   0.00000  Uiso   1.00
O1584  O     0.96176   0.24860   0.84457   0.00000  Uiso   1.00
O1585  O     0.96077   0.08825   0.80710   0.00000  Uiso   1.00
O1586  O     0.71041   0.24154   0.86902   0.00000  Uiso   1.00
O1587  O     0.89441   0.12846   0.83334   0.00000  Uiso   1.00
O1588  O     0.89441   0.20487   0.83334   0.00000  Uiso   1.00
O1589  O     0.77226   0.12846   0.83333   0.00000  Uiso   1.00
O1590  O     0.83334   0.20488   0.76178   0.00000  Uiso   1.00
O1591  O     0.83333   0.12845   0.90489   0.00000  Uiso   1.00
O1592  O     0.83333   0.20488   0.90489   0.00000  Uiso   1.00
O1593  O     0.83334   0.12845   0.76178   0.00000  Uiso   1.00
O1594  O     0.70480   0.10543   0.77352   0.00000  Uiso   1.00
Zn1595 Zn    0.83333   0.21771   0.83333   0.00000  Uiso   1.00
Zn1596 Zn    0.83333   0.11563   0.83333   0.00000  Uiso   1.00
Br1597 Br    0.20813   0.38477   0.93082   0.00000  Uiso   1.00
Br1598 Br    0.10813   0.61078   0.75228   0.00000  Uiso   1.00
Br1599 Br    0.11856   0.38493   0.74206   0.00000  Uiso   1.00
Br1600 Br    0.22320   0.61234   0.91682   0.00000  Uiso   1.00
C1601  C     0.08689   0.50009   0.83307   0.00000  Uiso   1.00
C1602  C     0.02221   0.53835   0.84986   0.00000  Uiso   1.00
C1603  C     0.29115   0.50105   0.83029   0.00000  Uiso   1.00
C1604  C     0.04283   0.50131   0.83121   0.00000  Uiso   1.00
C1605  C     0.18625   0.35688   0.87096   0.00000  Uiso   1.00
C1606  C     0.14410   0.64237   0.79848   0.00000  Uiso   1.00
C1607  C     0.14590   0.35647   0.79689   0.00000  Uiso   1.00
C1608  C     0.18867   0.64291   0.86880   0.00000  Uiso   1.00
C1609  C     0.04583   0.46341   0.72895   0.00000  Uiso   1.00
C1610  C     0.03474   0.43493   0.68303   0.00000  Uiso   1.00
C1611  C     0.05201   0.45482   0.96805   0.00000  Uiso   1.00
C1612  C     0.24668   0.50029   0.83244   0.00000  Uiso   1.00
C1613  C     0.28856   0.60038   0.79590   0.00000  Uiso   1.00
C1614  C     0.32870   0.61682   0.77225   0.00000  Uiso   1.00
C1615  C     0.32042   0.64969   0.72952   0.00000  Uiso   1.00
C1616  C     0.28886   0.39892   0.85342   0.00000  Uiso   1.00
C1617  C     0.32874   0.38166   0.87753   0.00000  Uiso   1.00
C1618  C     0.31996   0.36097   0.92879   0.00000  Uiso   1.00
C1619  C     0.03624   0.57868   0.92082   0.00000  Uiso   1.00
C1620  C     0.06213   0.61706   0.94276   0.00000  Uiso   1.00
C1621  C     0.10726   0.60563   0.94812   0.00000  Uiso   1.00
C1622  C     0.16678   0.50006   0.73975   0.00000  Uiso   1.00
C1623  C     0.16675   0.49995   0.92691   0.00000  Uiso   1.00
C1624  C     0.16689   0.50008   0.68853   0.00000  Uiso   1.00
C1625  C     0.16691   0.49990   0.97815   0.00000  Uiso   1.00
C1626  C     0.02072   0.46673   0.80779   0.00000  Uiso   1.00
C1627  C     0.31345   0.54084   0.84079   0.00000  Uiso   1.00
C1628  C     0.31266   0.46255   0.81634   0.00000  Uiso   1.00
H1629  H     0.07900   0.47259   0.72886   0.00000  Uiso   1.00
H1630  H     0.01552   0.63313   0.80096   0.00000  Uiso   1.00
H1631  H     0.01206   0.58794   0.75721   0.00000  Uiso   1.00
H1632  H     0.30189   0.63343   0.69901   0.00000  Uiso   1.00
H1633  H     0.01672   0.66143   0.71419   0.00000  Uiso   1.00
H1634  H     0.30383   0.34574   0.74337   0.00000  Uiso   1.00
H1635  H     0.26793   0.37007   0.84624   0.00000  Uiso   1.00
H1636  H     0.27448   0.42064   0.88142   0.00000  Uiso   1.00
H1637  H     0.00958   0.35692   0.85298   0.00000  Uiso   1.00
H1638  H     0.01761   0.40944   0.88315   0.00000  Uiso   1.00
H1639  H     0.29928   0.38209   0.95069   0.00000  Uiso   1.00
H1640  H     0.02814   0.49497   0.72506   0.00000  Uiso   1.00
H1641  H     0.01539   0.35841   0.95133   0.00000  Uiso   1.00
H1642  H     0.30568   0.66081   0.92404   0.00000  Uiso   1.00
H1643  H     0.04404   0.54755   0.94134   0.00000  Uiso   1.00
H1644  H     0.00338   0.58609   0.92711   0.00000  Uiso   1.00
H1645  H     0.05966   0.64638   0.91750   0.00000  Uiso   1.00
H1646  H     0.05064   0.62558   0.98035   0.00000  Uiso   1.00
H1647  H     0.11133   0.57553   0.97190   0.00000  Uiso   1.00
H1648  H     0.12460   0.63389   0.96566   0.00000  Uiso   1.00
H1649  H     0.11938   0.59997   0.91037   0.00000  Uiso   1.00
H1650  H     0.04668   0.40089   0.68834   0.00000  Uiso   1.00
H1651  H     0.00074   0.43173   0.67941   0.00000  Uiso   1.00
H1652  H     0.07715   0.47944   0.97561   0.00000  Uiso   1.00
H1653  H     0.02712   0.47129   0.94605   0.00000  Uiso   1.00
H1654  H     0.06498   0.42806   0.94491   0.00000  Uiso   1.00
H1655  H     0.26773   0.62901   0.80009   0.00000  Uiso   1.00
H1656  H     0.27245   0.57664   0.76983   0.00000  Uiso   1.00
N1657  N     0.16667   0.61907   0.83333   0.00000  Uiso   1.00
N1658  N     0.16667   0.38093   0.83333   0.00000  Uiso   1.00
O1659  O     0.10559   0.53821   0.83333   0.00000  Uiso   1.00
O1660  O     0.29509   0.58193   0.84457   0.00000  Uiso   1.00
O1661  O     0.29411   0.42158   0.80710   0.00000  Uiso   1.00
O1662  O     0.04374   0.57488   0.86902   0.00000  Uiso   1.00
O1663  O     0.22774   0.46179   0.83334   0.00000  Uiso   1.00
O1664  O     0.22774   0.53821   0.83334   0.00000  Uiso   1.00
O1665  O     0.10559   0.46179   0.83333   0.00000  Uiso   1.00
O1666  O     0.16667   0.53821   0.76178   0.00000  Uiso   1.00
O1667  O     0.16666   0.46179   0.90489   0.00000  Uiso   1.00
O1668  O     0.16666   0.53821   0.90489   0.00000  Uiso   1.00
O1669  O     0.16667   0.46179   0.76178   0.00000  Uiso   1.00
O1670  O     0.03813   0.43876   0.77352   0.00000  Uiso   1.00
Zn1671 Zn    0.16667   0.55104   0.83333   0.00000  Uiso   1.00
Zn1672 Zn    0.16667   0.44896   0.83333   0.00000  Uiso   1.00
Br1673 Br    0.54146   0.38477   0.93082   0.00000  Uiso   1.00
Br1674 Br    0.44147   0.61078   0.75228   0.00000  Uiso   1.00
Br1675 Br    0.45189   0.38493   0.74206   0.00000  Uiso   1.00
Br1676 Br    0.55654   0.61234   0.91682   0.00000  Uiso   1.00
C1677  C     0.42023   0.50009   0.83307   0.00000  Uiso   1.00
C1678  C     0.35554   0.53835   0.84986   0.00000  Uiso   1.00
C1679  C     0.62448   0.50105   0.83029   0.00000  Uiso   1.00
C1680  C     0.37616   0.50131   0.83121   0.00000  Uiso   1.00
C1681  C     0.51959   0.35688   0.87096   0.00000  Uiso   1.00
C1682  C     0.47743   0.64237   0.79848   0.00000  Uiso   1.00
C1683  C     0.47923   0.35647   0.79689   0.00000  Uiso   1.00
C1684  C     0.52200   0.64291   0.86880   0.00000  Uiso   1.00
C1685  C     0.37916   0.46341   0.72895   0.00000  Uiso   1.00
C1686  C     0.36807   0.43493   0.68303   0.00000  Uiso   1.00
C1687  C     0.38535   0.45482   0.96805   0.00000  Uiso   1.00
C1688  C     0.58001   0.50029   0.83244   0.00000  Uiso   1.00
C1689  C     0.62190   0.60038   0.79590   0.00000  Uiso   1.00
C1690  C     0.66203   0.61682   0.77225   0.00000  Uiso   1.00
C1691  C     0.65375   0.64969   0.72952   0.00000  Uiso   1.00
C1692  C     0.62219   0.39892   0.85342   0.00000  Uiso   1.00
C1693  C     0.66207   0.38166   0.87753   0.00000  Uiso   1.00
C1694  C     0.65330   0.36097   0.92879   0.00000  Uiso   1.00
C1695  C     0.36957   0.57868   0.92082   0.00000  Uiso   1.00
C1696  C     0.39547   0.61706   0.94276   0.00000  Uiso   1.00
C1697  C     0.44060   0.60563   0.94812   0.00000  Uiso   1.00
C1698  C     0.50012   0.50006   0.73975   0.00000  Uiso   1.00
C1699  C     0.50008   0.49995   0.92691   0.00000  Uiso   1.00
C1700  C     0.50023   0.50008   0.68853   0.00000  Uiso   1.00
C1701  C     0.50024   0.49990   0.97815   0.00000  Uiso   1.00
C1702  C     0.35405   0.46673   0.80779   0.00000  Uiso   1.00
C1703  C     0.64679   0.54084   0.84079   0.00000  Uiso   1.00
C1704  C     0.64599   0.46255   0.81634   0.00000  Uiso   1.00
H1705  H     0.41233   0.47259   0.72886   0.00000  Uiso   1.00
H1706  H     0.34886   0.63313   0.80096   0.00000  Uiso   1.00
H1707  H     0.34539   0.58794   0.75721   0.00000  Uiso   1.00
H1708  H     0.63522   0.63343   0.69901   0.00000  Uiso   1.00
H1709  H     0.35006   0.66143   0.71419   0.00000  Uiso   1.00
H1710  H     0.63717   0.34574   0.74337   0.00000  Uiso   1.00
H1711  H     0.60126   0.37007   0.84624   0.00000  Uiso   1.00
H1712  H     0.60782   0.42064   0.88142   0.00000  Uiso   1.00
H1713  H     0.34292   0.35692   0.85298   0.00000  Uiso   1.00
H1714  H     0.35095   0.40944   0.88315   0.00000  Uiso   1.00
H1715  H     0.63261   0.38209   0.95069   0.00000  Uiso   1.00
H1716  H     0.36147   0.49497   0.72506   0.00000  Uiso   1.00
H1717  H     0.34872   0.35841   0.95133   0.00000  Uiso   1.00
H1718  H     0.63901   0.66081   0.92404   0.00000  Uiso   1.00
H1719  H     0.37737   0.54755   0.94134   0.00000  Uiso   1.00
H1720  H     0.33671   0.58609   0.92711   0.00000  Uiso   1.00
H1721  H     0.39300   0.64638   0.91750   0.00000  Uiso   1.00
H1722  H     0.38397   0.62558   0.98035   0.00000  Uiso   1.00
H1723  H     0.44466   0.57553   0.97190   0.00000  Uiso   1.00
H1724  H     0.45793   0.63389   0.96566   0.00000  Uiso   1.00
H1725  H     0.45271   0.59997   0.91037   0.00000  Uiso   1.00
H1726  H     0.38002   0.40089   0.68834   0.00000  Uiso   1.00
H1727  H     0.33407   0.43173   0.67941   0.00000  Uiso   1.00
H1728  H     0.41049   0.47944   0.97561   0.00000  Uiso   1.00
H1729  H     0.36045   0.47129   0.94605   0.00000  Uiso   1.00
H1730  H     0.39832   0.42806   0.94491   0.00000  Uiso   1.00
H1731  H     0.60106   0.62901   0.80009   0.00000  Uiso   1.00
H1732  H     0.60578   0.57664   0.76983   0.00000  Uiso   1.00
N1733  N     0.50000   0.61907   0.83333   0.00000  Uiso   1.00
N1734  N     0.50000   0.38093   0.83333   0.00000  Uiso   1.00
O1735  O     0.43892   0.53821   0.83333   0.00000  Uiso   1.00
O1736  O     0.62842   0.58193   0.84457   0.00000  Uiso   1.00
O1737  O     0.62744   0.42158   0.80710   0.00000  Uiso   1.00
O1738  O     0.37707   0.57488   0.86902   0.00000  Uiso   1.00
O1739  O     0.56108   0.46179   0.83334   0.00000  Uiso   1.00
O1740  O     0.56108   0.53821   0.83334   0.00000  Uiso   1.00
O1741  O     0.43892   0.46179   0.83333   0.00000  Uiso   1.00
O1742  O     0.50000   0.53821   0.76178   0.00000  Uiso   1.00
O1743  O     0.50000   0.46179   0.90489   0.00000  Uiso   1.00
O1744  O     0.50000   0.53821   0.90489   0.00000  Uiso   1.00
O1745  O     0.50000   0.46179   0.76178   0.00000  Uiso   1.00
O1746  O     0.37147   0.43876   0.77352   0.00000  Uiso   1.00
Zn1747 Zn    0.50000   0.55104   0.83333   0.00000  Uiso   1.00
Zn1748 Zn    0.50000   0.44896   0.83333   0.00000  Uiso   1.00
Br1749 Br    0.87480   0.38477   0.93082   0.00000  Uiso   1.00
Br1750 Br    0.77480   0.61078   0.75228   0.00000  Uiso   1.00
Br1751 Br    0.78522   0.38493   0.74206   0.00000  Uiso   1.00
Br1752 Br    0.88987   0.61234   0.91682   0.00000  Uiso   1.00
C1753  C     0.75356   0.50009   0.83307   0.00000  Uiso   1.00
C1754  C     0.68887   0.53835   0.84986   0.00000  Uiso   1.00
C1755  C     0.95782   0.50105   0.83029   0.00000  Uiso   1.00
C1756  C     0.70950   0.50131   0.83121   0.00000  Uiso   1.00
C1757  C     0.85292   0.35688   0.87096   0.00000  Uiso   1.00
C1758  C     0.81076   0.64237   0.79848   0.00000  Uiso   1.00
C1759  C     0.81256   0.35647   0.79689   0.00000  Uiso   1.00
C1760  C     0.85534   0.64291   0.86880   0.00000  Uiso   1.00
C1761  C     0.71249   0.46341   0.72895   0.00000  Uiso   1.00
C1762  C     0.70141   0.43493   0.68303   0.00000  Uiso   1.00
C1763  C     0.71868   0.45482   0.96805   0.00000  Uiso   1.00
C1764  C     0.91334   0.50029   0.83244   0.00000  Uiso   1.00
C1765  C     0.95523   0.60038   0.79590   0.00000  Uiso   1.00
C1766  C     0.99537   0.61682   0.77225   0.00000  Uiso   1.00
C1767  C     0.98708   0.64969   0.72952   0.00000  Uiso   1.00
C1768  C     0.95552   0.39892   0.85342   0.00000  Uiso   1.00
C1769  C     0.99540   0.38166   0.87753   0.00000  Uiso   1.00
C1770  C     0.98663   0.36097   0.92879   0.00000  Uiso   1.00
C1771  C     0.70290   0.57868   0.92082   0.00000  Uiso   1.00
C1772  C     0.72880   0.61706   0.94276   0.00000  Uiso   1.00
C1773  C     0.77393   0.60563   0.94812   0.00000  Uiso   1.00
C1774  C     0.83345   0.50006   0.73975   0.00000  Uiso   1.00
C1775  C     0.83341   0.49995   0.92691   0.00000  Uiso   1.00
C1776  C     0.83356   0.50008   0.68853   0.00000  Uiso   1.00
C1777  C     0.83357   0.49990   0.97815   0.00000  Uiso   1.00
C1778  C     0.68739   0.46673   0.80779   0.00000  Uiso   1.00
C1779  C     0.98012   0.54084   0.84079   0.00000  Uiso   1.00
C1780  C     0.97932   0.46255   0.81634   0.00000  Uiso   1.00
H1781  H     0.74567   0.47259   0.72886   0.00000  Uiso   1.00
H1782  H     0.68219   0.63313   0.80096   0.00000  Uiso   1.00
H1783  H     0.67872   0.58794   0.75721   0.00000  Uiso   1.00
H1784  H     0.96856   0.63343   0.69901   0.00000  Uiso   1.00
H1785  H     0.68339   0.66143   0.71419   0.00000  Uiso   1.00
H1786  H     0.97050   0.34574   0.74337   0.00000  Uiso   1.00
H1787  H     0.93460   0.37007   0.84624   0.00000  Uiso   1.00
H1788  H     0.94115   0.42064   0.88142   0.00000  Uiso   1.00
H1789  H     0.67625   0.35692   0.85298   0.00000  Uiso   1.00
H1790  H     0.68428   0.40944   0.88315   0.00000  Uiso   1.00
H1791  H     0.96594   0.38209   0.95069   0.00000  Uiso   1.00
H1792  H     0.69480   0.49497   0.72506   0.00000  Uiso   1.00
H1793  H     0.68205   0.35841   0.95133   0.00000  Uiso   1.00
H1794  H     0.97235   0.66081   0.92404   0.00000  Uiso   1.00
H1795  H     0.71070   0.54755   0.94134   0.00000  Uiso   1.00
H1796  H     0.67005   0.58609   0.92711   0.00000  Uiso   1.00
H1797  H     0.72633   0.64638   0.91750   0.00000  Uiso   1.00
H1798  H     0.71731   0.62558   0.98035   0.00000  Uiso   1.00
H1799  H     0.77799   0.57553   0.97190   0.00000  Uiso   1.00
H1800  H     0.79127   0.63389   0.96566   0.00000  Uiso   1.00
H1801  H     0.78605   0.59997   0.91037   0.00000  Uiso   1.00
H1802  H     0.71335   0.40089   0.68834   0.00000  Uiso   1.00
H1803  H     0.66740   0.43173   0.67941   0.00000  Uiso   1.00
H1804  H     0.74382   0.47944   0.97561   0.00000  Uiso   1.00
H1805  H     0.69378   0.47129   0.94605   0.00000  Uiso   1.00
H1806  H     0.73165   0.42806   0.94491   0.00000  Uiso   1.00
H1807  H     0.93439   0.62901   0.80009   0.00000  Uiso   1.00
H1808  H     0.93911   0.57664   0.76983   0.00000  Uiso   1.00
N1809  N     0.83333   0.61907   0.83333   0.00000  Uiso   1.00
N1810  N     0.83333   0.38093   0.83333   0.00000  Uiso   1.00
O1811  O     0.77226   0.53821   0.83333   0.00000  Uiso   1.00
O1812  O     0.96176   0.58193   0.84457   0.00000  Uiso   1.00
O1813  O     0.96077   0.42158   0.80710   0.00000  Uiso   1.00
O1814  O     0.71041   0.57488   0.86902   0.00000  Uiso   1.00
O1815  O     0.89441   0.46179   0.83334   0.00000  Uiso   1.00
O1816  O     0.89441   0.53821   0.83334   0.00000  Uiso   1.00
O1817  O     0.77226   0.46179   0.83333   0.00000  Uiso   1.00
O1818  O     0.83334   0.53821   0.76178   0.00000  Uiso   1.00
O1819  O     0.83333   0.46179   0.90489   0.00000  Uiso   1.00
O1820  O     0.83333   0.53821   0.90489   0.00000  Uiso   1.00
O1821  O     0.83334   0.46179   0.76178   0.00000  Uiso   1.00
O1822  O     0.70480   0.43876   0.77352   0.00000  Uiso   1.00
Zn1823 Zn    0.83333   0.55104   0.83333   0.00000  Uiso   1.00
Zn1824 Zn    0.83333   0.44896   0.83333   0.00000  Uiso   1.00
Br1825 Br    0.20813   0.71810   0.93082   0.00000  Uiso   1.00
Br1826 Br    0.10813   0.94412   0.75228   0.00000  Uiso   1.00
Br1827 Br    0.11856   0.71826   0.74206   0.00000  Uiso   1.00
Br1828 Br    0.22320   0.94568   0.91682   0.00000  Uiso   1.00
C1829  C     0.08689   0.83342   0.83307   0.00000  Uiso   1.00
C1830  C     0.02221   0.87168   0.84986   0.00000  Uiso   1.00
C1831  C     0.29115   0.83438   0.83029   0.00000  Uiso   1.00
C1832  C     0.04283   0.83464   0.83121   0.00000  Uiso   1.00
C1833  C     0.18625   0.69021   0.87096   0.00000  Uiso   1.00
C1834  C     0.14410   0.97570   0.79848   0.00000  Uiso   1.00
C1835  C     0.14590   0.68981   0.79689   0.00000  Uiso   1.00
C1836  C     0.18867   0.97624   0.86880   0.00000  Uiso   1.00
C1837  C     0.04583   0.79674   0.72895   0.00000  Uiso   1.00
C1838  C     0.03474   0.76826   0.68303   0.00000  Uiso   1.00
C1839  C     0.05201   0.78816   0.96805   0.00000  Uiso   1.00
C1840  C     0.24668   0.83362   0.83244   0.00000  Uiso   1.00
C1841  C     0.28856   0.93371   0.79590   0.00000  Uiso   1.00
C1842  C     0.32870   0.95016   0.77225   0.00000  Uiso   1.00
C1843  C     0.32042   0.98302   0.72952   0.00000  Uiso   1.00
C1844  C     0.28886   0.73226   0.85342   0.00000  Uiso   1.00
C1845  C     0.32874   0.71499   0.87753   0.00000  Uiso   1.00
C1846  C     0.31996   0.69430   0.92879   0.00000  Uiso   1.00
C1847  C     0.03624   0.91201   0.92082   0.00000  Uiso   1.00
C1848  C     0.06213   0.95039   0.94276   0.00000  Uiso   1.00
C1849  C     0.10726   0.93897   0.94812   0.00000  Uiso   1.00
C1850  C     0.16678   0.83339   0.73975   0.00000  Uiso   1.00
C1851  C     0.16675   0.83328   0.92691   0.00000  Uiso   1.00
C1852  C     0.16689   0.83341   0.68853   0.00000  Uiso   1.00
C1853  C     0.16691   0.83324   0.97815   0.00000  Uiso   1.00
C1854  C     0.02072   0.80007   0.80779   0.00000  Uiso   1.00
C1855  C     0.31345   0.87418   0.84079   0.00000  Uiso   1.00
C1856  C     0.31266   0.79589   0.81634   0.00000  Uiso   1.00
H1857  H     0.07900   0.80592   0.72886   0.00000  Uiso   1.00
H1858  H     0.01552   0.96647   0.80096   0.00000  Uiso   1.00
H1859  H     0.01206   0.92127   0.75721   0.00000  Uiso   1.00
H1860  H     0.30189   0.96676   0.69901   0.00000  Uiso   1.00
H1861  H     0.01672   0.99476   0.71419   0.00000  Uiso   1.00
H1862  H     0.30383   0.67908   0.74337   0.00000  Uiso   1.00
H1863  H     0.26793   0.70340   0.84624   0.00000  Uiso   1.00
H1864  H     0.27448   0.75398   0.88142   0.00000  Uiso   1.00
H1865  H     0.00958   0.69025   0.85298   0.00000  Uiso   1.00
H1866  H     0.01761   0.74277   0.88315   0.00000  Uiso   1.00
H1867  H     0.29928   0.71542   0.95069   0.00000  Uiso   1.00
H1868  H     0.02814   0.82830   0.72506   0.00000  Uiso   1.00
H1869  H     0.01539   0.69174   0.95133   0.00000  Uiso   1.00
H1870  H     0.30568   0.99414   0.92404   0.00000  Uiso   1.00
H1871  H     0.04404   0.88089   0.94134   0.00000  Uiso   1.00
H1872  H     0.00338   0.91943   0.92711   0.00000  Uiso   1.00
H1873  H     0.05966   0.97972   0.91750   0.00000  Uiso   1.00
H1874  H     0.05064   0.95892   0.98035   0.00000  Uiso   1.00
H1875  H     0.11133   0.90887   0.97190   0.00000  Uiso   1.00
H1876  H     0.12460   0.96722   0.96566   0.00000  Uiso   1.00
H1877  H     0.11938   0.93330   0.91037   0.00000  Uiso   1.00
H1878  H     0.04668   0.73422   0.68834   0.00000  Uiso   1.00
H1879  H     0.00074   0.76507   0.67941   0.00000  Uiso   1.00
H1880  H     0.07715   0.81278   0.97561   0.00000  Uiso   1.00
H1881  H     0.02712   0.80462   0.94605   0.00000  Uiso   1.00
H1882  H     0.06498   0.76139   0.94491   0.00000  Uiso   1.00
H1883  H     0.26773   0.96234   0.80009   0.00000  Uiso   1.00
H1884  H     0.27245   0.90998   0.76983   0.00000  Uiso   1.00
N1885  N     0.16667   0.95240   0.83333   0.00000  Uiso   1.00
N1886  N     0.16667   0.71427   0.83333   0.00000  Uiso   1.00
O1887  O     0.10559   0.87154   0.83333   0.00000  Uiso   1.00
O1888  O     0.29509   0.91526   0.84457   0.00000  Uiso   1.00
O1889  O     0.29411   0.75491   0.80710   0.00000  Uiso   1.00
O1890  O     0.04374   0.90821   0.86902   0.00000  Uiso   1.00
O1891  O     0.22774   0.79513   0.83334   0.00000  Uiso   1.00
O1892  O     0.22774   0.87154   0.83334   0.00000  Uiso   1.00
O1893  O     0.10559   0.79513   0.83333   0.00000  Uiso   1.00
O1894  O     0.16667   0.87155   0.76178   0.00000  Uiso   1.00
O1895  O     0.16666   0.79512   0.90489   0.00000  Uiso   1.00
O1896  O     0.16666   0.87155   0.90489   0.00000  Uiso   1.00
O1897  O     0.16667   0.79512   0.76178   0.00000  Uiso   1.00
O1898  O     0.03813   0.77209   0.77352   0.00000  Uiso   1.00
Zn1899 Zn    0.16667   0.88437   0.83333   0.00000  Uiso   1.00
Zn1900 Zn    0.16667   0.78229   0.83333   0.00000  Uiso   1.00
Br1901 Br    0.54146   0.71810   0.93082   0.00000  Uiso   1.00
Br1902 Br    0.44147   0.94412   0.75228   0.00000  Uiso   1.00
Br1903 Br    0.45189   0.71826   0.74206   0.00000  Uiso   1.00
Br1904 Br    0.55654   0.94568   0.91682   0.00000  Uiso   1.00
C1905  C     0.42023   0.83342   0.83307   0.00000  Uiso   1.00
C1906  C     0.35554   0.87168   0.84986   0.00000  Uiso   1.00
C1907  C     0.62448   0.83438   0.83029   0.00000  Uiso   1.00
C1908  C     0.37616   0.83464   0.83121   0.00000  Uiso   1.00
C1909  C     0.51959   0.69021   0.87096   0.00000  Uiso   1.00
C1910  C     0.47743   0.97570   0.79848   0.00000  Uiso   1.00
C1911  C     0.47923   0.68981   0.79689   0.00000  Uiso   1.00
C1912  C     0.52200   0.97624   0.86880   0.00000  Uiso   1.00
C1913  C     0.37916   0.79674   0.72895   0.00000  Uiso   1.00
C1914  C     0.36807   0.76826   0.68303   0.00000  Uiso   1.00
C1915  C     0.38535   0.78816   0.96805   0.00000  Uiso   1.00
C1916  C     0.58001   0.83362   0.83244   0.00000  Uiso   1.00
C1917  C     0.62190   0.93371   0.79590   0.00000  Uiso   1.00
C1918  C     0.66203   0.95016   0.77225   0.00000  Uiso   1.00
C1919  C     0.65375   0.98302   0.72952   0.00000  Uiso   1.00
C1920  C     0.62219   0.73226   0.85342   0.00000  Uiso   1.00
C1921  C     0.66207   0.71499   0.87753   0.00000  Uiso   1.00
C1922  C     0.65330   0.69430   0.92879   0.00000  Uiso   1.00
C1923  C     0.36957   0.91201   0.92082   0.00000  Uiso   1.00
C1924  C     0.39547   0.95039   0.94276   0.00000  Uiso   1.00
C1925  C     0.44060   0.93897   0.94812   0.00000  Uiso   1.00
C1926  C     0.50012   0.83339   0.73975   0.00000  Uiso   1.00
C1927  C     0.50008   0.83328   0.92691   0.00000  Uiso   1.00
C1928  C     0.50023   0.83341   0.68853   0.00000  Uiso   1.00
C1929  C     0.50024   0.83324   0.97815   0.00000  Uiso   1.00
C1930  C     0.35405   0.80007   0.80779   0.00000  Uiso   1.00
C1931  C     0.64679   0.87418   0.84079   0.00000  Uiso   1.00
C1932  C     0.64599   0.79589   0.81634   0.00000  Uiso   1.00
H1933  H     0.41233   0.80592   0.72886   0.00000  Uiso   1.00
H1934  H     0.34886   0.96647   0.80096   0.00000  Uiso   1.00
H1935  H     0.34539   0.92127   0.75721   0.00000  Uiso   1.00
H1936  H     0.63522   0.96676   0.69901   0.00000  Uiso   1.00
H1937  H     0.35006   0.99476   0.71419   0.00000  Uiso   1.00
H1938  H     0.63717   0.67908   0.74337   0.00000  Uiso   1.00
H1939  H     0.60126   0.70340   0.84624   0.00000  Uiso   1.00
H1940  H     0.60782   0.75398   0.88142   0.00000  Uiso   1.00
H1941  H     0.34292   0.69025   0.85298   0.00000  Uiso   1.00
H1942  H     0.35095   0.74277   0.88315   0.00000  Uiso   1.00
H1943  H     0.63261   0.71542   0.95069   0.00000  Uiso   1.00
H1944  H     0.36147   0.82830   0.72506   0.00000  Uiso   1.00
H1945  H     0.34872   0.69174   0.95133   0.00000  Uiso   1.00
H1946  H     0.63901   0.99414   0.92404   0.00000  Uiso   1.00
H1947  H     0.37737   0.88089   0.94134   0.00000  Uiso   1.00
H1948  H     0.33671   0.91943   0.92711   0.00000  Uiso   1.00
H1949  H     0.39300   0.97972   0.91750   0.00000  Uiso   1.00
H1950  H     0.38397   0.95892   0.98035   0.00000  Uiso   1.00
H1951  H     0.44466   0.90887   0.97190   0.00000  Uiso   1.00
H1952  H     0.45793   0.96722   0.96566   0.00000  Uiso   1.00
H1953  H     0.45271   0.93330   0.91037   0.00000  Uiso   1.00
H1954  H     0.38002   0.73422   0.68834   0.00000  Uiso   1.00
H1955  H     0.33407   0.76507   0.67941   0.00000  Uiso   1.00
H1956  H     0.41049   0.81278   0.97561   0.00000  Uiso   1.00
H1957  H     0.36045   0.80462   0.94605   0.00000  Uiso   1.00
H1958  H     0.39832   0.76139   0.94491   0.00000  Uiso   1.00
H1959  H     0.60106   0.96234   0.80009   0.00000  Uiso   1.00
H1960  H     0.60578   0.90998   0.76983   0.00000  Uiso   1.00
N1961  N     0.50000   0.95240   0.83333   0.00000  Uiso   1.00
N1962  N     0.50000   0.71427   0.83333   0.00000  Uiso   1.00
O1963  O     0.43892   0.87154   0.83333   0.00000  Uiso   1.00
O1964  O     0.62842   0.91526   0.84457   0.00000  Uiso   1.00
O1965  O     0.62744   0.75491   0.80710   0.00000  Uiso   1.00
O1966  O     0.37707   0.90821   0.86902   0.00000  Uiso   1.00
O1967  O     0.56108   0.79513   0.83334   0.00000  Uiso   1.00
O1968  O     0.56108   0.87154   0.83334   0.00000  Uiso   1.00
O1969  O     0.43892   0.79513   0.83333   0.00000  Uiso   1.00
O1970  O     0.50000   0.87155   0.76178   0.00000  Uiso   1.00
O1971  O     0.50000   0.79512   0.90489   0.00000  Uiso   1.00
O1972  O     0.50000   0.87155   0.90489   0.00000  Uiso   1.00
O1973  O     0.50000   0.79512   0.76178   0.00000  Uiso   1.00
O1974  O     0.37147   0.77209   0.77352   0.00000  Uiso   1.00
Zn1975 Zn    0.50000   0.88437   0.83333   0.00000  Uiso   1.00
Zn1976 Zn    0.50000   0.78229   0.83333   0.00000  Uiso   1.00
Br1977 Br    0.87480   0.71810   0.93082   0.00000  Uiso   1.00
Br1978 Br    0.77480   0.94412   0.75228   0.00000  Uiso   1.00
Br1979 Br    0.78522   0.71826   0.74206   0.00000  Uiso   1.00
Br1980 Br    0.88987   0.94568   0.91682   0.00000  Uiso   1.00
C1981  C     0.75356   0.83342   0.83307   0.00000  Uiso   1.00
C1982  C     0.68887   0.87168   0.84986   0.00000  Uiso   1.00
C1983  C     0.95782   0.83438   0.83029   0.00000  Uiso   1.00
C1984  C     0.70950   0.83464   0.83121   0.00000  Uiso   1.00
C1985  C     0.85292   0.69021   0.87096   0.00000  Uiso   1.00
C1986  C     0.81076   0.97570   0.79848   0.00000  Uiso   1.00
C1987  C     0.81256   0.68981   0.79689   0.00000  Uiso   1.00
C1988  C     0.85534   0.97624   0.86880   0.00000  Uiso   1.00
C1989  C     0.71249   0.79674   0.72895   0.00000  Uiso   1.00
C1990  C     0.70141   0.76826   0.68303   0.00000  Uiso   1.00
C1991  C     0.71868   0.78816   0.96805   0.00000  Uiso   1.00
C1992  C     0.91334   0.83362   0.83244   0.00000  Uiso   1.00
C1993  C     0.95523   0.93371   0.79590   0.00000  Uiso   1.00
C1994  C     0.99537   0.95016   0.77225   0.00000  Uiso   1.00
C1995  C     0.98708   0.98302   0.72952   0.00000  Uiso   1.00
C1996  C     0.95552   0.73226   0.85342   0.00000  Uiso   1.00
C1997  C     0.99540   0.71499   0.87753   0.00000  Uiso   1.00
C1998  C     0.98663   0.69430   0.92879   0.00000  Uiso   1.00
C1999  C     0.70290   0.91201   0.92082   0.00000  Uiso   1.00
C2000  C     0.72880   0.95039   0.94276   0.00000  Uiso   1.00
C2001  C     0.77393   0.93897   0.94812   0.00000  Uiso   1.00
C2002  C     0.83345   0.83339   0.73975   0.00000  Uiso   1.00
C2003  C     0.83341   0.83328   0.92691   0.00000  Uiso   1.00
C2004  C     0.83356   0.83341   0.68853   0.00000  Uiso   1.00
C2005  C     0.83357   0.83324   0.97815   0.00000  Uiso   1.00
C2006  C     0.68739   0.80007   0.80779   0.00000  Uiso   1.00
C2007  C     0.98012   0.87418   0.84079   0.00000  Uiso   1.00
C2008  C     0.97932   0.79589   0.81634   0.00000  Uiso   1.00
H2009  H     0.74567   0.80592   0.72886   0.00000  Uiso   1.00
H2010  H     0.68219   0.96647   0.80096   0.00000  Uiso   1.00
H2011  H     0.67872   0.92127   0.75721   0.00000  Uiso   1.00
H2012  H     0.96856   0.96676   0.69901   0.00000  Uiso   1.00
H2013  H     0.68339   0.99476   0.71419   0.00000  Uiso   1.00
H2014  H     0.97050   0.67908   0.74337   0.00000  Uiso   1.00
H2015  H     0.93460   0.70340   0.84624   0.00000  Uiso   1.00
H2016  H     0.94115   0.75398   0.88142   0.00000  Uiso   1.00
H2017  H     0.67625   0.69025   0.85298   0.00000  Uiso   1.00
H2018  H     0.68428   0.74277   0.88315   0.00000  Uiso   1.00
H2019  H     0.96594   0.71542   0.95069   0.00000  Uiso   1.00
H2020  H     0.69480   0.82830   0.72506   0.00000  Uiso   1.00
H2021  H     0.68205   0.69174   0.95133   0.00000  Uiso   1.00
H2022  H     0.97235   0.99414   0.92404   0.00000  Uiso   1.00
H2023  H     0.71070   0.88089   0.94134   0.00000  Uiso   1.00
H2024  H     0.67005   0.91943   0.92711   0.00000  Uiso   1.00
H2025  H     0.72633   0.97972   0.91750   0.00000  Uiso   1.00
H2026  H     0.71731   0.95892   0.98035   0.00000  Uiso   1.00
H2027  H     0.77799   0.90887   0.97190   0.00000  Uiso   1.00
H2028  H     0.79127   0.96722   0.96566   0.00000  Uiso   1.00
H2029  H     0.78605   0.93330   0.91037   0.00000  Uiso   1.00
H2030  H     0.71335   0.73422   0.68834   0.00000  Uiso   1.00
H2031  H     0.66740   0.76507   0.67941   0.00000  Uiso   1.00
H2032  H     0.74382   0.81278   0.97561   0.00000  Uiso   1.00
H2033  H     0.69378   0.80462   0.94605   0.00000  Uiso   1.00
H2034  H     0.73165   0.76139   0.94491   0.00000  Uiso   1.00
H2035  H     0.93439   0.96234   0.80009   0.00000  Uiso   1.00
H2036  H     0.93911   0.90998   0.76983   0.00000  Uiso   1.00
N2037  N     0.83333   0.95240   0.83333   0.00000  Uiso   1.00
N2038  N     0.83333   0.71427   0.83333   0.00000  Uiso   1.00
O2039  O     0.77226   0.87154   0.83333   0.00000  Uiso   1.00
O2040  O     0.96176   0.91526   0.84457   0.00000  Uiso   1.00
O2041  O     0.96077   0.75491   0.80710   0.00000  Uiso   1.00
O2042  O     0.71041   0.90821   0.86902   0.00000  Uiso   1.00
O2043  O     0.89441   0.79513   0.83334   0.00000  Uiso   1.00
O2044  O     0.89441   0.87154   0.83334   0.00000  Uiso   1.00
O2045  O     0.77226   0.79513   0.83333   0.00000  Uiso   1.00
O2046  O     0.83334   0.87155   0.76178   0.00000  Uiso   1.00
O2047  O     0.83333   0.79512   0.90489   0.00000  Uiso   1.00
O2048  O     0.83333   0.87155   0.90489   0.00000  Uiso   1.00
O2049  O     0.83334   0.79512   0.76178   0.00000  Uiso   1.00
O2050  O     0.70480   0.77209   0.77352   0.00000  Uiso   1.00
Zn2051 Zn    0.83333   0.88437   0.83333   0.00000  Uiso   1.00
Zn2052 Zn    0.83333   0.78229   0.83333   0.00000  Uiso   1.00
loop_
_geom_bond_atom_site_label_1
_geom_bond_atom_site_label_2
_geom_bond_distance
_geom_bond_site_symmetry_2
_ccdc_geom_bond_type
Br1    C9      1.921   .     S
Br2    C10     1.922   .     S
Br3    C11     1.900   .     S
Br4    C12     1.923   .     S
C5     C8      1.435   .     S
C5     O69     1.309   .     A
C5     O63     1.289   .     A
C6     O66     1.386   .     S
C6     C8      1.406   .     A
C6     C183    1.388   1_455 S
C7     C31     1.415   .     A
C7     C16     1.450   .     S
C7     C32     1.416   .     A
C8     C30     1.396   .     A
C9     N62     1.383   .     A
C9     C468    1.426   1_545 S
C10    N61     1.368   .     A
C10    C239    1.426   .     S
C11    N62     1.378   .     A
C11    C466    1.426   1_545 S
C12    N61     1.370   .     A
C12    C237    1.426   .     S
C13    H33     1.110   .     S
C13    O74     1.422   .     S
C13    C14     1.529   .     S
C13    H44     1.120   .     S
C14    H54     1.107   .     S
C14    H55     1.111   .     S
C14    C1383   1.533   1_554 S
C15    H56     1.110   .     S
C15    H57     1.110   .     S
C15    H58     1.110   .     S
C15    C698    1.533   .     S
C16    O67     1.303   .     A
C16    O68     1.304   .     A
C17    H59     1.111   .     S
C17    O64     1.421   .     S
C17    H60     1.114   .     S
C17    C18     1.538   .     S
C18    C19     1.526   .     S
C18    H110    1.107   .     S
C18    H111    1.112   .     S
C19    H36     1.111   .     S
C19    H113    1.109   .     S
C19    H266    1.110   .     S
C20    H40     1.109   .     S
C20    O65     1.420   .     S
C20    H39     1.109   .     S
C20    C21     1.531   .     S
C21    C22     1.530   .     S
C21    H117    1.105   .     S
C21    H118    1.104   .     S
C22    H43     1.109   .     S
C22    H121    1.104   .     S
C22    H502    1.109   1_545 S
C23    C24     1.528   .     S
C23    H48     1.112   .     S
C23    H47     1.111   .     S
C23    O66     1.413   .     S
C24    H49     1.109   .     S
C24    H50     1.110   .     S
C24    C25     1.517   .     S
C25    H51     1.110   .     S
C25    H52     1.111   .     S
C25    H53     1.104   .     S
C26    C28     1.365   .     S
C26    O70     1.290   .     A
C26    O73     1.289   .     A
C27    C29     1.365   .     S
C27    O72     1.289   .     A
C27    O71     1.290   .     A
C28    C1397   1.165   1_554 S
C29    C712    1.165   .     S
C30    O74     1.380   .     S
C30    C184    1.375   1_455 S
C31    O64     1.384   .     S
C31    C82     1.388   .     S
C32    O65     1.383   .     S
C32    C106    1.375   .     S
H34    C170    1.107   1_455 S
H35    C170    1.112   1_455 S
H37    C171    1.109   1_455 S
H38    C475    1.110   1_545 S
H41    C173    1.105   1_455 S
H42    C173    1.104   1_455 S
H45    C174    1.104   1_455 S
H46    C250    1.109   .     S
N61    Zn75    2.044   .     S
N62    Zn76    2.044   .     S
O63    Zn75    2.019   .     S
O67    Zn76    2.019   .     S
O68    Zn75    2.030   .     S
O69    Zn76    2.030   .     S
O70    Zn75    1.946   .     S
O71    Zn76    1.946   .     S
O72    Zn75    1.944   .     S
O73    Zn76    1.944   .     S
Br77   C85     1.921   .     S
Br78   C86     1.922   .     S
Br79   C87     1.900   .     S
Br80   C88     1.923   .     S
C81    C84     1.435   .     S
C81    O145    1.309   .     A
C81    O139    1.289   .     A
C82    O142    1.386   .     S
C82    C84     1.406   .     A
C83    C107    1.415   .     A
C83    C92     1.450   .     S
C83    C108    1.416   .     A
C84    C106    1.396   .     A
C85    N138    1.383   .     A
C85    C544    1.426   1_545 S
C86    N137    1.368   .     A
C86    C315    1.426   .     S
C87    N138    1.378   .     A
C87    C542    1.426   1_545 S
C88    N137    1.370   .     A
C88    C313    1.426   .     S
C89    H109    1.110   .     S
C89    O150    1.422   .     S
C89    C90     1.529   .     S
C89    H120    1.120   .     S
C90    H130    1.107   .     S
C90    H131    1.111   .     S
C90    C1459   1.533   1_554 S
C91    H132    1.110   .     S
C91    H133    1.110   .     S
C91    H134    1.110   .     S
C91    C774    1.533   .     S
C92    O143    1.303   .     A
C92    O144    1.304   .     A
C93    H135    1.111   .     S
C93    O140    1.421   .     S
C93    H136    1.114   .     S
C93    C94     1.538   .     S
C94    C95     1.526   .     S
C94    H186    1.107   .     S
C94    H187    1.112   .     S
C95    H112    1.111   .     S
C95    H189    1.109   .     S
C95    H342    1.110   .     S
C96    H116    1.109   .     S
C96    O141    1.420   .     S
C96    H115    1.109   .     S
C96    C97     1.531   .     S
C97    C98     1.530   .     S
C97    H193    1.105   .     S
C97    H194    1.104   .     S
C98    H119    1.109   .     S
C98    H197    1.104   .     S
C98    H578    1.109   1_545 S
C99    C100    1.528   .     S
C99    H124    1.112   .     S
C99    H123    1.111   .     S
C99    O142    1.413   .     S
C100   H125    1.109   .     S
C100   H126    1.110   .     S
C100   C101    1.517   .     S
C101   H127    1.110   .     S
C101   H128    1.111   .     S
C101   H129    1.104   .     S
C102   C104    1.365   .     S
C102   O146    1.290   .     A
C102   O149    1.289   .     A
C103   C105    1.365   .     S
C103   O148    1.289   .     A
C103   O147    1.290   .     A
C104   C1473   1.165   1_554 S
C105   C788    1.165   .     S
C106   O150    1.380   .     S
C107   O140    1.384   .     S
C107   C158    1.388   .     S
C108   O141    1.383   .     S
C108   C182    1.375   .     S
H114   C551    1.110   1_545 S
H122   C326    1.109   .     S
N137   Zn151   2.044   .     S
N138   Zn152   2.044   .     S
O139   Zn151   2.019   .     S
O143   Zn152   2.019   .     S
O144   Zn151   2.030   .     S
O145   Zn152   2.030   .     S
O146   Zn151   1.946   .     S
O147   Zn152   1.946   .     S
O148   Zn151   1.944   .     S
O149   Zn152   1.944   .     S
Br153  C161    1.921   .     S
Br154  C162    1.922   .     S
Br155  C163    1.900   .     S
Br156  C164    1.923   .     S
C157   C160    1.435   .     S
C157   O221    1.309   .     A
C157   O215    1.289   .     A
C158   O218    1.386   .     S
C158   C160    1.406   .     A
C159   C183    1.415   .     A
C159   C168    1.450   .     S
C159   C184    1.416   .     A
C160   C182    1.396   .     A
C161   N214    1.383   .     A
C161   C620    1.426   1_545 S
C162   N213    1.368   .     A
C162   C391    1.426   .     S
C163   N214    1.378   .     A
C163   C618    1.426   1_545 S
C164   N213    1.370   .     A
C164   C389    1.426   .     S
C165   H185    1.110   .     S
C165   O226    1.422   .     S
C165   C166    1.529   .     S
C165   H196    1.120   .     S
C166   H206    1.107   .     S
C166   H207    1.111   .     S
C166   C1535   1.533   1_554 S
C167   H208    1.110   .     S
C167   H209    1.110   .     S
C167   H210    1.110   .     S
C167   C850    1.533   .     S
C168   O219    1.303   .     A
C168   O220    1.304   .     A
C169   H211    1.111   .     S
C169   O216    1.421   .     S
C169   H212    1.114   .     S
C169   C170    1.538   .     S
C170   C171    1.526   .     S
C170   H34     1.107   1_655 S
C170   H35     1.112   1_655 S
C171   H188    1.111   .     S
C171   H37     1.109   1_655 S
C171   H418    1.110   .     S
C172   H192    1.109   .     S
C172   O217    1.420   .     S
C172   H191    1.109   .     S
C172   C173    1.531   .     S
C173   C174    1.530   .     S
C173   H41     1.105   1_655 S
C173   H42     1.104   1_655 S
C174   H195    1.109   .     S
C174   H45     1.104   1_655 S
C174   H654    1.109   1_545 S
C175   C176    1.528   .     S
C175   H200    1.112   .     S
C175   H199    1.111   .     S
C175   O218    1.413   .     S
C176   H201    1.109   .     S
C176   H202    1.110   .     S
C176   C177    1.517   .     S
C177   H203    1.110   .     S
C177   H204    1.111   .     S
C177   H205    1.104   .     S
C178   C180    1.365   .     S
C178   O222    1.290   .     A
C178   O225    1.289   .     A
C179   C181    1.365   .     S
C179   O224    1.289   .     A
C179   O223    1.290   .     A
C180   C1549   1.165   1_554 S
C181   C864    1.165   .     S
C182   O226    1.380   .     S
C183   O216    1.384   .     S
C183   C6      1.388   1_655 S
C184   O217    1.383   .     S
C184   C30     1.375   1_655 S
H190   C627    1.110   1_545 S
H198   C402    1.109   .     S
N213   Zn227   2.044   .     S
N214   Zn228   2.044   .     S
O215   Zn227   2.019   .     S
O219   Zn228   2.019   .     S
O220   Zn227   2.030   .     S
O221   Zn228   2.030   .     S
O222   Zn227   1.946   .     S
O223   Zn228   1.946   .     S
O224   Zn227   1.944   .     S
O225   Zn228   1.944   .     S
Br229  C237    1.921   .     S
Br230  C238    1.922   .     S
Br231  C239    1.900   .     S
Br232  C240    1.923   .     S
C233   C236    1.435   .     S
C233   O297    1.309   .     A
C233   O291    1.289   .     A
C234   O294    1.386   .     S
C234   C236    1.406   .     A
C234   C411    1.388   1_455 S
C235   C259    1.415   .     A
C235   C244    1.450   .     S
C235   C260    1.416   .     A
C236   C258    1.396   .     A
C237   N290    1.383   .     A
C238   N289    1.368   .     A
C238   C467    1.426   .     S
C239   N290    1.378   .     A
C240   N289    1.370   .     A
C240   C465    1.426   .     S
C241   H261    1.110   .     S
C241   O302    1.422   .     S
C241   C242    1.529   .     S
C241   H272    1.120   .     S
C242   H282    1.107   .     S
C242   H283    1.111   .     S
C242   C1611   1.533   1_554 S
C243   H284    1.110   .     S
C243   H285    1.110   .     S
C243   H286    1.110   .     S
C243   C926    1.533   .     S
C244   O295    1.303   .     A
C244   O296    1.304   .     A
C245   H287    1.111   .     S
C245   O292    1.421   .     S
C245   H288    1.114   .     S
C245   C246    1.538   .     S
C246   C247    1.526   .     S
C246   H338    1.107   .     S
C246   H339    1.112   .     S
C247   H264    1.111   .     S
C247   H341    1.109   .     S
C247   H494    1.110   .     S
C248   H268    1.109   .     S
C248   O293    1.420   .     S
C248   H267    1.109   .     S
C248   C249    1.531   .     S
C249   C250    1.530   .     S
C249   H345    1.105   .     S
C249   H346    1.104   .     S
C250   H271    1.109   .     S
C250   H349    1.104   .     S
C251   C252    1.528   .     S
C251   H276    1.112   .     S
C251   H275    1.111   .     S
C251   O294    1.413   .     S
C252   H277    1.109   .     S
C252   H278    1.110   .     S
C252   C253    1.517   .     S
C253   H279    1.110   .     S
C253   H280    1.111   .     S
C253   H281    1.104   .     S
C254   C256    1.365   .     S
C254   O298    1.290   .     A
C254   O301    1.289   .     A
C255   C257    1.365   .     S
C255   O300    1.289   .     A
C255   O299    1.290   .     A
C256   C1625   1.165   1_554 S
C257   C940    1.165   .     S
C258   O302    1.380   .     S
C258   C412    1.375   1_455 S
C259   O292    1.384   .     S
C259   C310    1.388   .     S
C260   O293    1.383   .     S
C260   C334    1.375   .     S
H262   C398    1.107   1_455 S
H263   C398    1.112   1_455 S
H265   C399    1.109   1_455 S
H269   C401    1.105   1_455 S
H270   C401    1.104   1_455 S
H273   C402    1.104   1_455 S
H274   C478    1.109   .     S
N289   Zn303   2.044   .     S
N290   Zn304   2.044   .     S
O291   Zn303   2.019   .     S
O295   Zn304   2.019   .     S
O296   Zn303   2.030   .     S
O297   Zn304   2.030   .     S
O298   Zn303   1.946   .     S
O299   Zn304   1.946   .     S
O300   Zn303   1.944   .     S
O301   Zn304   1.944   .     S
Br305  C313    1.921   .     S
Br306  C314    1.922   .     S
Br307  C315    1.900   .     S
Br308  C316    1.923   .     S
C309   C312    1.435   .     S
C309   O373    1.309   .     A
C309   O367    1.289   .     A
C310   O370    1.386   .     S
C310   C312    1.406   .     A
C311   C335    1.415   .     A
C311   C320    1.450   .     S
C311   C336    1.416   .     A
C312   C334    1.396   .     A
C313   N366    1.383   .     A
C314   N365    1.368   .     A
C314   C543    1.426   .     S
C315   N366    1.378   .     A
C316   N365    1.370   .     A
C316   C541    1.426   .     S
C317   H337    1.110   .     S
C317   O378    1.422   .     S
C317   C318    1.529   .     S
C317   H348    1.120   .     S
C318   H358    1.107   .     S
C318   H359    1.111   .     S
C318   C1687   1.533   1_554 S
C319   H360    1.110   .     S
C319   H361    1.110   .     S
C319   H362    1.110   .     S
C319   C1002   1.533   .     S
C320   O371    1.303   .     A
C320   O372    1.304   .     A
C321   H363    1.111   .     S
C321   O368    1.421   .     S
C321   H364    1.114   .     S
C321   C322    1.538   .     S
C322   C323    1.526   .     S
C322   H414    1.107   .     S
C322   H415    1.112   .     S
C323   H340    1.111   .     S
C323   H417    1.109   .     S
C323   H570    1.110   .     S
C324   H344    1.109   .     S
C324   O369    1.420   .     S
C324   H343    1.109   .     S
C324   C325    1.531   .     S
C325   C326    1.530   .     S
C325   H421    1.105   .     S
C325   H422    1.104   .     S
C326   H347    1.109   .     S
C326   H425    1.104   .     S
C327   C328    1.528   .     S
C327   H352    1.112   .     S
C327   H351    1.111   .     S
C327   O370    1.413   .     S
C328   H353    1.109   .     S
C328   H354    1.110   .     S
C328   C329    1.517   .     S
C329   H355    1.110   .     S
C329   H356    1.111   .     S
C329   H357    1.104   .     S
C330   C332    1.365   .     S
C330   O374    1.290   .     A
C330   O377    1.289   .     A
C331   C333    1.365   .     S
C331   O376    1.289   .     A
C331   O375    1.290   .     A
C332   C1701   1.165   1_554 S
C333   C1016   1.165   .     S
C334   O378    1.380   .     S
C335   O368    1.384   .     S
C335   C386    1.388   .     S
C336   O369    1.383   .     S
C336   C410    1.375   .     S
H350   C554    1.109   .     S
N365   Zn379   2.044   .     S
N366   Zn380   2.044   .     S
O367   Zn379   2.019   .     S
O371   Zn380   2.019   .     S
O372   Zn379   2.030   .     S
O373   Zn380   2.030   .     S
O374   Zn379   1.946   .     S
O375   Zn380   1.946   .     S
O376   Zn379   1.944   .     S
O377   Zn380   1.944   .     S
Br381  C389    1.921   .     S
Br382  C390    1.922   .     S
Br383  C391    1.900   .     S
Br384  C392    1.923   .     S
C385   C388    1.435   .     S
C385   O449    1.309   .     A
C385   O443    1.289   .     A
C386   O446    1.386   .     S
C386   C388    1.406   .     A
C387   C411    1.415   .     A
C387   C396    1.450   .     S
C387   C412    1.416   .     A
C388   C410    1.396   .     A
C389   N442    1.383   .     A
C390   N441    1.368   .     A
C390   C619    1.426   .     S
C391   N442    1.378   .     A
C392   N441    1.370   .     A
C392   C617    1.426   .     S
C393   H413    1.110   .     S
C393   O454    1.422   .     S
C393   C394    1.529   .     S
C393   H424    1.120   .     S
C394   H434    1.107   .     S
C394   H435    1.111   .     S
C394   C1763   1.533   1_554 S
C395   H436    1.110   .     S
C395   H437    1.110   .     S
C395   H438    1.110   .     S
C395   C1078   1.533   .     S
C396   O447    1.303   .     A
C396   O448    1.304   .     A
C397   H439    1.111   .     S
C397   O444    1.421   .     S
C397   H440    1.114   .     S
C397   C398    1.538   .     S
C398   C399    1.526   .     S
C398   H262    1.107   1_655 S
C398   H263    1.112   1_655 S
C399   H416    1.111   .     S
C399   H265    1.109   1_655 S
C399   H646    1.110   .     S
C400   H420    1.109   .     S
C400   O445    1.420   .     S
C400   H419    1.109   .     S
C400   C401    1.531   .     S
C401   C402    1.530   .     S
C401   H269    1.105   1_655 S
C401   H270    1.104   1_655 S
C402   H423    1.109   .     S
C402   H273    1.104   1_655 S
C403   C404    1.528   .     S
C403   H428    1.112   .     S
C403   H427    1.111   .     S
C403   O446    1.413   .     S
C404   H429    1.109   .     S
C404   H430    1.110   .     S
C404   C405    1.517   .     S
C405   H431    1.110   .     S
C405   H432    1.111   .     S
C405   H433    1.104   .     S
C406   C408    1.365   .     S
C406   O450    1.290   .     A
C406   O453    1.289   .     A
C407   C409    1.365   .     S
C407   O452    1.289   .     A
C407   O451    1.290   .     A
C408   C1777   1.165   1_554 S
C409   C1092   1.165   .     S
C410   O454    1.380   .     S
C411   O444    1.384   .     S
C411   C234    1.388   1_655 S
C412   O445    1.383   .     S
C412   C258    1.375   1_655 S
H426   C630    1.109   .     S
N441   Zn455   2.044   .     S
N442   Zn456   2.044   .     S
O443   Zn455   2.019   .     S
O447   Zn456   2.019   .     S
O448   Zn455   2.030   .     S
O449   Zn456   2.030   .     S
O450   Zn455   1.946   .     S
O451   Zn456   1.946   .     S
O452   Zn455   1.944   .     S
O453   Zn456   1.944   .     S
Br457  C465    1.921   .     S
Br458  C466    1.922   .     S
Br459  C467    1.900   .     S
Br460  C468    1.923   .     S
C461   C464    1.435   .     S
C461   O525    1.309   .     A
C461   O519    1.289   .     A
C462   O522    1.386   .     S
C462   C464    1.406   .     A
C462   C639    1.388   1_455 S
C463   C487    1.415   .     A
C463   C472    1.450   .     S
C463   C488    1.416   .     A
C464   C486    1.396   .     A
C465   N518    1.383   .     A
C466   N517    1.368   .     A
C466   C11     1.426   1_565 S
C467   N518    1.378   .     A
C468   N517    1.370   .     A
C468   C9      1.426   1_565 S
C469   H489    1.110   .     S
C469   O530    1.422   .     S
C469   C470    1.529   .     S
C469   H500    1.120   .     S
C470   H510    1.107   .     S
C470   H511    1.111   .     S
C470   C1839   1.533   1_554 S
C471   H512    1.110   .     S
C471   H513    1.110   .     S
C471   H514    1.110   .     S
C471   C1154   1.533   .     S
C472   O523    1.303   .     A
C472   O524    1.304   .     A
C473   H515    1.111   .     S
C473   O520    1.421   .     S
C473   H516    1.114   .     S
C473   C474    1.538   .     S
C474   C475    1.526   .     S
C474   H566    1.107   .     S
C474   H567    1.112   .     S
C475   H492    1.111   .     S
C475   H569    1.109   .     S
C475   H38     1.110   1_565 S
C476   H496    1.109   .     S
C476   O521    1.420   .     S
C476   H495    1.109   .     S
C476   C477    1.531   .     S
C477   C478    1.530   .     S
C477   H573    1.105   .     S
C477   H574    1.104   .     S
C478   H499    1.109   .     S
C478   H577    1.104   .     S
C479   C480    1.528   .     S
C479   H504    1.112   .     S
C479   H503    1.111   .     S
C479   O522    1.413   .     S
C480   H505    1.109   .     S
C480   H506    1.110   .     S
C480   C481    1.517   .     S
C481   H507    1.110   .     S
C481   H508    1.111   .     S
C481   H509    1.104   .     S
C482   C484    1.365   .     S
C482   O526    1.290   .     A
C482   O529    1.289   .     A
C483   C485    1.365   .     S
C483   O528    1.289   .     A
C483   O527    1.290   .     A
C484   C1853   1.165   1_554 S
C485   C1168   1.165   .     S
C486   O530    1.380   .     S
C486   C640    1.375   1_455 S
C487   O520    1.384   .     S
C487   C538    1.388   .     S
C488   O521    1.383   .     S
C488   C562    1.375   .     S
H490   C626    1.107   1_455 S
H491   C626    1.112   1_455 S
H493   C627    1.109   1_455 S
H497   C629    1.105   1_455 S
H498   C629    1.104   1_455 S
H501   C630    1.104   1_455 S
H502   C22     1.109   1_565 S
N517   Zn531   2.044   .     S
N518   Zn532   2.044   .     S
O519   Zn531   2.019   .     S
O523   Zn532   2.019   .     S
O524   Zn531   2.030   .     S
O525   Zn532   2.030   .     S
O526   Zn531   1.946   .     S
O527   Zn532   1.946   .     S
O528   Zn531   1.944   .     S
O529   Zn532   1.944   .     S
Br533  C541    1.921   .     S
Br534  C542    1.922   .     S
Br535  C543    1.900   .     S
Br536  C544    1.923   .     S
C537   C540    1.435   .     S
C537   O601    1.309   .     A
C537   O595    1.289   .     A
C538   O598    1.386   .     S
C538   C540    1.406   .     A
C539   C563    1.415   .     A
C539   C548    1.450   .     S
C539   C564    1.416   .     A
C540   C562    1.396   .     A
C541   N594    1.383   .     A
C542   N593    1.368   .     A
C542   C87     1.426   1_565 S
C543   N594    1.378   .     A
C544   N593    1.370   .     A
C544   C85     1.426   1_565 S
C545   H565    1.110   .     S
C545   O606    1.422   .     S
C545   C546    1.529   .     S
C545   H576    1.120   .     S
C546   H586    1.107   .     S
C546   H587    1.111   .     S
C546   C1915   1.533   1_554 S
C547   H588    1.110   .     S
C547   H589    1.110   .     S
C547   H590    1.110   .     S
C547   C1230   1.533   .     S
C548   O599    1.303   .     A
C548   O600    1.304   .     A
C549   H591    1.111   .     S
C549   O596    1.421   .     S
C549   H592    1.114   .     S
C549   C550    1.538   .     S
C550   C551    1.526   .     S
C550   H642    1.107   .     S
C550   H643    1.112   .     S
C551   H568    1.111   .     S
C551   H645    1.109   .     S
C551   H114    1.110   1_565 S
C552   H572    1.109   .     S
C552   O597    1.420   .     S
C552   H571    1.109   .     S
C552   C553    1.531   .     S
C553   C554    1.530   .     S
C553   H649    1.105   .     S
C553   H650    1.104   .     S
C554   H575    1.109   .     S
C554   H653    1.104   .     S
C555   C556    1.528   .     S
C555   H580    1.112   .     S
C555   H579    1.111   .     S
C555   O598    1.413   .     S
C556   H581    1.109   .     S
C556   H582    1.110   .     S
C556   C557    1.517   .     S
C557   H583    1.110   .     S
C557   H584    1.111   .     S
C557   H585    1.104   .     S
C558   C560    1.365   .     S
C558   O602    1.290   .     A
C558   O605    1.289   .     A
C559   C561    1.365   .     S
C559   O604    1.289   .     A
C559   O603    1.290   .     A
C560   C1929   1.165   1_554 S
C561   C1244   1.165   .     S
C562   O606    1.380   .     S
C563   O596    1.384   .     S
C563   C614    1.388   .     S
C564   O597    1.383   .     S
C564   C638    1.375   .     S
H578   C98     1.109   1_565 S
N593   Zn607   2.044   .     S
N594   Zn608   2.044   .     S
O595   Zn607   2.019   .     S
O599   Zn608   2.019   .     S
O600   Zn607   2.030   .     S
O601   Zn608   2.030   .     S
O602   Zn607   1.946   .     S
O603   Zn608   1.946   .     S
O604   Zn607   1.944   .     S
O605   Zn608   1.944   .     S
Br609  C617    1.921   .     S
Br610  C618    1.922   .     S
Br611  C619    1.900   .     S
Br612  C620    1.923   .     S
C613   C616    1.435   .     S
C613   O677    1.309   .     A
C613   O671    1.289   .     A
C614   O674    1.386   .     S
C614   C616    1.406   .     A
C615   C639    1.415   .     A
C615   C624    1.450   .     S
C615   C640    1.416   .     A
C616   C638    1.396   .     A
C617   N670    1.383   .     A
C618   N669    1.368   .     A
C618   C163    1.426   1_565 S
C619   N670    1.378   .     A
C620   N669    1.370   .     A
C620   C161    1.426   1_565 S
C621   H641    1.110   .     S
C621   O682    1.422   .     S
C621   C622    1.529   .     S
C621   H652    1.120   .     S
C622   H662    1.107   .     S
C622   H663    1.111   .     S
C622   C1991   1.533   1_554 S
C623   H664    1.110   .     S
C623   H665    1.110   .     S
C623   H666    1.110   .     S
C623   C1306   1.533   .     S
C624   O675    1.303   .     A
C624   O676    1.304   .     A
C625   H667    1.111   .     S
C625   O672    1.421   .     S
C625   H668    1.114   .     S
C625   C626    1.538   .     S
C626   C627    1.526   .     S
C626   H490    1.107   1_655 S
C626   H491    1.112   1_655 S
C627   H644    1.111   .     S
C627   H493    1.109   1_655 S
C627   H190    1.110   1_565 S
C628   H648    1.109   .     S
C628   O673    1.420   .     S
C628   H647    1.109   .     S
C628   C629    1.531   .     S
C629   C630    1.530   .     S
C629   H497    1.105   1_655 S
C629   H498    1.104   1_655 S
C630   H651    1.109   .     S
C630   H501    1.104   1_655 S
C631   C632    1.528   .     S
C631   H656    1.112   .     S
C631   H655    1.111   .     S
C631   O674    1.413   .     S
C632   H657    1.109   .     S
C632   H658    1.110   .     S
C632   C633    1.517   .     S
C633   H659    1.110   .     S
C633   H660    1.111   .     S
C633   H661    1.104   .     S
C634   C636    1.365   .     S
C634   O678    1.290   .     A
C634   O681    1.289   .     A
C635   C637    1.365   .     S
C635   O680    1.289   .     A
C635   O679    1.290   .     A
C636   C2005   1.165   1_554 S
C637   C1320   1.165   .     S
C638   O682    1.380   .     S
C639   O672    1.384   .     S
C639   C462    1.388   1_655 S
C640   O673    1.383   .     S
C640   C486    1.375   1_655 S
H654   C174    1.109   1_565 S
N669   Zn683   2.044   .     S
N670   Zn684   2.044   .     S
O671   Zn683   2.019   .     S
O675   Zn684   2.019   .     S
O676   Zn683   2.030   .     S
O677   Zn684   2.030   .     S
O678   Zn683   1.946   .     S
O679   Zn684   1.946   .     S
O680   Zn683   1.944   .     S
O681   Zn684   1.944   .     S
Br685  C693    1.921   .     S
Br686  C694    1.922   .     S
Br687  C695    1.900   .     S
Br688  C696    1.923   .     S
C689   C692    1.435   .     S
C689   O753    1.309   .     A
C689   O747    1.289   .     A
C690   O750    1.386   .     S
C690   C692    1.406   .     A
C690   C867    1.388   1_455 S
C691   C715    1.415   .     A
C691   C700    1.450   .     S
C691   C716    1.416   .     A
C692   C714    1.396   .     A
C693   N746    1.383   .     A
C693   C1152   1.426   1_545 S
C694   N745    1.368   .     A
C694   C923    1.426   .     S
C695   N746    1.378   .     A
C695   C1150   1.426   1_545 S
C696   N745    1.370   .     A
C696   C921    1.426   .     S
C697   H717    1.110   .     S
C697   O758    1.422   .     S
C697   C698    1.529   .     S
C697   H728    1.120   .     S
C698   H738    1.107   .     S
C698   H739    1.111   .     S
C699   H740    1.110   .     S
C699   H741    1.110   .     S
C699   H742    1.110   .     S
C699   C1382   1.533   .     S
C700   O751    1.303   .     A
C700   O752    1.304   .     A
C701   H743    1.111   .     S
C701   O748    1.421   .     S
C701   H744    1.114   .     S
C701   C702    1.538   .     S
C702   C703    1.526   .     S
C702   H794    1.107   .     S
C702   H795    1.112   .     S
C703   H720    1.111   .     S
C703   H797    1.109   .     S
C703   H950    1.110   .     S
C704   H724    1.109   .     S
C704   O749    1.420   .     S
C704   H723    1.109   .     S
C704   C705    1.531   .     S
C705   C706    1.530   .     S
C705   H801    1.105   .     S
C705   H802    1.104   .     S
C706   H727    1.109   .     S
C706   H805    1.104   .     S
C706   H1186   1.109   1_545 S
C707   C708    1.528   .     S
C707   H732    1.112   .     S
C707   H731    1.111   .     S
C707   O750    1.413   .     S
C708   H733    1.109   .     S
C708   H734    1.110   .     S
C708   C709    1.517   .     S
C709   H735    1.110   .     S
C709   H736    1.111   .     S
C709   H737    1.104   .     S
C710   C712    1.365   .     S
C710   O754    1.290   .     A
C710   O757    1.289   .     A
C711   C713    1.365   .     S
C711   O756    1.289   .     A
C711   O755    1.290   .     A
C713   C1396   1.165   .     S
C714   O758    1.380   .     S
C714   C868    1.375   1_455 S
C715   O748    1.384   .     S
C715   C766    1.388   .     S
C716   O749    1.383   .     S
C716   C790    1.375   .     S
H718   C854    1.107   1_455 S
H719   C854    1.112   1_455 S
H721   C855    1.109   1_455 S
H722   C1159   1.110   1_545 S
H725   C857    1.105   1_455 S
H726   C857    1.104   1_455 S
H729   C858    1.104   1_455 S
H730   C934    1.109   .     S
N745   Zn759   2.044   .     S
N746   Zn760   2.044   .     S
O747   Zn759   2.019   .     S
O751   Zn760   2.019   .     S
O752   Zn759   2.030   .     S
O753   Zn760   2.030   .     S
O754   Zn759   1.946   .     S
O755   Zn760   1.946   .     S
O756   Zn759   1.944   .     S
O757   Zn760   1.944   .     S
Br761  C769    1.921   .     S
Br762  C770    1.922   .     S
Br763  C771    1.900   .     S
Br764  C772    1.923   .     S
C765   C768    1.435   .     S
C765   O829    1.309   .     A
C765   O823    1.289   .     A
C766   O826    1.386   .     S
C766   C768    1.406   .     A
C767   C791    1.415   .     A
C767   C776    1.450   .     S
C767   C792    1.416   .     A
C768   C790    1.396   .     A
C769   N822    1.383   .     A
C769   C1228   1.426   1_545 S
C770   N821    1.368   .     A
C770   C999    1.426   .     S
C771   N822    1.378   .     A
C771   C1226   1.426   1_545 S
C772   N821    1.370   .     A
C772   C997    1.426   .     S
C773   H793    1.110   .     S
C773   O834    1.422   .     S
C773   C774    1.529   .     S
C773   H804    1.120   .     S
C774   H814    1.107   .     S
C774   H815    1.111   .     S
C775   H816    1.110   .     S
C775   H817    1.110   .     S
C775   H818    1.110   .     S
C775   C1458   1.533   .     S
C776   O827    1.303   .     A
C776   O828    1.304   .     A
C777   H819    1.111   .     S
C777   O824    1.421   .     S
C777   H820    1.114   .     S
C777   C778    1.538   .     S
C778   C779    1.526   .     S
C778   H870    1.107   .     S
C778   H871    1.112   .     S
C779   H796    1.111   .     S
C779   H873    1.109   .     S
C779   H1026   1.110   .     S
C780   H800    1.109   .     S
C780   O825    1.420   .     S
C780   H799    1.109   .     S
C780   C781    1.531   .     S
C781   C782    1.530   .     S
C781   H877    1.105   .     S
C781   H878    1.104   .     S
C782   H803    1.109   .     S
C782   H881    1.104   .     S
C782   H1262   1.109   1_545 S
C783   C784    1.528   .     S
C783   H808    1.112   .     S
C783   H807    1.111   .     S
C783   O826    1.413   .     S
C784   H809    1.109   .     S
C784   H810    1.110   .     S
C784   C785    1.517   .     S
C785   H811    1.110   .     S
C785   H812    1.111   .     S
C785   H813    1.104   .     S
C786   C788    1.365   .     S
C786   O830    1.290   .     A
C786   O833    1.289   .     A
C787   C789    1.365   .     S
C787   O832    1.289   .     A
C787   O831    1.290   .     A
C789   C1472   1.165   .     S
C790   O834    1.380   .     S
C791   O824    1.384   .     S
C791   C842    1.388   .     S
C792   O825    1.383   .     S
C792   C866    1.375   .     S
H798   C1235   1.110   1_545 S
H806   C1010   1.109   .     S
N821   Zn835   2.044   .     S
N822   Zn836   2.044   .     S
O823   Zn835   2.019   .     S
O827   Zn836   2.019   .     S
O828   Zn835   2.030   .     S
O829   Zn836   2.030   .     S
O830   Zn835   1.946   .     S
O831   Zn836   1.946   .     S
O832   Zn835   1.944   .     S
O833   Zn836   1.944   .     S
Br837  C845    1.921   .     S
Br838  C846    1.922   .     S
Br839  C847    1.900   .     S
Br840  C848    1.923   .     S
C841   C844    1.435   .     S
C841   O905    1.309   .     A
C841   O899    1.289   .     A
C842   O902    1.386   .     S
C842   C844    1.406   .     A
C843   C867    1.415   .     A
C843   C852    1.450   .     S
C843   C868    1.416   .     A
C844   C866    1.396   .     A
C845   N898    1.383   .     A
C845   C1304   1.426   1_545 S
C846   N897    1.368   .     A
C846   C1075   1.426   .     S
C847   N898    1.378   .     A
C847   C1302   1.426   1_545 S
C848   N897    1.370   .     A
C848   C1073   1.426   .     S
C849   H869    1.110   .     S
C849   O910    1.422   .     S
C849   C850    1.529   .     S
C849   H880    1.120   .     S
C850   H890    1.107   .     S
C850   H891    1.111   .     S
C851   H892    1.110   .     S
C851   H893    1.110   .     S
C851   H894    1.110   .     S
C851   C1534   1.533   .     S
C852   O903    1.303   .     A
C852   O904    1.304   .     A
C853   H895    1.111   .     S
C853   O900    1.421   .     S
C853   H896    1.114   .     S
C853   C854    1.538   .     S
C854   C855    1.526   .     S
C854   H718    1.107   1_655 S
C854   H719    1.112   1_655 S
C855   H872    1.111   .     S
C855   H721    1.109   1_655 S
C855   H1102   1.110   .     S
C856   H876    1.109   .     S
C856   O901    1.420   .     S
C856   H875    1.109   .     S
C856   C857    1.531   .     S
C857   C858    1.530   .     S
C857   H725    1.105   1_655 S
C857   H726    1.104   1_655 S
C858   H879    1.109   .     S
C858   H729    1.104   1_655 S
C858   H1338   1.109   1_545 S
C859   C860    1.528   .     S
C859   H884    1.112   .     S
C859   H883    1.111   .     S
C859   O902    1.413   .     S
C860   H885    1.109   .     S
C860   H886    1.110   .     S
C860   C861    1.517   .     S
C861   H887    1.110   .     S
C861   H888    1.111   .     S
C861   H889    1.104   .     S
C862   C864    1.365   .     S
C862   O906    1.290   .     A
C862   O909    1.289   .     A
C863   C865    1.365   .     S
C863   O908    1.289   .     A
C863   O907    1.290   .     A
C865   C1548   1.165   .     S
C866   O910    1.380   .     S
C867   O900    1.384   .     S
C867   C690    1.388   1_655 S
C868   O901    1.383   .     S
C868   C714    1.375   1_655 S
H874   C1311   1.110   1_545 S
H882   C1086   1.109   .     S
N897   Zn911   2.044   .     S
N898   Zn912   2.044   .     S
O899   Zn911   2.019   .     S
O903   Zn912   2.019   .     S
O904   Zn911   2.030   .     S
O905   Zn912   2.030   .     S
O906   Zn911   1.946   .     S
O907   Zn912   1.946   .     S
O908   Zn911   1.944   .     S
O909   Zn912   1.944   .     S
Br913  C921    1.921   .     S
Br914  C922    1.922   .     S
Br915  C923    1.900   .     S
Br916  C924    1.923   .     S
C917   C920    1.435   .     S
C917   O981    1.309   .     A
C917   O975    1.289   .     A
C918   O978    1.386   .     S
C918   C920    1.406   .     A
C918   C1095   1.388   1_455 S
C919   C943    1.415   .     A
C919   C928    1.450   .     S
C919   C944    1.416   .     A
C920   C942    1.396   .     A
C921   N974    1.383   .     A
C922   N973    1.368   .     A
C922   C1151   1.426   .     S
C923   N974    1.378   .     A
C924   N973    1.370   .     A
C924   C1149   1.426   .     S
C925   H945    1.110   .     S
C925   O986    1.422   .     S
C925   C926    1.529   .     S
C925   H956    1.120   .     S
C926   H966    1.107   .     S
C926   H967    1.111   .     S
C927   H968    1.110   .     S
C927   H969    1.110   .     S
C927   H970    1.110   .     S
C927   C1610   1.533   .     S
C928   O979    1.303   .     A
C928   O980    1.304   .     A
C929   H971    1.111   .     S
C929   O976    1.421   .     S
C929   H972    1.114   .     S
C929   C930    1.538   .     S
C930   C931    1.526   .     S
C930   H1022   1.107   .     S
C930   H1023   1.112   .     S
C931   H948    1.111   .     S
C931   H1025   1.109   .     S
C931   H1178   1.110   .     S
C932   H952    1.109   .     S
C932   O977    1.420   .     S
C932   H951    1.109   .     S
C932   C933    1.531   .     S
C933   C934    1.530   .     S
C933   H1029   1.105   .     S
C933   H1030   1.104   .     S
C934   H955    1.109   .     S
C934   H1033   1.104   .     S
C935   C936    1.528   .     S
C935   H960    1.112   .     S
C935   H959    1.111   .     S
C935   O978    1.413   .     S
C936   H961    1.109   .     S
C936   H962    1.110   .     S
C936   C937    1.517   .     S
C937   H963    1.110   .     S
C937   H964    1.111   .     S
C937   H965    1.104   .     S
C938   C940    1.365   .     S
C938   O982    1.290   .     A
C938   O985    1.289   .     A
C939   C941    1.365   .     S
C939   O984    1.289   .     A
C939   O983    1.290   .     A
C941   C1624   1.165   .     S
C942   O986    1.380   .     S
C942   C1096   1.375   1_455 S
C943   O976    1.384   .     S
C943   C994    1.388   .     S
C944   O977    1.383   .     S
C944   C1018   1.375   .     S
H946   C1082   1.107   1_455 S
H947   C1082   1.112   1_455 S
H949   C1083   1.109   1_455 S
H953   C1085   1.105   1_455 S
H954   C1085   1.104   1_455 S
H957   C1086   1.104   1_455 S
H958   C1162   1.109   .     S
N973   Zn987   2.044   .     S
N974   Zn988   2.044   .     S
O975   Zn987   2.019   .     S
O979   Zn988   2.019   .     S
O980   Zn987   2.030   .     S
O981   Zn988   2.030   .     S
O982   Zn987   1.946   .     S
O983   Zn988   1.946   .     S
O984   Zn987   1.944   .     S
O985   Zn988   1.944   .     S
Br989  C997    1.921   .     S
Br990  C998    1.922   .     S
Br991  C999    1.900   .     S
Br992  C1000   1.923   .     S
C993   C996    1.435   .     S
C993   O1057   1.309   .     A
C993   O1051   1.289   .     A
C994   O1054   1.386   .     S
C994   C996    1.406   .     A
C995   C1019   1.415   .     A
C995   C1004   1.450   .     S
C995   C1020   1.416   .     A
C996   C1018   1.396   .     A
C997   N1050   1.383   .     A
C998   N1049   1.368   .     A
C998   C1227   1.426   .     S
C999   N1050   1.378   .     A
C1000  N1049   1.370   .     A
C1000  C1225   1.426   .     S
C1001  H1021   1.110   .     S
C1001  O1062   1.422   .     S
C1001  C1002   1.529   .     S
C1001  H1032   1.120   .     S
C1002  H1042   1.107   .     S
C1002  H1043   1.111   .     S
C1003  H1044   1.110   .     S
C1003  H1045   1.110   .     S
C1003  H1046   1.110   .     S
C1003  C1686   1.533   .     S
C1004  O1055   1.303   .     A
C1004  O1056   1.304   .     A
C1005  H1047   1.111   .     S
C1005  O1052   1.421   .     S
C1005  H1048   1.114   .     S
C1005  C1006   1.538   .     S
C1006  C1007   1.526   .     S
C1006  H1098   1.107   .     S
C1006  H1099   1.112   .     S
C1007  H1024   1.111   .     S
C1007  H1101   1.109   .     S
C1007  H1254   1.110   .     S
C1008  H1028   1.109   .     S
C1008  O1053   1.420   .     S
C1008  H1027   1.109   .     S
C1008  C1009   1.531   .     S
C1009  C1010   1.530   .     S
C1009  H1105   1.105   .     S
C1009  H1106   1.104   .     S
C1010  H1031   1.109   .     S
C1010  H1109   1.104   .     S
C1011  C1012   1.528   .     S
C1011  H1036   1.112   .     S
C1011  H1035   1.111   .     S
C1011  O1054   1.413   .     S
C1012  H1037   1.109   .     S
C1012  H1038   1.110   .     S
C1012  C1013   1.517   .     S
C1013  H1039   1.110   .     S
C1013  H1040   1.111   .     S
C1013  H1041   1.104   .     S
C1014  C1016   1.365   .     S
C1014  O1058   1.290   .     A
C1014  O1061   1.289   .     A
C1015  C1017   1.365   .     S
C1015  O1060   1.289   .     A
C1015  O1059   1.290   .     A
C1017  C1700   1.165   .     S
C1018  O1062   1.380   .     S
C1019  O1052   1.384   .     S
C1019  C1070   1.388   .     S
C1020  O1053   1.383   .     S
C1020  C1094   1.375   .     S
H1034  C1238   1.109   .     S
N1049  Zn1063  2.044   .     S
N1050  Zn1064  2.044   .     S
O1051  Zn1063  2.019   .     S
O1055  Zn1064  2.019   .     S
O1056  Zn1063  2.030   .     S
O1057  Zn1064  2.030   .     S
O1058  Zn1063  1.946   .     S
O1059  Zn1064  1.946   .     S
O1060  Zn1063  1.944   .     S
O1061  Zn1064  1.944   .     S
Br1065 C1073   1.921   .     S
Br1066 C1074   1.922   .     S
Br1067 C1075   1.900   .     S
Br1068 C1076   1.923   .     S
C1069  C1072   1.435   .     S
C1069  O1133   1.309   .     A
C1069  O1127   1.289   .     A
C1070  O1130   1.386   .     S
C1070  C1072   1.406   .     A
C1071  C1095   1.415   .     A
C1071  C1080   1.450   .     S
C1071  C1096   1.416   .     A
C1072  C1094   1.396   .     A
C1073  N1126   1.383   .     A
C1074  N1125   1.368   .     A
C1074  C1303   1.426   .     S
C1075  N1126   1.378   .     A
C1076  N1125   1.370   .     A
C1076  C1301   1.426   .     S
C1077  H1097   1.110   .     S
C1077  O1138   1.422   .     S
C1077  C1078   1.529   .     S
C1077  H1108   1.120   .     S
C1078  H1118   1.107   .     S
C1078  H1119   1.111   .     S
C1079  H1120   1.110   .     S
C1079  H1121   1.110   .     S
C1079  H1122   1.110   .     S
C1079  C1762   1.533   .     S
C1080  O1131   1.303   .     A
C1080  O1132   1.304   .     A
C1081  H1123   1.111   .     S
C1081  O1128   1.421   .     S
C1081  H1124   1.114   .     S
C1081  C1082   1.538   .     S
C1082  C1083   1.526   .     S
C1082  H946    1.107   1_655 S
C1082  H947    1.112   1_655 S
C1083  H1100   1.111   .     S
C1083  H949    1.109   1_655 S
C1083  H1330   1.110   .     S
C1084  H1104   1.109   .     S
C1084  O1129   1.420   .     S
C1084  H1103   1.109   .     S
C1084  C1085   1.531   .     S
C1085  C1086   1.530   .     S
C1085  H953    1.105   1_655 S
C1085  H954    1.104   1_655 S
C1086  H1107   1.109   .     S
C1086  H957    1.104   1_655 S
C1087  C1088   1.528   .     S
C1087  H1112   1.112   .     S
C1087  H1111   1.111   .     S
C1087  O1130   1.413   .     S
C1088  H1113   1.109   .     S
C1088  H1114   1.110   .     S
C1088  C1089   1.517   .     S
C1089  H1115   1.110   .     S
C1089  H1116   1.111   .     S
C1089  H1117   1.104   .     S
C1090  C1092   1.365   .     S
C1090  O1134   1.290   .     A
C1090  O1137   1.289   .     A
C1091  C1093   1.365   .     S
C1091  O1136   1.289   .     A
C1091  O1135   1.290   .     A
C1093  C1776   1.165   .     S
C1094  O1138   1.380   .     S
C1095  O1128   1.384   .     S
C1095  C918    1.388   1_655 S
C1096  O1129   1.383   .     S
C1096  C942    1.375   1_655 S
H1110  C1314   1.109   .     S
N1125  Zn1139  2.044   .     S
N1126  Zn1140  2.044   .     S
O1127  Zn1139  2.019   .     S
O1131  Zn1140  2.019   .     S
O1132  Zn1139  2.030   .     S
O1133  Zn1140  2.030   .     S
O1134  Zn1139  1.946   .     S
O1135  Zn1140  1.946   .     S
O1136  Zn1139  1.944   .     S
O1137  Zn1140  1.944   .     S
Br1141 C1149   1.921   .     S
Br1142 C1150   1.922   .     S
Br1143 C1151   1.900   .     S
Br1144 C1152   1.923   .     S
C1145  C1148   1.435   .     S
C1145  O1209   1.309   .     A
C1145  O1203   1.289   .     A
C1146  O1206   1.386   .     S
C1146  C1148   1.406   .     A
C1146  C1323   1.388   1_455 S
C1147  C1171   1.415   .     A
C1147  C1156   1.450   .     S
C1147  C1172   1.416   .     A
C1148  C1170   1.396   .     A
C1149  N1202   1.383   .     A
C1150  N1201   1.368   .     A
C1150  C695    1.426   1_565 S
C1151  N1202   1.378   .     A
C1152  N1201   1.370   .     A
C1152  C693    1.426   1_565 S
C1153  H1173   1.110   .     S
C1153  O1214   1.422   .     S
C1153  C1154   1.529   .     S
C1153  H1184   1.120   .     S
C1154  H1194   1.107   .     S
C1154  H1195   1.111   .     S
C1155  H1196   1.110   .     S
C1155  H1197   1.110   .     S
C1155  H1198   1.110   .     S
C1155  C1838   1.533   .     S
C1156  O1207   1.303   .     A
C1156  O1208   1.304   .     A
C1157  H1199   1.111   .     S
C1157  O1204   1.421   .     S
C1157  H1200   1.114   .     S
C1157  C1158   1.538   .     S
C1158  C1159   1.526   .     S
C1158  H1250   1.107   .     S
C1158  H1251   1.112   .     S
C1159  H1176   1.111   .     S
C1159  H1253   1.109   .     S
C1159  H722    1.110   1_565 S
C1160  H1180   1.109   .     S
C1160  O1205   1.420   .     S
C1160  H1179   1.109   .     S
C1160  C1161   1.531   .     S
C1161  C1162   1.530   .     S
C1161  H1257   1.105   .     S
C1161  H1258   1.104   .     S
C1162  H1183   1.109   .     S
C1162  H1261   1.104   .     S
C1163  C1164   1.528   .     S
C1163  H1188   1.112   .     S
C1163  H1187   1.111   .     S
C1163  O1206   1.413   .     S
C1164  H1189   1.109   .     S
C1164  H1190   1.110   .     S
C1164  C1165   1.517   .     S
C1165  H1191   1.110   .     S
C1165  H1192   1.111   .     S
C1165  H1193   1.104   .     S
C1166  C1168   1.365   .     S
C1166  O1210   1.290   .     A
C1166  O1213   1.289   .     A
C1167  C1169   1.365   .     S
C1167  O1212   1.289   .     A
C1167  O1211   1.290   .     A
C1169  C1852   1.165   .     S
C1170  O1214   1.380   .     S
C1170  C1324   1.375   1_455 S
C1171  O1204   1.384   .     S
C1171  C1222   1.388   .     S
C1172  O1205   1.383   .     S
C1172  C1246   1.375   .     S
H1174  C1310   1.107   1_455 S
H1175  C1310   1.112   1_455 S
H1177  C1311   1.109   1_455 S
H1181  C1313   1.105   1_455 S
H1182  C1313   1.104   1_455 S
H1185  C1314   1.104   1_455 S
H1186  C706    1.109   1_565 S
N1201  Zn1215  2.044   .     S
N1202  Zn1216  2.044   .     S
O1203  Zn1215  2.019   .     S
O1207  Zn1216  2.019   .     S
O1208  Zn1215  2.030   .     S
O1209  Zn1216  2.030   .     S
O1210  Zn1215  1.946   .     S
O1211  Zn1216  1.946   .     S
O1212  Zn1215  1.944   .     S
O1213  Zn1216  1.944   .     S
Br1217 C1225   1.921   .     S
Br1218 C1226   1.922   .     S
Br1219 C1227   1.900   .     S
Br1220 C1228   1.923   .     S
C1221  C1224   1.435   .     S
C1221  O1285   1.309   .     A
C1221  O1279   1.289   .     A
C1222  O1282   1.386   .     S
C1222  C1224   1.406   .     A
C1223  C1247   1.415   .     A
C1223  C1232   1.450   .     S
C1223  C1248   1.416   .     A
C1224  C1246   1.396   .     A
C1225  N1278   1.383   .     A
C1226  N1277   1.368   .     A
C1226  C771    1.426   1_565 S
C1227  N1278   1.378   .     A
C1228  N1277   1.370   .     A
C1228  C769    1.426   1_565 S
C1229  H1249   1.110   .     S
C1229  O1290   1.422   .     S
C1229  C1230   1.529   .     S
C1229  H1260   1.120   .     S
C1230  H1270   1.107   .     S
C1230  H1271   1.111   .     S
C1231  H1272   1.110   .     S
C1231  H1273   1.110   .     S
C1231  H1274   1.110   .     S
C1231  C1914   1.533   .     S
C1232  O1283   1.303   .     A
C1232  O1284   1.304   .     A
C1233  H1275   1.111   .     S
C1233  O1280   1.421   .     S
C1233  H1276   1.114   .     S
C1233  C1234   1.538   .     S
C1234  C1235   1.526   .     S
C1234  H1326   1.107   .     S
C1234  H1327   1.112   .     S
C1235  H1252   1.111   .     S
C1235  H1329   1.109   .     S
C1235  H798    1.110   1_565 S
C1236  H1256   1.109   .     S
C1236  O1281   1.420   .     S
C1236  H1255   1.109   .     S
C1236  C1237   1.531   .     S
C1237  C1238   1.530   .     S
C1237  H1333   1.105   .     S
C1237  H1334   1.104   .     S
C1238  H1259   1.109   .     S
C1238  H1337   1.104   .     S
C1239  C1240   1.528   .     S
C1239  H1264   1.112   .     S
C1239  H1263   1.111   .     S
C1239  O1282   1.413   .     S
C1240  H1265   1.109   .     S
C1240  H1266   1.110   .     S
C1240  C1241   1.517   .     S
C1241  H1267   1.110   .     S
C1241  H1268   1.111   .     S
C1241  H1269   1.104   .     S
C1242  C1244   1.365   .     S
C1242  O1286   1.290   .     A
C1242  O1289   1.289   .     A
C1243  C1245   1.365   .     S
C1243  O1288   1.289   .     A
C1243  O1287   1.290   .     A
C1245  C1928   1.165   .     S
C1246  O1290   1.380   .     S
C1247  O1280   1.384   .     S
C1247  C1298   1.388   .     S
C1248  O1281   1.383   .     S
C1248  C1322   1.375   .     S
H1262  C782    1.109   1_565 S
N1277  Zn1291  2.044   .     S
N1278  Zn1292  2.044   .     S
O1279  Zn1291  2.019   .     S
O1283  Zn1292  2.019   .     S
O1284  Zn1291  2.030   .     S
O1285  Zn1292  2.030   .     S
O1286  Zn1291  1.946   .     S
O1287  Zn1292  1.946   .     S
O1288  Zn1291  1.944   .     S
O1289  Zn1292  1.944   .     S
Br1293 C1301   1.921   .     S
Br1294 C1302   1.922   .     S
Br1295 C1303   1.900   .     S
Br1296 C1304   1.923   .     S
C1297  C1300   1.435   .     S
C1297  O1361   1.309   .     A
C1297  O1355   1.289   .     A
C1298  O1358   1.386   .     S
C1298  C1300   1.406   .     A
C1299  C1323   1.415   .     A
C1299  C1308   1.450   .     S
C1299  C1324   1.416   .     A
C1300  C1322   1.396   .     A
C1301  N1354   1.383   .     A
C1302  N1353   1.368   .     A
C1302  C847    1.426   1_565 S
C1303  N1354   1.378   .     A
C1304  N1353   1.370   .     A
C1304  C845    1.426   1_565 S
C1305  H1325   1.110   .     S
C1305  O1366   1.422   .     S
C1305  C1306   1.529   .     S
C1305  H1336   1.120   .     S
C1306  H1346   1.107   .     S
C1306  H1347   1.111   .     S
C1307  H1348   1.110   .     S
C1307  H1349   1.110   .     S
C1307  H1350   1.110   .     S
C1307  C1990   1.533   .     S
C1308  O1359   1.303   .     A
C1308  O1360   1.304   .     A
C1309  H1351   1.111   .     S
C1309  O1356   1.421   .     S
C1309  H1352   1.114   .     S
C1309  C1310   1.538   .     S
C1310  C1311   1.526   .     S
C1310  H1174   1.107   1_655 S
C1310  H1175   1.112   1_655 S
C1311  H1328   1.111   .     S
C1311  H1177   1.109   1_655 S
C1311  H874    1.110   1_565 S
C1312  H1332   1.109   .     S
C1312  O1357   1.420   .     S
C1312  H1331   1.109   .     S
C1312  C1313   1.531   .     S
C1313  C1314   1.530   .     S
C1313  H1181   1.105   1_655 S
C1313  H1182   1.104   1_655 S
C1314  H1335   1.109   .     S
C1314  H1185   1.104   1_655 S
C1315  C1316   1.528   .     S
C1315  H1340   1.112   .     S
C1315  H1339   1.111   .     S
C1315  O1358   1.413   .     S
C1316  H1341   1.109   .     S
C1316  H1342   1.110   .     S
C1316  C1317   1.517   .     S
C1317  H1343   1.110   .     S
C1317  H1344   1.111   .     S
C1317  H1345   1.104   .     S
C1318  C1320   1.365   .     S
C1318  O1362   1.290   .     A
C1318  O1365   1.289   .     A
C1319  C1321   1.365   .     S
C1319  O1364   1.289   .     A
C1319  O1363   1.290   .     A
C1321  C2004   1.165   .     S
C1322  O1366   1.380   .     S
C1323  O1356   1.384   .     S
C1323  C1146   1.388   1_655 S
C1324  O1357   1.383   .     S
C1324  C1170   1.375   1_655 S
H1338  C858    1.109   1_565 S
N1353  Zn1367  2.044   .     S
N1354  Zn1368  2.044   .     S
O1355  Zn1367  2.019   .     S
O1359  Zn1368  2.019   .     S
O1360  Zn1367  2.030   .     S
O1361  Zn1368  2.030   .     S
O1362  Zn1367  1.946   .     S
O1363  Zn1368  1.946   .     S
O1364  Zn1367  1.944   .     S
O1365  Zn1368  1.944   .     S
Br1369 C1377   1.921   .     S
Br1370 C1378   1.922   .     S
Br1371 C1379   1.900   .     S
Br1372 C1380   1.923   .     S
C1373  C1376   1.435   .     S
C1373  O1437   1.309   .     A
C1373  O1431   1.289   .     A
C1374  O1434   1.386   .     S
C1374  C1376   1.406   .     A
C1374  C1551   1.388   1_455 S
C1375  C1399   1.415   .     A
C1375  C1384   1.450   .     S
C1375  C1400   1.416   .     A
C1376  C1398   1.396   .     A
C1377  N1430   1.383   .     A
C1377  C1836   1.426   1_545 S
C1378  N1429   1.368   .     A
C1378  C1607   1.426   .     S
C1379  N1430   1.378   .     A
C1379  C1834   1.426   1_545 S
C1380  N1429   1.370   .     A
C1380  C1605   1.426   .     S
C1381  H1401   1.110   .     S
C1381  O1442   1.422   .     S
C1381  C1382   1.529   .     S
C1381  H1412   1.120   .     S
C1382  H1422   1.107   .     S
C1382  H1423   1.111   .     S
C1383  H1424   1.110   .     S
C1383  H1425   1.110   .     S
C1383  H1426   1.110   .     S
C1383  C14     1.533   1_556 S
C1384  O1435   1.303   .     A
C1384  O1436   1.304   .     A
C1385  H1427   1.111   .     S
C1385  O1432   1.421   .     S
C1385  H1428   1.114   .     S
C1385  C1386   1.538   .     S
C1386  C1387   1.526   .     S
C1386  H1478   1.107   .     S
C1386  H1479   1.112   .     S
C1387  H1404   1.111   .     S
C1387  H1481   1.109   .     S
C1387  H1634   1.110   .     S
C1388  H1408   1.109   .     S
C1388  O1433   1.420   .     S
C1388  H1407   1.109   .     S
C1388  C1389   1.531   .     S
C1389  C1390   1.530   .     S
C1389  H1485   1.105   .     S
C1389  H1486   1.104   .     S
C1390  H1411   1.109   .     S
C1390  H1489   1.104   .     S
C1390  H1870   1.109   1_545 S
C1391  C1392   1.528   .     S
C1391  H1416   1.112   .     S
C1391  H1415   1.111   .     S
C1391  O1434   1.413   .     S
C1392  H1417   1.109   .     S
C1392  H1418   1.110   .     S
C1392  C1393   1.517   .     S
C1393  H1419   1.110   .     S
C1393  H1420   1.111   .     S
C1393  H1421   1.104   .     S
C1394  C1396   1.365   .     S
C1394  O1438   1.290   .     A
C1394  O1441   1.289   .     A
C1395  C1397   1.365   .     S
C1395  O1440   1.289   .     A
C1395  O1439   1.290   .     A
C1397  C28     1.165   1_556 S
C1398  O1442   1.380   .     S
C1398  C1552   1.375   1_455 S
C1399  O1432   1.384   .     S
C1399  C1450   1.388   .     S
C1400  O1433   1.383   .     S
C1400  C1474   1.375   .     S
H1402  C1538   1.107   1_455 S
H1403  C1538   1.112   1_455 S
H1405  C1539   1.109   1_455 S
H1406  C1843   1.110   1_545 S
H1409  C1541   1.105   1_455 S
H1410  C1541   1.104   1_455 S
H1413  C1542   1.104   1_455 S
H1414  C1618   1.109   .     S
N1429  Zn1443  2.044   .     S
N1430  Zn1444  2.044   .     S
O1431  Zn1443  2.019   .     S
O1435  Zn1444  2.019   .     S
O1436  Zn1443  2.030   .     S
O1437  Zn1444  2.030   .     S
O1438  Zn1443  1.946   .     S
O1439  Zn1444  1.946   .     S
O1440  Zn1443  1.944   .     S
O1441  Zn1444  1.944   .     S
Br1445 C1453   1.921   .     S
Br1446 C1454   1.922   .     S
Br1447 C1455   1.900   .     S
Br1448 C1456   1.923   .     S
C1449  C1452   1.435   .     S
C1449  O1513   1.309   .     A
C1449  O1507   1.289   .     A
C1450  O1510   1.386   .     S
C1450  C1452   1.406   .     A
C1451  C1475   1.415   .     A
C1451  C1460   1.450   .     S
C1451  C1476   1.416   .     A
C1452  C1474   1.396   .     A
C1453  N1506   1.383   .     A
C1453  C1912   1.426   1_545 S
C1454  N1505   1.368   .     A
C1454  C1683   1.426   .     S
C1455  N1506   1.378   .     A
C1455  C1910   1.426   1_545 S
C1456  N1505   1.370   .     A
C1456  C1681   1.426   .     S
C1457  H1477   1.110   .     S
C1457  O1518   1.422   .     S
C1457  C1458   1.529   .     S
C1457  H1488   1.120   .     S
C1458  H1498   1.107   .     S
C1458  H1499   1.111   .     S
C1459  H1500   1.110   .     S
C1459  H1501   1.110   .     S
C1459  H1502   1.110   .     S
C1459  C90     1.533   1_556 S
C1460  O1511   1.303   .     A
C1460  O1512   1.304   .     A
C1461  H1503   1.111   .     S
C1461  O1508   1.421   .     S
C1461  H1504   1.114   .     S
C1461  C1462   1.538   .     S
C1462  C1463   1.526   .     S
C1462  H1554   1.107   .     S
C1462  H1555   1.112   .     S
C1463  H1480   1.111   .     S
C1463  H1557   1.109   .     S
C1463  H1710   1.110   .     S
C1464  H1484   1.109   .     S
C1464  O1509   1.420   .     S
C1464  H1483   1.109   .     S
C1464  C1465   1.531   .     S
C1465  C1466   1.530   .     S
C1465  H1561   1.105   .     S
C1465  H1562   1.104   .     S
C1466  H1487   1.109   .     S
C1466  H1565   1.104   .     S
C1466  H1946   1.109   1_545 S
C1467  C1468   1.528   .     S
C1467  H1492   1.112   .     S
C1467  H1491   1.111   .     S
C1467  O1510   1.413   .     S
C1468  H1493   1.109   .     S
C1468  H1494   1.110   .     S
C1468  C1469   1.517   .     S
C1469  H1495   1.110   .     S
C1469  H1496   1.111   .     S
C1469  H1497   1.104   .     S
C1470  C1472   1.365   .     S
C1470  O1514   1.290   .     A
C1470  O1517   1.289   .     A
C1471  C1473   1.365   .     S
C1471  O1516   1.289   .     A
C1471  O1515   1.290   .     A
C1473  C104    1.165   1_556 S
C1474  O1518   1.380   .     S
C1475  O1508   1.384   .     S
C1475  C1526   1.388   .     S
C1476  O1509   1.383   .     S
C1476  C1550   1.375   .     S
H1482  C1919   1.110   1_545 S
H1490  C1694   1.109   .     S
N1505  Zn1519  2.044   .     S
N1506  Zn1520  2.044   .     S
O1507  Zn1519  2.019   .     S
O1511  Zn1520  2.019   .     S
O1512  Zn1519  2.030   .     S
O1513  Zn1520  2.030   .     S
O1514  Zn1519  1.946   .     S
O1515  Zn1520  1.946   .     S
O1516  Zn1519  1.944   .     S
O1517  Zn1520  1.944   .     S
Br1521 C1529   1.921   .     S
Br1522 C1530   1.922   .     S
Br1523 C1531   1.900   .     S
Br1524 C1532   1.923   .     S
C1525  C1528   1.435   .     S
C1525  O1589   1.309   .     A
C1525  O1583   1.289   .     A
C1526  O1586   1.386   .     S
C1526  C1528   1.406   .     A
C1527  C1551   1.415   .     A
C1527  C1536   1.450   .     S
C1527  C1552   1.416   .     A
C1528  C1550   1.396   .     A
C1529  N1582   1.383   .     A
C1529  C1988   1.426   1_545 S
C1530  N1581   1.368   .     A
C1530  C1759   1.426   .     S
C1531  N1582   1.378   .     A
C1531  C1986   1.426   1_545 S
C1532  N1581   1.370   .     A
C1532  C1757   1.426   .     S
C1533  H1553   1.110   .     S
C1533  O1594   1.422   .     S
C1533  C1534   1.529   .     S
C1533  H1564   1.120   .     S
C1534  H1574   1.107   .     S
C1534  H1575   1.111   .     S
C1535  H1576   1.110   .     S
C1535  H1577   1.110   .     S
C1535  H1578   1.110   .     S
C1535  C166    1.533   1_556 S
C1536  O1587   1.303   .     A
C1536  O1588   1.304   .     A
C1537  H1579   1.111   .     S
C1537  O1584   1.421   .     S
C1537  H1580   1.114   .     S
C1537  C1538   1.538   .     S
C1538  C1539   1.526   .     S
C1538  H1402   1.107   1_655 S
C1538  H1403   1.112   1_655 S
C1539  H1556   1.111   .     S
C1539  H1405   1.109   1_655 S
C1539  H1786   1.110   .     S
C1540  H1560   1.109   .     S
C1540  O1585   1.420   .     S
C1540  H1559   1.109   .     S
C1540  C1541   1.531   .     S
C1541  C1542   1.530   .     S
C1541  H1409   1.105   1_655 S
C1541  H1410   1.104   1_655 S
C1542  H1563   1.109   .     S
C1542  H1413   1.104   1_655 S
C1542  H2022   1.109   1_545 S
C1543  C1544   1.528   .     S
C1543  H1568   1.112   .     S
C1543  H1567   1.111   .     S
C1543  O1586   1.413   .     S
C1544  H1569   1.109   .     S
C1544  H1570   1.110   .     S
C1544  C1545   1.517   .     S
C1545  H1571   1.110   .     S
C1545  H1572   1.111   .     S
C1545  H1573   1.104   .     S
C1546  C1548   1.365   .     S
C1546  O1590   1.290   .     A
C1546  O1593   1.289   .     A
C1547  C1549   1.365   .     S
C1547  O1592   1.289   .     A
C1547  O1591   1.290   .     A
C1549  C180    1.165   1_556 S
C1550  O1594   1.380   .     S
C1551  O1584   1.384   .     S
C1551  C1374   1.388   1_655 S
C1552  O1585   1.383   .     S
C1552  C1398   1.375   1_655 S
H1558  C1995   1.110   1_545 S
H1566  C1770   1.109   .     S
N1581  Zn1595  2.044   .     S
N1582  Zn1596  2.044   .     S
O1583  Zn1595  2.019   .     S
O1587  Zn1596  2.019   .     S
O1588  Zn1595  2.030   .     S
O1589  Zn1596  2.030   .     S
O1590  Zn1595  1.946   .     S
O1591  Zn1596  1.946   .     S
O1592  Zn1595  1.944   .     S
O1593  Zn1596  1.944   .     S
Br1597 C1605   1.921   .     S
Br1598 C1606   1.922   .     S
Br1599 C1607   1.900   .     S
Br1600 C1608   1.923   .     S
C1601  C1604   1.435   .     S
C1601  O1665   1.309   .     A
C1601  O1659   1.289   .     A
C1602  O1662   1.386   .     S
C1602  C1604   1.406   .     A
C1602  C1779   1.388   1_455 S
C1603  C1627   1.415   .     A
C1603  C1612   1.450   .     S
C1603  C1628   1.416   .     A
C1604  C1626   1.396   .     A
C1605  N1658   1.383   .     A
C1606  N1657   1.368   .     A
C1606  C1835   1.426   .     S
C1607  N1658   1.378   .     A
C1608  N1657   1.370   .     A
C1608  C1833   1.426   .     S
C1609  H1629   1.110   .     S
C1609  O1670   1.422   .     S
C1609  C1610   1.529   .     S
C1609  H1640   1.120   .     S
C1610  H1650   1.107   .     S
C1610  H1651   1.111   .     S
C1611  H1652   1.110   .     S
C1611  H1653   1.110   .     S
C1611  H1654   1.110   .     S
C1611  C242    1.533   1_556 S
C1612  O1663   1.303   .     A
C1612  O1664   1.304   .     A
C1613  H1655   1.111   .     S
C1613  O1660   1.421   .     S
C1613  H1656   1.114   .     S
C1613  C1614   1.538   .     S
C1614  C1615   1.526   .     S
C1614  H1706   1.107   .     S
C1614  H1707   1.112   .     S
C1615  H1632   1.111   .     S
C1615  H1709   1.109   .     S
C1615  H1862   1.110   .     S
C1616  H1636   1.109   .     S
C1616  O1661   1.420   .     S
C1616  H1635   1.109   .     S
C1616  C1617   1.531   .     S
C1617  C1618   1.530   .     S
C1617  H1713   1.105   .     S
C1617  H1714   1.104   .     S
C1618  H1639   1.109   .     S
C1618  H1717   1.104   .     S
C1619  C1620   1.528   .     S
C1619  H1644   1.112   .     S
C1619  H1643   1.111   .     S
C1619  O1662   1.413   .     S
C1620  H1645   1.109   .     S
C1620  H1646   1.110   .     S
C1620  C1621   1.517   .     S
C1621  H1647   1.110   .     S
C1621  H1648   1.111   .     S
C1621  H1649   1.104   .     S
C1622  C1624   1.365   .     S
C1622  O1666   1.290   .     A
C1622  O1669   1.289   .     A
C1623  C1625   1.365   .     S
C1623  O1668   1.289   .     A
C1623  O1667   1.290   .     A
C1625  C256    1.165   1_556 S
C1626  O1670   1.380   .     S
C1626  C1780   1.375   1_455 S
C1627  O1660   1.384   .     S
C1627  C1678   1.388   .     S
C1628  O1661   1.383   .     S
C1628  C1702   1.375   .     S
H1630  C1766   1.107   1_455 S
H1631  C1766   1.112   1_455 S
H1633  C1767   1.109   1_455 S
H1637  C1769   1.105   1_455 S
H1638  C1769   1.104   1_455 S
H1641  C1770   1.104   1_455 S
H1642  C1846   1.109   .     S
N1657  Zn1671  2.044   .     S
N1658  Zn1672  2.044   .     S
O1659  Zn1671  2.019   .     S
O1663  Zn1672  2.019   .     S
O1664  Zn1671  2.030   .     S
O1665  Zn1672  2.030   .     S
O1666  Zn1671  1.946   .     S
O1667  Zn1672  1.946   .     S
O1668  Zn1671  1.944   .     S
O1669  Zn1672  1.944   .     S
Br1673 C1681   1.921   .     S
Br1674 C1682   1.922   .     S
Br1675 C1683   1.900   .     S
Br1676 C1684   1.923   .     S
C1677  C1680   1.435   .     S
C1677  O1741   1.309   .     A
C1677  O1735   1.289   .     A
C1678  O1738   1.386   .     S
C1678  C1680   1.406   .     A
C1679  C1703   1.415   .     A
C1679  C1688   1.450   .     S
C1679  C1704   1.416   .     A
C1680  C1702   1.396   .     A
C1681  N1734   1.383   .     A
C1682  N1733   1.368   .     A
C1682  C1911   1.426   .     S
C1683  N1734   1.378   .     A
C1684  N1733   1.370   .     A
C1684  C1909   1.426   .     S
C1685  H1705   1.110   .     S
C1685  O1746   1.422   .     S
C1685  C1686   1.529   .     S
C1685  H1716   1.120   .     S
C1686  H1726   1.107   .     S
C1686  H1727   1.111   .     S
C1687  H1728   1.110   .     S
C1687  H1729   1.110   .     S
C1687  H1730   1.110   .     S
C1687  C318    1.533   1_556 S
C1688  O1739   1.303   .     A
C1688  O1740   1.304   .     A
C1689  H1731   1.111   .     S
C1689  O1736   1.421   .     S
C1689  H1732   1.114   .     S
C1689  C1690   1.538   .     S
C1690  C1691   1.526   .     S
C1690  H1782   1.107   .     S
C1690  H1783   1.112   .     S
C1691  H1708   1.111   .     S
C1691  H1785   1.109   .     S
C1691  H1938   1.110   .     S
C1692  H1712   1.109   .     S
C1692  O1737   1.420   .     S
C1692  H1711   1.109   .     S
C1692  C1693   1.531   .     S
C1693  C1694   1.530   .     S
C1693  H1789   1.105   .     S
C1693  H1790   1.104   .     S
C1694  H1715   1.109   .     S
C1694  H1793   1.104   .     S
C1695  C1696   1.528   .     S
C1695  H1720   1.112   .     S
C1695  H1719   1.111   .     S
C1695  O1738   1.413   .     S
C1696  H1721   1.109   .     S
C1696  H1722   1.110   .     S
C1696  C1697   1.517   .     S
C1697  H1723   1.110   .     S
C1697  H1724   1.111   .     S
C1697  H1725   1.104   .     S
C1698  C1700   1.365   .     S
C1698  O1742   1.290   .     A
C1698  O1745   1.289   .     A
C1699  C1701   1.365   .     S
C1699  O1744   1.289   .     A
C1699  O1743   1.290   .     A
C1701  C332    1.165   1_556 S
C1702  O1746   1.380   .     S
C1703  O1736   1.384   .     S
C1703  C1754   1.388   .     S
C1704  O1737   1.383   .     S
C1704  C1778   1.375   .     S
H1718  C1922   1.109   .     S
N1733  Zn1747  2.044   .     S
N1734  Zn1748  2.044   .     S
O1735  Zn1747  2.019   .     S
O1739  Zn1748  2.019   .     S
O1740  Zn1747  2.030   .     S
O1741  Zn1748  2.030   .     S
O1742  Zn1747  1.946   .     S
O1743  Zn1748  1.946   .     S
O1744  Zn1747  1.944   .     S
O1745  Zn1748  1.944   .     S
Br1749 C1757   1.921   .     S
Br1750 C1758   1.922   .     S
Br1751 C1759   1.900   .     S
Br1752 C1760   1.923   .     S
C1753  C1756   1.435   .     S
C1753  O1817   1.309   .     A
C1753  O1811   1.289   .     A
C1754  O1814   1.386   .     S
C1754  C1756   1.406   .     A
C1755  C1779   1.415   .     A
C1755  C1764   1.450   .     S
C1755  C1780   1.416   .     A
C1756  C1778   1.396   .     A
C1757  N1810   1.383   .     A
C1758  N1809   1.368   .     A
C1758  C1987   1.426   .     S
C1759  N1810   1.378   .     A
C1760  N1809   1.370   .     A
C1760  C1985   1.426   .     S
C1761  H1781   1.110   .     S
C1761  O1822   1.422   .     S
C1761  C1762   1.529   .     S
C1761  H1792   1.120   .     S
C1762  H1802   1.107   .     S
C1762  H1803   1.111   .     S
C1763  H1804   1.110   .     S
C1763  H1805   1.110   .     S
C1763  H1806   1.110   .     S
C1763  C394    1.533   1_556 S
C1764  O1815   1.303   .     A
C1764  O1816   1.304   .     A
C1765  H1807   1.111   .     S
C1765  O1812   1.421   .     S
C1765  H1808   1.114   .     S
C1765  C1766   1.538   .     S
C1766  C1767   1.526   .     S
C1766  H1630   1.107   1_655 S
C1766  H1631   1.112   1_655 S
C1767  H1784   1.111   .     S
C1767  H1633   1.109   1_655 S
C1767  H2014   1.110   .     S
C1768  H1788   1.109   .     S
C1768  O1813   1.420   .     S
C1768  H1787   1.109   .     S
C1768  C1769   1.531   .     S
C1769  C1770   1.530   .     S
C1769  H1637   1.105   1_655 S
C1769  H1638   1.104   1_655 S
C1770  H1791   1.109   .     S
C1770  H1641   1.104   1_655 S
C1771  C1772   1.528   .     S
C1771  H1796   1.112   .     S
C1771  H1795   1.111   .     S
C1771  O1814   1.413   .     S
C1772  H1797   1.109   .     S
C1772  H1798   1.110   .     S
C1772  C1773   1.517   .     S
C1773  H1799   1.110   .     S
C1773  H1800   1.111   .     S
C1773  H1801   1.104   .     S
C1774  C1776   1.365   .     S
C1774  O1818   1.290   .     A
C1774  O1821   1.289   .     A
C1775  C1777   1.365   .     S
C1775  O1820   1.289   .     A
C1775  O1819   1.290   .     A
C1777  C408    1.165   1_556 S
C1778  O1822   1.380   .     S
C1779  O1812   1.384   .     S
C1779  C1602   1.388   1_655 S
C1780  O1813   1.383   .     S
C1780  C1626   1.375   1_655 S
H1794  C1998   1.109   .     S
N1809  Zn1823  2.044   .     S
N1810  Zn1824  2.044   .     S
O1811  Zn1823  2.019   .     S
O1815  Zn1824  2.019   .     S
O1816  Zn1823  2.030   .     S
O1817  Zn1824  2.030   .     S
O1818  Zn1823  1.946   .     S
O1819  Zn1824  1.946   .     S
O1820  Zn1823  1.944   .     S
O1821  Zn1824  1.944   .     S
Br1825 C1833   1.921   .     S
Br1826 C1834   1.922   .     S
Br1827 C1835   1.900   .     S
Br1828 C1836   1.923   .     S
C1829  C1832   1.435   .     S
C1829  O1893   1.309   .     A
C1829  O1887   1.289   .     A
C1830  O1890   1.386   .     S
C1830  C1832   1.406   .     A
C1830  C2007   1.388   1_455 S
C1831  C1855   1.415   .     A
C1831  C1840   1.450   .     S
C1831  C1856   1.416   .     A
C1832  C1854   1.396   .     A
C1833  N1886   1.383   .     A
C1834  N1885   1.368   .     A
C1834  C1379   1.426   1_565 S
C1835  N1886   1.378   .     A
C1836  N1885   1.370   .     A
C1836  C1377   1.426   1_565 S
C1837  H1857   1.110   .     S
C1837  O1898   1.422   .     S
C1837  C1838   1.529   .     S
C1837  H1868   1.120   .     S
C1838  H1878   1.107   .     S
C1838  H1879   1.111   .     S
C1839  H1880   1.110   .     S
C1839  H1881   1.110   .     S
C1839  H1882   1.110   .     S
C1839  C470    1.533   1_556 S
C1840  O1891   1.303   .     A
C1840  O1892   1.304   .     A
C1841  H1883   1.111   .     S
C1841  O1888   1.421   .     S
C1841  H1884   1.114   .     S
C1841  C1842   1.538   .     S
C1842  C1843   1.526   .     S
C1842  H1934   1.107   .     S
C1842  H1935   1.112   .     S
C1843  H1860   1.111   .     S
C1843  H1937   1.109   .     S
C1843  H1406   1.110   1_565 S
C1844  H1864   1.109   .     S
C1844  O1889   1.420   .     S
C1844  H1863   1.109   .     S
C1844  C1845   1.531   .     S
C1845  C1846   1.530   .     S
C1845  H1941   1.105   .     S
C1845  H1942   1.104   .     S
C1846  H1867   1.109   .     S
C1846  H1945   1.104   .     S
C1847  C1848   1.528   .     S
C1847  H1872   1.112   .     S
C1847  H1871   1.111   .     S
C1847  O1890   1.413   .     S
C1848  H1873   1.109   .     S
C1848  H1874   1.110   .     S
C1848  C1849   1.517   .     S
C1849  H1875   1.110   .     S
C1849  H1876   1.111   .     S
C1849  H1877   1.104   .     S
C1850  C1852   1.365   .     S
C1850  O1894   1.290   .     A
C1850  O1897   1.289   .     A
C1851  C1853   1.365   .     S
C1851  O1896   1.289   .     A
C1851  O1895   1.290   .     A
C1853  C484    1.165   1_556 S
C1854  O1898   1.380   .     S
C1854  C2008   1.375   1_455 S
C1855  O1888   1.384   .     S
C1855  C1906   1.388   .     S
C1856  O1889   1.383   .     S
C1856  C1930   1.375   .     S
H1858  C1994   1.107   1_455 S
H1859  C1994   1.112   1_455 S
H1861  C1995   1.109   1_455 S
H1865  C1997   1.105   1_455 S
H1866  C1997   1.104   1_455 S
H1869  C1998   1.104   1_455 S
H1870  C1390   1.109   1_565 S
N1885  Zn1899  2.044   .     S
N1886  Zn1900  2.044   .     S
O1887  Zn1899  2.019   .     S
O1891  Zn1900  2.019   .     S
O1892  Zn1899  2.030   .     S
O1893  Zn1900  2.030   .     S
O1894  Zn1899  1.946   .     S
O1895  Zn1900  1.946   .     S
O1896  Zn1899  1.944   .     S
O1897  Zn1900  1.944   .     S
Br1901 C1909   1.921   .     S
Br1902 C1910   1.922   .     S
Br1903 C1911   1.900   .     S
Br1904 C1912   1.923   .     S
C1905  C1908   1.435   .     S
C1905  O1969   1.309   .     A
C1905  O1963   1.289   .     A
C1906  O1966   1.386   .     S
C1906  C1908   1.406   .     A
C1907  C1931   1.415   .     A
C1907  C1916   1.450   .     S
C1907  C1932   1.416   .     A
C1908  C1930   1.396   .     A
C1909  N1962   1.383   .     A
C1910  N1961   1.368   .     A
C1910  C1455   1.426   1_565 S
C1911  N1962   1.378   .     A
C1912  N1961   1.370   .     A
C1912  C1453   1.426   1_565 S
C1913  H1933   1.110   .     S
C1913  O1974   1.422   .     S
C1913  C1914   1.529   .     S
C1913  H1944   1.120   .     S
C1914  H1954   1.107   .     S
C1914  H1955   1.111   .     S
C1915  H1956   1.110   .     S
C1915  H1957   1.110   .     S
C1915  H1958   1.110   .     S
C1915  C546    1.533   1_556 S
C1916  O1967   1.303   .     A
C1916  O1968   1.304   .     A
C1917  H1959   1.111   .     S
C1917  O1964   1.421   .     S
C1917  H1960   1.114   .     S
C1917  C1918   1.538   .     S
C1918  C1919   1.526   .     S
C1918  H2010   1.107   .     S
C1918  H2011   1.112   .     S
C1919  H1936   1.111   .     S
C1919  H2013   1.109   .     S
C1919  H1482   1.110   1_565 S
C1920  H1940   1.109   .     S
C1920  O1965   1.420   .     S
C1920  H1939   1.109   .     S
C1920  C1921   1.531   .     S
C1921  C1922   1.530   .     S
C1921  H2017   1.105   .     S
C1921  H2018   1.104   .     S
C1922  H1943   1.109   .     S
C1922  H2021   1.104   .     S
C1923  C1924   1.528   .     S
C1923  H1948   1.112   .     S
C1923  H1947   1.111   .     S
C1923  O1966   1.413   .     S
C1924  H1949   1.109   .     S
C1924  H1950   1.110   .     S
C1924  C1925   1.517   .     S
C1925  H1951   1.110   .     S
C1925  H1952   1.111   .     S
C1925  H1953   1.104   .     S
C1926  C1928   1.365   .     S
C1926  O1970   1.290   .     A
C1926  O1973   1.289   .     A
C1927  C1929   1.365   .     S
C1927  O1972   1.289   .     A
C1927  O1971   1.290   .     A
C1929  C560    1.165   1_556 S
C1930  O1974   1.380   .     S
C1931  O1964   1.384   .     S
C1931  C1982   1.388   .     S
C1932  O1965   1.383   .     S
C1932  C2006   1.375   .     S
H1946  C1466   1.109   1_565 S
N1961  Zn1975  2.044   .     S
N1962  Zn1976  2.044   .     S
O1963  Zn1975  2.019   .     S
O1967  Zn1976  2.019   .     S
O1968  Zn1975  2.030   .     S
O1969  Zn1976  2.030   .     S
O1970  Zn1975  1.946   .     S
O1971  Zn1976  1.946   .     S
O1972  Zn1975  1.944   .     S
O1973  Zn1976  1.944   .     S
Br1977 C1985   1.921   .     S
Br1978 C1986   1.922   .     S
Br1979 C1987   1.900   .     S
Br1980 C1988   1.923   .     S
C1981  C1984   1.435   .     S
C1981  O2045   1.309   .     A
C1981  O2039   1.289   .     A
C1982  O2042   1.386   .     S
C1982  C1984   1.406   .     A
C1983  C2007   1.415   .     A
C1983  C1992   1.450   .     S
C1983  C2008   1.416   .     A
C1984  C2006   1.396   .     A
C1985  N2038   1.383   .     A
C1986  N2037   1.368   .     A
C1986  C1531   1.426   1_565 S
C1987  N2038   1.378   .     A
C1988  N2037   1.370   .     A
C1988  C1529   1.426   1_565 S
C1989  H2009   1.110   .     S
C1989  O2050   1.422   .     S
C1989  C1990   1.529   .     S
C1989  H2020   1.120   .     S
C1990  H2030   1.107   .     S
C1990  H2031   1.111   .     S
C1991  H2032   1.110   .     S
C1991  H2033   1.110   .     S
C1991  H2034   1.110   .     S
C1991  C622    1.533   1_556 S
C1992  O2043   1.303   .     A
C1992  O2044   1.304   .     A
C1993  H2035   1.111   .     S
C1993  O2040   1.421   .     S
C1993  H2036   1.114   .     S
C1993  C1994   1.538   .     S
C1994  C1995   1.526   .     S
C1994  H1858   1.107   1_655 S
C1994  H1859   1.112   1_655 S
C1995  H2012   1.111   .     S
C1995  H1861   1.109   1_655 S
C1995  H1558   1.110   1_565 S
C1996  H2016   1.109   .     S
C1996  O2041   1.420   .     S
C1996  H2015   1.109   .     S
C1996  C1997   1.531   .     S
C1997  C1998   1.530   .     S
C1997  H1865   1.105   1_655 S
C1997  H1866   1.104   1_655 S
C1998  H2019   1.109   .     S
C1998  H1869   1.104   1_655 S
C1999  C2000   1.528   .     S
C1999  H2024   1.112   .     S
C1999  H2023   1.111   .     S
C1999  O2042   1.413   .     S
C2000  H2025   1.109   .     S
C2000  H2026   1.110   .     S
C2000  C2001   1.517   .     S
C2001  H2027   1.110   .     S
C2001  H2028   1.111   .     S
C2001  H2029   1.104   .     S
C2002  C2004   1.365   .     S
C2002  O2046   1.290   .     A
C2002  O2049   1.289   .     A
C2003  C2005   1.365   .     S
C2003  O2048   1.289   .     A
C2003  O2047   1.290   .     A
C2005  C636    1.165   1_556 S
C2006  O2050   1.380   .     S
C2007  O2040   1.384   .     S
C2007  C1830   1.388   1_655 S
C2008  O2041   1.383   .     S
C2008  C1854   1.375   1_655 S
H2022  C1542   1.109   1_565 S
N2037  Zn2051  2.044   .     S
N2038  Zn2052  2.044   .     S
O2039  Zn2051  2.019   .     S
O2043  Zn2052  2.019   .     S
O2044  Zn2051  2.030   .     S
O2045  Zn2052  2.030   .     S
O2046  Zn2051  1.946   .     S
O2047  Zn2052  1.946   .     S
O2048  Zn2051  1.944   .     S
O2049  Zn2052  1.944   .     S
