data_str_m3_o10_o17_pcu_sym.78
_audit_creation_date              2020-01-03
_audit_creation_method            'Materials Studio'
_symmetry_space_group_name_H-M    'P1'
_symmetry_Int_Tables_number       1
_symmetry_cell_setting            triclinic
loop_
_symmetry_equiv_pos_as_xyz
  x,y,z
_cell_length_a                    23.4998
_cell_length_b                    26.0461
_cell_length_c                    29.9892
_cell_angle_alpha                 92.2193
_cell_angle_beta                  86.2539
_cell_angle_gamma                 93.4270
loop_
_atom_site_label
_atom_site_type_symbol
_atom_site_fract_x
_atom_site_fract_y
_atom_site_fract_z
_atom_site_U_iso_or_equiv
_atom_site_adp_type
_atom_site_occupancy
O1     O     0.12975   0.24619   0.25298   0.00000  Uiso   1.00
O2     O     0.20358   0.08714   0.24701   0.00000  Uiso   1.00
O3     O     0.22613   0.23721   0.24518   0.00000  Uiso   1.00
O4     O     0.10720   0.09613   0.25481   0.00000  Uiso   1.00
C5     C     0.18151   0.26450   0.24867   0.00000  Uiso   1.00
C6     C     0.15182   0.06883   0.25132   0.00000  Uiso   1.00
O7     O     0.11847   0.17117   0.31997   0.00000  Uiso   1.00
O8     O     0.21486   0.16216   0.18002   0.00000  Uiso   1.00
O9     O     0.21485   0.16219   0.31217   0.00000  Uiso   1.00
O10    O     0.11848   0.17115   0.18782   0.00000  Uiso   1.00
C11    C     0.16751   0.16680   0.33624   0.00000  Uiso   1.00
C12    C     0.16582   0.16653   0.16376   0.00000  Uiso   1.00
Zn13   Zn    0.10231   0.17266   0.25521   0.00000  Uiso   1.00
Zn14   Zn    0.23102   0.16067   0.24479   0.00000  Uiso   1.00
C15    C     0.13680   0.12595   0.09342   0.00000  Uiso   1.00
C16    C     0.19661   0.20737   0.40657   0.00000  Uiso   1.00
C17    C     0.16423   0.16734   0.11613   0.00000  Uiso   1.00
C18    C     0.16911   0.16601   0.38387   0.00000  Uiso   1.00
C19    C     0.19220   0.20877   0.09370   0.00000  Uiso   1.00
C20    C     0.14114   0.12460   0.40632   0.00000  Uiso   1.00
C21    C     0.18960   0.21091   0.04719   0.00000  Uiso   1.00
C22    C     0.14388   0.12242   0.45282   0.00000  Uiso   1.00
C23    C     0.16557   0.16736   0.02350   0.00000  Uiso   1.00
C24    C     0.16790   0.16597   0.47650   0.00000  Uiso   1.00
C25    C     0.13957   0.12493   0.04671   0.00000  Uiso   1.00
C26    C     0.19390   0.20840   0.45328   0.00000  Uiso   1.00
C27    C     0.21087   0.25467   0.02341   0.00000  Uiso   1.00
C28    C     0.12274   0.07861   0.47658   0.00000  Uiso   1.00
C29    C     0.21387   0.25233   0.47713   0.00000  Uiso   1.00
C30    C     0.11968   0.08096   0.02286   0.00000  Uiso   1.00
H31    H     0.22939   0.28678   0.46022   0.00000  Uiso   1.00
H32    H     0.10422   0.04650   0.03978   0.00000  Uiso   1.00
C33    C     0.18954   0.31853   0.25042   0.00000  Uiso   1.00
C34    C     0.14380   0.01481   0.24955   0.00000  Uiso   1.00
N35    N     0.31678   0.15265   0.23783   0.00000  Uiso   1.00
N36    N     0.01656   0.18068   0.26217   0.00000  Uiso   1.00
N37    N     0.10921   0.08379   0.11776   0.00000  Uiso   1.00
O38    O     0.13726   0.05934   0.14545   0.00000  Uiso   1.00
O39    O     0.05665   0.06848   0.11095   0.00000  Uiso   1.00
N40    N     0.22422   0.24952   0.38222   0.00000  Uiso   1.00
O41    O     0.19620   0.27395   0.35450   0.00000  Uiso   1.00
O42    O     0.27679   0.26481   0.38902   0.00000  Uiso   1.00
N43    N     0.22644   0.24620   0.11815   0.00000  Uiso   1.00
O44    O     0.28167   0.24942   0.11052   0.00000  Uiso   1.00
O45    O     0.20287   0.27512   0.14961   0.00000  Uiso   1.00
N46    N     0.10669   0.08726   0.38194   0.00000  Uiso   1.00
O47    O     0.05153   0.08387   0.38997   0.00000  Uiso   1.00
O48    O     0.13001   0.05842   0.35031   0.00000  Uiso   1.00
N49    N     0.22469   0.30345   0.04515   0.00000  Uiso   1.00
O50    O     0.18570   0.32561   0.07056   0.00000  Uiso   1.00
O51    O     0.27081   0.33039   0.03212   0.00000  Uiso   1.00
N52    N     0.10925   0.02976   0.45481   0.00000  Uiso   1.00
O53    O     0.06352   0.00240   0.46802   0.00000  Uiso   1.00
O54    O     0.14829   0.00801   0.42915   0.00000  Uiso   1.00
N55    N     0.24694   0.00543   0.25602   0.00000  Uiso   1.00
O56    O     0.28582   0.33275   0.22367   0.00000  Uiso   1.00
O57    O     0.26169   0.02276   0.29514   0.00000  Uiso   1.00
N58    N     0.08640   0.32790   0.24394   0.00000  Uiso   1.00
O59    O     0.04750   0.00058   0.27627   0.00000  Uiso   1.00
O60    O     0.07167   0.31055   0.20481   0.00000  Uiso   1.00
Cl61   Cl    0.01291   0.10770   0.20137   0.00000  Uiso   1.00
Cl62   Cl    0.32043   0.22565   0.29862   0.00000  Uiso   1.00
O63    O     0.46308   0.24619   0.25298   0.00000  Uiso   1.00
O64    O     0.53692   0.08714   0.24701   0.00000  Uiso   1.00
O65    O     0.55946   0.23721   0.24518   0.00000  Uiso   1.00
O66    O     0.44054   0.09613   0.25481   0.00000  Uiso   1.00
C67    C     0.51485   0.26450   0.24867   0.00000  Uiso   1.00
C68    C     0.48515   0.06883   0.25132   0.00000  Uiso   1.00
O69    O     0.45181   0.17117   0.31997   0.00000  Uiso   1.00
O70    O     0.54819   0.16216   0.18002   0.00000  Uiso   1.00
O71    O     0.54819   0.16219   0.31217   0.00000  Uiso   1.00
O72    O     0.45181   0.17115   0.18782   0.00000  Uiso   1.00
C73    C     0.50084   0.16680   0.33624   0.00000  Uiso   1.00
C74    C     0.49916   0.16653   0.16376   0.00000  Uiso   1.00
Zn75   Zn    0.43565   0.17266   0.25521   0.00000  Uiso   1.00
Zn76   Zn    0.56435   0.16067   0.24479   0.00000  Uiso   1.00
C77    C     0.47014   0.12595   0.09342   0.00000  Uiso   1.00
C78    C     0.52995   0.20737   0.40657   0.00000  Uiso   1.00
C79    C     0.49757   0.16734   0.11613   0.00000  Uiso   1.00
C80    C     0.50245   0.16601   0.38387   0.00000  Uiso   1.00
C81    C     0.52553   0.20877   0.09370   0.00000  Uiso   1.00
C82    C     0.47448   0.12460   0.40632   0.00000  Uiso   1.00
C83    C     0.52293   0.21091   0.04719   0.00000  Uiso   1.00
C84    C     0.47721   0.12242   0.45282   0.00000  Uiso   1.00
C85    C     0.49891   0.16736   0.02350   0.00000  Uiso   1.00
C86    C     0.50123   0.16597   0.47650   0.00000  Uiso   1.00
C87    C     0.47290   0.12493   0.04671   0.00000  Uiso   1.00
C88    C     0.52723   0.20840   0.45328   0.00000  Uiso   1.00
C89    C     0.54421   0.25467   0.02341   0.00000  Uiso   1.00
C90    C     0.45608   0.07861   0.47658   0.00000  Uiso   1.00
C91    C     0.54720   0.25233   0.47713   0.00000  Uiso   1.00
C92    C     0.45301   0.08096   0.02286   0.00000  Uiso   1.00
H93    H     0.56273   0.28678   0.46022   0.00000  Uiso   1.00
H94    H     0.43755   0.04650   0.03978   0.00000  Uiso   1.00
C95    C     0.52287   0.31853   0.25042   0.00000  Uiso   1.00
C96    C     0.47713   0.01481   0.24955   0.00000  Uiso   1.00
N97    N     0.65011   0.15265   0.23783   0.00000  Uiso   1.00
N98    N     0.34989   0.18068   0.26217   0.00000  Uiso   1.00
N99    N     0.44255   0.08379   0.11776   0.00000  Uiso   1.00
O100   O     0.47059   0.05934   0.14545   0.00000  Uiso   1.00
O101   O     0.38999   0.06848   0.11095   0.00000  Uiso   1.00
N102   N     0.55755   0.24952   0.38222   0.00000  Uiso   1.00
O103   O     0.52953   0.27395   0.35450   0.00000  Uiso   1.00
O104   O     0.61012   0.26481   0.38902   0.00000  Uiso   1.00
N105   N     0.55977   0.24620   0.11815   0.00000  Uiso   1.00
O106   O     0.61500   0.24942   0.11052   0.00000  Uiso   1.00
O107   O     0.53620   0.27512   0.14961   0.00000  Uiso   1.00
N108   N     0.44003   0.08726   0.38194   0.00000  Uiso   1.00
O109   O     0.38486   0.08387   0.38997   0.00000  Uiso   1.00
O110   O     0.46335   0.05842   0.35031   0.00000  Uiso   1.00
N111   N     0.55803   0.30345   0.04515   0.00000  Uiso   1.00
O112   O     0.51903   0.32561   0.07056   0.00000  Uiso   1.00
O113   O     0.60414   0.33039   0.03212   0.00000  Uiso   1.00
N114   N     0.44259   0.02976   0.45481   0.00000  Uiso   1.00
O115   O     0.39686   0.00240   0.46802   0.00000  Uiso   1.00
O116   O     0.48163   0.00801   0.42915   0.00000  Uiso   1.00
N117   N     0.58027   0.00543   0.25602   0.00000  Uiso   1.00
O118   O     0.61916   0.33275   0.22367   0.00000  Uiso   1.00
O119   O     0.59502   0.02276   0.29514   0.00000  Uiso   1.00
N120   N     0.41973   0.32790   0.24394   0.00000  Uiso   1.00
O121   O     0.38084   0.00058   0.27627   0.00000  Uiso   1.00
O122   O     0.40501   0.31055   0.20481   0.00000  Uiso   1.00
Cl123  Cl    0.34625   0.10770   0.20137   0.00000  Uiso   1.00
Cl124  Cl    0.65376   0.22565   0.29862   0.00000  Uiso   1.00
O125   O     0.79642   0.24619   0.25298   0.00000  Uiso   1.00
O126   O     0.87025   0.08714   0.24701   0.00000  Uiso   1.00
O127   O     0.89280   0.23721   0.24518   0.00000  Uiso   1.00
O128   O     0.77387   0.09613   0.25481   0.00000  Uiso   1.00
C129   C     0.84818   0.26450   0.24867   0.00000  Uiso   1.00
C130   C     0.81849   0.06883   0.25132   0.00000  Uiso   1.00
O131   O     0.78514   0.17117   0.31997   0.00000  Uiso   1.00
O132   O     0.88153   0.16216   0.18002   0.00000  Uiso   1.00
O133   O     0.88152   0.16219   0.31217   0.00000  Uiso   1.00
O134   O     0.78515   0.17115   0.18782   0.00000  Uiso   1.00
C135   C     0.83418   0.16680   0.33624   0.00000  Uiso   1.00
C136   C     0.83249   0.16653   0.16376   0.00000  Uiso   1.00
Zn137  Zn    0.76898   0.17266   0.25521   0.00000  Uiso   1.00
Zn138  Zn    0.89769   0.16067   0.24479   0.00000  Uiso   1.00
C139   C     0.80347   0.12595   0.09342   0.00000  Uiso   1.00
C140   C     0.86328   0.20737   0.40657   0.00000  Uiso   1.00
C141   C     0.83090   0.16734   0.11613   0.00000  Uiso   1.00
C142   C     0.83578   0.16601   0.38387   0.00000  Uiso   1.00
C143   C     0.85886   0.20877   0.09370   0.00000  Uiso   1.00
C144   C     0.80781   0.12460   0.40632   0.00000  Uiso   1.00
C145   C     0.85627   0.21091   0.04719   0.00000  Uiso   1.00
C146   C     0.81055   0.12242   0.45282   0.00000  Uiso   1.00
C147   C     0.83224   0.16736   0.02350   0.00000  Uiso   1.00
C148   C     0.83457   0.16597   0.47650   0.00000  Uiso   1.00
C149   C     0.80624   0.12493   0.04671   0.00000  Uiso   1.00
C150   C     0.86056   0.20840   0.45328   0.00000  Uiso   1.00
C151   C     0.87754   0.25467   0.02341   0.00000  Uiso   1.00
C152   C     0.78941   0.07861   0.47658   0.00000  Uiso   1.00
C153   C     0.88054   0.25233   0.47713   0.00000  Uiso   1.00
C154   C     0.78635   0.08096   0.02286   0.00000  Uiso   1.00
H155   H     0.89606   0.28678   0.46022   0.00000  Uiso   1.00
H156   H     0.77088   0.04650   0.03978   0.00000  Uiso   1.00
C157   C     0.85620   0.31853   0.25042   0.00000  Uiso   1.00
C158   C     0.81047   0.01481   0.24955   0.00000  Uiso   1.00
N159   N     0.98344   0.15265   0.23783   0.00000  Uiso   1.00
N160   N     0.68322   0.18068   0.26217   0.00000  Uiso   1.00
N161   N     0.77588   0.08379   0.11776   0.00000  Uiso   1.00
O162   O     0.80392   0.05934   0.14545   0.00000  Uiso   1.00
O163   O     0.72332   0.06848   0.11095   0.00000  Uiso   1.00
N164   N     0.89089   0.24952   0.38222   0.00000  Uiso   1.00
O165   O     0.86287   0.27395   0.35450   0.00000  Uiso   1.00
O166   O     0.94345   0.26481   0.38902   0.00000  Uiso   1.00
N167   N     0.89311   0.24620   0.11815   0.00000  Uiso   1.00
O168   O     0.94833   0.24942   0.11052   0.00000  Uiso   1.00
O169   O     0.86954   0.27512   0.14961   0.00000  Uiso   1.00
N170   N     0.77336   0.08726   0.38194   0.00000  Uiso   1.00
O171   O     0.71820   0.08387   0.38997   0.00000  Uiso   1.00
O172   O     0.79668   0.05842   0.35031   0.00000  Uiso   1.00
N173   N     0.89136   0.30345   0.04515   0.00000  Uiso   1.00
O174   O     0.85237   0.32561   0.07056   0.00000  Uiso   1.00
O175   O     0.93748   0.33039   0.03212   0.00000  Uiso   1.00
N176   N     0.77592   0.02976   0.45481   0.00000  Uiso   1.00
O177   O     0.73019   0.00240   0.46802   0.00000  Uiso   1.00
O178   O     0.81496   0.00801   0.42915   0.00000  Uiso   1.00
N179   N     0.91361   0.00543   0.25602   0.00000  Uiso   1.00
O180   O     0.95249   0.33275   0.22367   0.00000  Uiso   1.00
O181   O     0.92835   0.02276   0.29514   0.00000  Uiso   1.00
N182   N     0.75307   0.32790   0.24394   0.00000  Uiso   1.00
O183   O     0.71417   0.00058   0.27627   0.00000  Uiso   1.00
O184   O     0.73834   0.31055   0.20481   0.00000  Uiso   1.00
Cl185  Cl    0.67958   0.10770   0.20137   0.00000  Uiso   1.00
Cl186  Cl    0.98709   0.22565   0.29862   0.00000  Uiso   1.00
O187   O     0.12975   0.57952   0.25298   0.00000  Uiso   1.00
O188   O     0.20358   0.42048   0.24701   0.00000  Uiso   1.00
O189   O     0.22613   0.57054   0.24518   0.00000  Uiso   1.00
O190   O     0.10720   0.42946   0.25481   0.00000  Uiso   1.00
C191   C     0.18151   0.59783   0.24867   0.00000  Uiso   1.00
C192   C     0.15182   0.40217   0.25132   0.00000  Uiso   1.00
O193   O     0.11847   0.50450   0.31997   0.00000  Uiso   1.00
O194   O     0.21486   0.49550   0.18002   0.00000  Uiso   1.00
O195   O     0.21485   0.49552   0.31217   0.00000  Uiso   1.00
O196   O     0.11848   0.50448   0.18782   0.00000  Uiso   1.00
C197   C     0.16751   0.50013   0.33624   0.00000  Uiso   1.00
C198   C     0.16582   0.49987   0.16376   0.00000  Uiso   1.00
Zn199  Zn    0.10231   0.50600   0.25521   0.00000  Uiso   1.00
Zn200  Zn    0.23102   0.49400   0.24479   0.00000  Uiso   1.00
C201   C     0.13680   0.45928   0.09342   0.00000  Uiso   1.00
C202   C     0.19661   0.54071   0.40657   0.00000  Uiso   1.00
C203   C     0.16423   0.50067   0.11613   0.00000  Uiso   1.00
C204   C     0.16911   0.49934   0.38387   0.00000  Uiso   1.00
C205   C     0.19220   0.54210   0.09370   0.00000  Uiso   1.00
C206   C     0.14114   0.45793   0.40632   0.00000  Uiso   1.00
C207   C     0.18960   0.54424   0.04719   0.00000  Uiso   1.00
C208   C     0.14388   0.45575   0.45282   0.00000  Uiso   1.00
C209   C     0.16557   0.50069   0.02350   0.00000  Uiso   1.00
C210   C     0.16790   0.49930   0.47650   0.00000  Uiso   1.00
C211   C     0.13957   0.45826   0.04671   0.00000  Uiso   1.00
C212   C     0.19390   0.54173   0.45328   0.00000  Uiso   1.00
C213   C     0.21087   0.58800   0.02341   0.00000  Uiso   1.00
C214   C     0.12274   0.41194   0.47658   0.00000  Uiso   1.00
C215   C     0.21387   0.58567   0.47713   0.00000  Uiso   1.00
C216   C     0.11968   0.41429   0.02286   0.00000  Uiso   1.00
H217   H     0.22939   0.62011   0.46022   0.00000  Uiso   1.00
H218   H     0.10422   0.37983   0.03978   0.00000  Uiso   1.00
C219   C     0.18954   0.65186   0.25042   0.00000  Uiso   1.00
C220   C     0.14380   0.34814   0.24955   0.00000  Uiso   1.00
N221   N     0.31678   0.48598   0.23783   0.00000  Uiso   1.00
N222   N     0.01656   0.51402   0.26217   0.00000  Uiso   1.00
N223   N     0.10921   0.41713   0.11776   0.00000  Uiso   1.00
O224   O     0.13726   0.39267   0.14545   0.00000  Uiso   1.00
O225   O     0.05665   0.40182   0.11095   0.00000  Uiso   1.00
N226   N     0.22422   0.58285   0.38222   0.00000  Uiso   1.00
O227   O     0.19620   0.60728   0.35450   0.00000  Uiso   1.00
O228   O     0.27679   0.59814   0.38902   0.00000  Uiso   1.00
N229   N     0.22644   0.57953   0.11815   0.00000  Uiso   1.00
O230   O     0.28167   0.58275   0.11052   0.00000  Uiso   1.00
O231   O     0.20287   0.60845   0.14961   0.00000  Uiso   1.00
N232   N     0.10669   0.42059   0.38194   0.00000  Uiso   1.00
O233   O     0.05153   0.41720   0.38997   0.00000  Uiso   1.00
O234   O     0.13001   0.39175   0.35031   0.00000  Uiso   1.00
N235   N     0.22469   0.63679   0.04515   0.00000  Uiso   1.00
O236   O     0.18570   0.65894   0.07056   0.00000  Uiso   1.00
O237   O     0.27081   0.66372   0.03212   0.00000  Uiso   1.00
N238   N     0.10925   0.36310   0.45481   0.00000  Uiso   1.00
O239   O     0.06352   0.33573   0.46802   0.00000  Uiso   1.00
O240   O     0.14829   0.34135   0.42915   0.00000  Uiso   1.00
N241   N     0.24694   0.33876   0.25602   0.00000  Uiso   1.00
O242   O     0.28582   0.66608   0.22367   0.00000  Uiso   1.00
O243   O     0.26169   0.35610   0.29514   0.00000  Uiso   1.00
N244   N     0.08640   0.66124   0.24394   0.00000  Uiso   1.00
O245   O     0.04750   0.33392   0.27627   0.00000  Uiso   1.00
O246   O     0.07167   0.64389   0.20481   0.00000  Uiso   1.00
Cl247  Cl    0.01291   0.44104   0.20137   0.00000  Uiso   1.00
Cl248  Cl    0.32043   0.55898   0.29862   0.00000  Uiso   1.00
O249   O     0.46308   0.57952   0.25298   0.00000  Uiso   1.00
O250   O     0.53692   0.42048   0.24701   0.00000  Uiso   1.00
O251   O     0.55946   0.57054   0.24518   0.00000  Uiso   1.00
O252   O     0.44054   0.42946   0.25481   0.00000  Uiso   1.00
C253   C     0.51485   0.59783   0.24867   0.00000  Uiso   1.00
C254   C     0.48515   0.40217   0.25132   0.00000  Uiso   1.00
O255   O     0.45181   0.50450   0.31997   0.00000  Uiso   1.00
O256   O     0.54819   0.49550   0.18002   0.00000  Uiso   1.00
O257   O     0.54819   0.49552   0.31217   0.00000  Uiso   1.00
O258   O     0.45181   0.50448   0.18782   0.00000  Uiso   1.00
C259   C     0.50084   0.50013   0.33624   0.00000  Uiso   1.00
C260   C     0.49916   0.49987   0.16376   0.00000  Uiso   1.00
Zn261  Zn    0.43565   0.50600   0.25521   0.00000  Uiso   1.00
Zn262  Zn    0.56435   0.49400   0.24479   0.00000  Uiso   1.00
C263   C     0.47014   0.45928   0.09342   0.00000  Uiso   1.00
C264   C     0.52995   0.54071   0.40657   0.00000  Uiso   1.00
C265   C     0.49757   0.50067   0.11613   0.00000  Uiso   1.00
C266   C     0.50245   0.49934   0.38387   0.00000  Uiso   1.00
C267   C     0.52553   0.54210   0.09370   0.00000  Uiso   1.00
C268   C     0.47448   0.45793   0.40632   0.00000  Uiso   1.00
C269   C     0.52293   0.54424   0.04719   0.00000  Uiso   1.00
C270   C     0.47721   0.45575   0.45282   0.00000  Uiso   1.00
C271   C     0.49891   0.50069   0.02350   0.00000  Uiso   1.00
C272   C     0.50123   0.49930   0.47650   0.00000  Uiso   1.00
C273   C     0.47290   0.45826   0.04671   0.00000  Uiso   1.00
C274   C     0.52723   0.54173   0.45328   0.00000  Uiso   1.00
C275   C     0.54421   0.58800   0.02341   0.00000  Uiso   1.00
C276   C     0.45608   0.41194   0.47658   0.00000  Uiso   1.00
C277   C     0.54720   0.58567   0.47713   0.00000  Uiso   1.00
C278   C     0.45301   0.41429   0.02286   0.00000  Uiso   1.00
H279   H     0.56273   0.62011   0.46022   0.00000  Uiso   1.00
H280   H     0.43755   0.37983   0.03978   0.00000  Uiso   1.00
C281   C     0.52287   0.65186   0.25042   0.00000  Uiso   1.00
C282   C     0.47713   0.34814   0.24955   0.00000  Uiso   1.00
N283   N     0.65011   0.48598   0.23783   0.00000  Uiso   1.00
N284   N     0.34989   0.51402   0.26217   0.00000  Uiso   1.00
N285   N     0.44255   0.41713   0.11776   0.00000  Uiso   1.00
O286   O     0.47059   0.39267   0.14545   0.00000  Uiso   1.00
O287   O     0.38999   0.40182   0.11095   0.00000  Uiso   1.00
N288   N     0.55755   0.58285   0.38222   0.00000  Uiso   1.00
O289   O     0.52953   0.60728   0.35450   0.00000  Uiso   1.00
O290   O     0.61012   0.59814   0.38902   0.00000  Uiso   1.00
N291   N     0.55977   0.57953   0.11815   0.00000  Uiso   1.00
O292   O     0.61500   0.58275   0.11052   0.00000  Uiso   1.00
O293   O     0.53620   0.60845   0.14961   0.00000  Uiso   1.00
N294   N     0.44003   0.42059   0.38194   0.00000  Uiso   1.00
O295   O     0.38486   0.41720   0.38997   0.00000  Uiso   1.00
O296   O     0.46335   0.39175   0.35031   0.00000  Uiso   1.00
N297   N     0.55803   0.63679   0.04515   0.00000  Uiso   1.00
O298   O     0.51903   0.65894   0.07056   0.00000  Uiso   1.00
O299   O     0.60414   0.66372   0.03212   0.00000  Uiso   1.00
N300   N     0.44259   0.36310   0.45481   0.00000  Uiso   1.00
O301   O     0.39686   0.33573   0.46802   0.00000  Uiso   1.00
O302   O     0.48163   0.34135   0.42915   0.00000  Uiso   1.00
N303   N     0.58027   0.33876   0.25602   0.00000  Uiso   1.00
O304   O     0.61916   0.66608   0.22367   0.00000  Uiso   1.00
O305   O     0.59502   0.35610   0.29514   0.00000  Uiso   1.00
N306   N     0.41973   0.66124   0.24394   0.00000  Uiso   1.00
O307   O     0.38084   0.33392   0.27627   0.00000  Uiso   1.00
O308   O     0.40501   0.64389   0.20481   0.00000  Uiso   1.00
Cl309  Cl    0.34625   0.44104   0.20137   0.00000  Uiso   1.00
Cl310  Cl    0.65376   0.55898   0.29862   0.00000  Uiso   1.00
O311   O     0.79642   0.57952   0.25298   0.00000  Uiso   1.00
O312   O     0.87025   0.42048   0.24701   0.00000  Uiso   1.00
O313   O     0.89280   0.57054   0.24518   0.00000  Uiso   1.00
O314   O     0.77387   0.42946   0.25481   0.00000  Uiso   1.00
C315   C     0.84818   0.59783   0.24867   0.00000  Uiso   1.00
C316   C     0.81849   0.40217   0.25132   0.00000  Uiso   1.00
O317   O     0.78514   0.50450   0.31997   0.00000  Uiso   1.00
O318   O     0.88153   0.49550   0.18002   0.00000  Uiso   1.00
O319   O     0.88152   0.49552   0.31217   0.00000  Uiso   1.00
O320   O     0.78515   0.50448   0.18782   0.00000  Uiso   1.00
C321   C     0.83418   0.50013   0.33624   0.00000  Uiso   1.00
C322   C     0.83249   0.49987   0.16376   0.00000  Uiso   1.00
Zn323  Zn    0.76898   0.50600   0.25521   0.00000  Uiso   1.00
Zn324  Zn    0.89769   0.49400   0.24479   0.00000  Uiso   1.00
C325   C     0.80347   0.45928   0.09342   0.00000  Uiso   1.00
C326   C     0.86328   0.54071   0.40657   0.00000  Uiso   1.00
C327   C     0.83090   0.50067   0.11613   0.00000  Uiso   1.00
C328   C     0.83578   0.49934   0.38387   0.00000  Uiso   1.00
C329   C     0.85886   0.54210   0.09370   0.00000  Uiso   1.00
C330   C     0.80781   0.45793   0.40632   0.00000  Uiso   1.00
C331   C     0.85627   0.54424   0.04719   0.00000  Uiso   1.00
C332   C     0.81055   0.45575   0.45282   0.00000  Uiso   1.00
C333   C     0.83224   0.50069   0.02350   0.00000  Uiso   1.00
C334   C     0.83457   0.49930   0.47650   0.00000  Uiso   1.00
C335   C     0.80624   0.45826   0.04671   0.00000  Uiso   1.00
C336   C     0.86056   0.54173   0.45328   0.00000  Uiso   1.00
C337   C     0.87754   0.58800   0.02341   0.00000  Uiso   1.00
C338   C     0.78941   0.41194   0.47658   0.00000  Uiso   1.00
C339   C     0.88054   0.58567   0.47713   0.00000  Uiso   1.00
C340   C     0.78635   0.41429   0.02286   0.00000  Uiso   1.00
H341   H     0.89606   0.62011   0.46022   0.00000  Uiso   1.00
H342   H     0.77088   0.37983   0.03978   0.00000  Uiso   1.00
C343   C     0.85620   0.65186   0.25042   0.00000  Uiso   1.00
C344   C     0.81047   0.34814   0.24955   0.00000  Uiso   1.00
N345   N     0.98344   0.48598   0.23783   0.00000  Uiso   1.00
N346   N     0.68322   0.51402   0.26217   0.00000  Uiso   1.00
N347   N     0.77588   0.41713   0.11776   0.00000  Uiso   1.00
O348   O     0.80392   0.39267   0.14545   0.00000  Uiso   1.00
O349   O     0.72332   0.40182   0.11095   0.00000  Uiso   1.00
N350   N     0.89089   0.58285   0.38222   0.00000  Uiso   1.00
O351   O     0.86287   0.60728   0.35450   0.00000  Uiso   1.00
O352   O     0.94345   0.59814   0.38902   0.00000  Uiso   1.00
N353   N     0.89311   0.57953   0.11815   0.00000  Uiso   1.00
O354   O     0.94833   0.58275   0.11052   0.00000  Uiso   1.00
O355   O     0.86954   0.60845   0.14961   0.00000  Uiso   1.00
N356   N     0.77336   0.42059   0.38194   0.00000  Uiso   1.00
O357   O     0.71820   0.41720   0.38997   0.00000  Uiso   1.00
O358   O     0.79668   0.39175   0.35031   0.00000  Uiso   1.00
N359   N     0.89136   0.63679   0.04515   0.00000  Uiso   1.00
O360   O     0.85237   0.65894   0.07056   0.00000  Uiso   1.00
O361   O     0.93748   0.66372   0.03212   0.00000  Uiso   1.00
N362   N     0.77592   0.36310   0.45481   0.00000  Uiso   1.00
O363   O     0.73019   0.33573   0.46802   0.00000  Uiso   1.00
O364   O     0.81496   0.34135   0.42915   0.00000  Uiso   1.00
N365   N     0.91361   0.33876   0.25602   0.00000  Uiso   1.00
O366   O     0.95249   0.66608   0.22367   0.00000  Uiso   1.00
O367   O     0.92835   0.35610   0.29514   0.00000  Uiso   1.00
N368   N     0.75307   0.66124   0.24394   0.00000  Uiso   1.00
O369   O     0.71417   0.33392   0.27627   0.00000  Uiso   1.00
O370   O     0.73834   0.64389   0.20481   0.00000  Uiso   1.00
Cl371  Cl    0.67958   0.44104   0.20137   0.00000  Uiso   1.00
Cl372  Cl    0.98709   0.55898   0.29862   0.00000  Uiso   1.00
O373   O     0.12975   0.91286   0.25298   0.00000  Uiso   1.00
O374   O     0.20358   0.75381   0.24701   0.00000  Uiso   1.00
O375   O     0.22613   0.90387   0.24518   0.00000  Uiso   1.00
O376   O     0.10720   0.76279   0.25481   0.00000  Uiso   1.00
C377   C     0.18151   0.93116   0.24867   0.00000  Uiso   1.00
C378   C     0.15182   0.73550   0.25132   0.00000  Uiso   1.00
O379   O     0.11847   0.83784   0.31997   0.00000  Uiso   1.00
O380   O     0.21486   0.82883   0.18002   0.00000  Uiso   1.00
O381   O     0.21485   0.82885   0.31217   0.00000  Uiso   1.00
O382   O     0.11848   0.83781   0.18782   0.00000  Uiso   1.00
C383   C     0.16751   0.83347   0.33624   0.00000  Uiso   1.00
C384   C     0.16582   0.83320   0.16376   0.00000  Uiso   1.00
Zn385  Zn    0.10231   0.83933   0.25521   0.00000  Uiso   1.00
Zn386  Zn    0.23102   0.82734   0.24479   0.00000  Uiso   1.00
C387   C     0.13680   0.79262   0.09342   0.00000  Uiso   1.00
C388   C     0.19661   0.87404   0.40657   0.00000  Uiso   1.00
C389   C     0.16423   0.83400   0.11613   0.00000  Uiso   1.00
C390   C     0.16911   0.83268   0.38387   0.00000  Uiso   1.00
C391   C     0.19220   0.87543   0.09370   0.00000  Uiso   1.00
C392   C     0.14114   0.79126   0.40632   0.00000  Uiso   1.00
C393   C     0.18960   0.87757   0.04719   0.00000  Uiso   1.00
C394   C     0.14388   0.78909   0.45282   0.00000  Uiso   1.00
C395   C     0.16557   0.83402   0.02350   0.00000  Uiso   1.00
C396   C     0.16790   0.83264   0.47650   0.00000  Uiso   1.00
C397   C     0.13957   0.79159   0.04671   0.00000  Uiso   1.00
C398   C     0.19390   0.87506   0.45328   0.00000  Uiso   1.00
C399   C     0.21087   0.92134   0.02341   0.00000  Uiso   1.00
C400   C     0.12274   0.74527   0.47658   0.00000  Uiso   1.00
C401   C     0.21387   0.91900   0.47713   0.00000  Uiso   1.00
C402   C     0.11968   0.74762   0.02286   0.00000  Uiso   1.00
H403   H     0.22939   0.95345   0.46022   0.00000  Uiso   1.00
H404   H     0.10422   0.71317   0.03978   0.00000  Uiso   1.00
C405   C     0.18954   0.98519   0.25042   0.00000  Uiso   1.00
C406   C     0.14380   0.68147   0.24955   0.00000  Uiso   1.00
N407   N     0.31678   0.81932   0.23783   0.00000  Uiso   1.00
N408   N     0.01656   0.84735   0.26217   0.00000  Uiso   1.00
N409   N     0.10921   0.75046   0.11776   0.00000  Uiso   1.00
O410   O     0.13726   0.72600   0.14545   0.00000  Uiso   1.00
O411   O     0.05665   0.73515   0.11095   0.00000  Uiso   1.00
N412   N     0.22422   0.91618   0.38222   0.00000  Uiso   1.00
O413   O     0.19620   0.94062   0.35450   0.00000  Uiso   1.00
O414   O     0.27679   0.93148   0.38902   0.00000  Uiso   1.00
N415   N     0.22644   0.91286   0.11815   0.00000  Uiso   1.00
O416   O     0.28167   0.91609   0.11052   0.00000  Uiso   1.00
O417   O     0.20287   0.94179   0.14961   0.00000  Uiso   1.00
N418   N     0.10669   0.75392   0.38194   0.00000  Uiso   1.00
O419   O     0.05153   0.75054   0.38997   0.00000  Uiso   1.00
O420   O     0.13001   0.72508   0.35031   0.00000  Uiso   1.00
N421   N     0.22469   0.97012   0.04515   0.00000  Uiso   1.00
O422   O     0.18570   0.99228   0.07056   0.00000  Uiso   1.00
O423   O     0.27081   0.99705   0.03212   0.00000  Uiso   1.00
N424   N     0.10925   0.69643   0.45481   0.00000  Uiso   1.00
O425   O     0.06352   0.66907   0.46802   0.00000  Uiso   1.00
O426   O     0.14829   0.67468   0.42915   0.00000  Uiso   1.00
N427   N     0.24694   0.67210   0.25602   0.00000  Uiso   1.00
O428   O     0.28582   0.99942   0.22367   0.00000  Uiso   1.00
O429   O     0.26169   0.68943   0.29514   0.00000  Uiso   1.00
N430   N     0.08640   0.99457   0.24394   0.00000  Uiso   1.00
O431   O     0.04750   0.66725   0.27627   0.00000  Uiso   1.00
O432   O     0.07167   0.97722   0.20481   0.00000  Uiso   1.00
Cl433  Cl    0.01291   0.77437   0.20137   0.00000  Uiso   1.00
Cl434  Cl    0.32043   0.89231   0.29862   0.00000  Uiso   1.00
O435   O     0.46308   0.91286   0.25298   0.00000  Uiso   1.00
O436   O     0.53692   0.75381   0.24701   0.00000  Uiso   1.00
O437   O     0.55946   0.90387   0.24518   0.00000  Uiso   1.00
O438   O     0.44054   0.76279   0.25481   0.00000  Uiso   1.00
C439   C     0.51485   0.93116   0.24867   0.00000  Uiso   1.00
C440   C     0.48515   0.73550   0.25132   0.00000  Uiso   1.00
O441   O     0.45181   0.83784   0.31997   0.00000  Uiso   1.00
O442   O     0.54819   0.82883   0.18002   0.00000  Uiso   1.00
O443   O     0.54819   0.82885   0.31217   0.00000  Uiso   1.00
O444   O     0.45181   0.83781   0.18782   0.00000  Uiso   1.00
C445   C     0.50084   0.83347   0.33624   0.00000  Uiso   1.00
C446   C     0.49916   0.83320   0.16376   0.00000  Uiso   1.00
Zn447  Zn    0.43565   0.83933   0.25521   0.00000  Uiso   1.00
Zn448  Zn    0.56435   0.82734   0.24479   0.00000  Uiso   1.00
C449   C     0.47014   0.79262   0.09342   0.00000  Uiso   1.00
C450   C     0.52995   0.87404   0.40657   0.00000  Uiso   1.00
C451   C     0.49757   0.83400   0.11613   0.00000  Uiso   1.00
C452   C     0.50245   0.83268   0.38387   0.00000  Uiso   1.00
C453   C     0.52553   0.87543   0.09370   0.00000  Uiso   1.00
C454   C     0.47448   0.79126   0.40632   0.00000  Uiso   1.00
C455   C     0.52293   0.87757   0.04719   0.00000  Uiso   1.00
C456   C     0.47721   0.78909   0.45282   0.00000  Uiso   1.00
C457   C     0.49891   0.83402   0.02350   0.00000  Uiso   1.00
C458   C     0.50123   0.83264   0.47650   0.00000  Uiso   1.00
C459   C     0.47290   0.79159   0.04671   0.00000  Uiso   1.00
C460   C     0.52723   0.87506   0.45328   0.00000  Uiso   1.00
C461   C     0.54421   0.92134   0.02341   0.00000  Uiso   1.00
C462   C     0.45608   0.74527   0.47658   0.00000  Uiso   1.00
C463   C     0.54720   0.91900   0.47713   0.00000  Uiso   1.00
C464   C     0.45301   0.74762   0.02286   0.00000  Uiso   1.00
H465   H     0.56273   0.95345   0.46022   0.00000  Uiso   1.00
H466   H     0.43755   0.71317   0.03978   0.00000  Uiso   1.00
C467   C     0.52287   0.98519   0.25042   0.00000  Uiso   1.00
C468   C     0.47713   0.68147   0.24955   0.00000  Uiso   1.00
N469   N     0.65011   0.81932   0.23783   0.00000  Uiso   1.00
N470   N     0.34989   0.84735   0.26217   0.00000  Uiso   1.00
N471   N     0.44255   0.75046   0.11776   0.00000  Uiso   1.00
O472   O     0.47059   0.72600   0.14545   0.00000  Uiso   1.00
O473   O     0.38999   0.73515   0.11095   0.00000  Uiso   1.00
N474   N     0.55755   0.91618   0.38222   0.00000  Uiso   1.00
O475   O     0.52953   0.94062   0.35450   0.00000  Uiso   1.00
O476   O     0.61012   0.93148   0.38902   0.00000  Uiso   1.00
N477   N     0.55977   0.91286   0.11815   0.00000  Uiso   1.00
O478   O     0.61500   0.91609   0.11052   0.00000  Uiso   1.00
O479   O     0.53620   0.94179   0.14961   0.00000  Uiso   1.00
N480   N     0.44003   0.75392   0.38194   0.00000  Uiso   1.00
O481   O     0.38486   0.75054   0.38997   0.00000  Uiso   1.00
O482   O     0.46335   0.72508   0.35031   0.00000  Uiso   1.00
N483   N     0.55803   0.97012   0.04515   0.00000  Uiso   1.00
O484   O     0.51903   0.99228   0.07056   0.00000  Uiso   1.00
O485   O     0.60414   0.99705   0.03212   0.00000  Uiso   1.00
N486   N     0.44259   0.69643   0.45481   0.00000  Uiso   1.00
O487   O     0.39686   0.66907   0.46802   0.00000  Uiso   1.00
O488   O     0.48163   0.67468   0.42915   0.00000  Uiso   1.00
N489   N     0.58027   0.67210   0.25602   0.00000  Uiso   1.00
O490   O     0.61916   0.99942   0.22367   0.00000  Uiso   1.00
O491   O     0.59502   0.68943   0.29514   0.00000  Uiso   1.00
N492   N     0.41973   0.99457   0.24394   0.00000  Uiso   1.00
O493   O     0.38084   0.66725   0.27627   0.00000  Uiso   1.00
O494   O     0.40501   0.97722   0.20481   0.00000  Uiso   1.00
Cl495  Cl    0.34625   0.77437   0.20137   0.00000  Uiso   1.00
Cl496  Cl    0.65376   0.89231   0.29862   0.00000  Uiso   1.00
O497   O     0.79642   0.91286   0.25298   0.00000  Uiso   1.00
O498   O     0.87025   0.75381   0.24701   0.00000  Uiso   1.00
O499   O     0.89280   0.90387   0.24518   0.00000  Uiso   1.00
O500   O     0.77387   0.76279   0.25481   0.00000  Uiso   1.00
C501   C     0.84818   0.93116   0.24867   0.00000  Uiso   1.00
C502   C     0.81849   0.73550   0.25132   0.00000  Uiso   1.00
O503   O     0.78514   0.83784   0.31997   0.00000  Uiso   1.00
O504   O     0.88153   0.82883   0.18002   0.00000  Uiso   1.00
O505   O     0.88152   0.82885   0.31217   0.00000  Uiso   1.00
O506   O     0.78515   0.83781   0.18782   0.00000  Uiso   1.00
C507   C     0.83418   0.83347   0.33624   0.00000  Uiso   1.00
C508   C     0.83249   0.83320   0.16376   0.00000  Uiso   1.00
Zn509  Zn    0.76898   0.83933   0.25521   0.00000  Uiso   1.00
Zn510  Zn    0.89769   0.82734   0.24479   0.00000  Uiso   1.00
C511   C     0.80347   0.79262   0.09342   0.00000  Uiso   1.00
C512   C     0.86328   0.87404   0.40657   0.00000  Uiso   1.00
C513   C     0.83090   0.83400   0.11613   0.00000  Uiso   1.00
C514   C     0.83578   0.83268   0.38387   0.00000  Uiso   1.00
C515   C     0.85886   0.87543   0.09370   0.00000  Uiso   1.00
C516   C     0.80781   0.79126   0.40632   0.00000  Uiso   1.00
C517   C     0.85627   0.87757   0.04719   0.00000  Uiso   1.00
C518   C     0.81055   0.78909   0.45282   0.00000  Uiso   1.00
C519   C     0.83224   0.83402   0.02350   0.00000  Uiso   1.00
C520   C     0.83457   0.83264   0.47650   0.00000  Uiso   1.00
C521   C     0.80624   0.79159   0.04671   0.00000  Uiso   1.00
C522   C     0.86056   0.87506   0.45328   0.00000  Uiso   1.00
C523   C     0.87754   0.92134   0.02341   0.00000  Uiso   1.00
C524   C     0.78941   0.74527   0.47658   0.00000  Uiso   1.00
C525   C     0.88054   0.91900   0.47713   0.00000  Uiso   1.00
C526   C     0.78635   0.74762   0.02286   0.00000  Uiso   1.00
H527   H     0.89606   0.95345   0.46022   0.00000  Uiso   1.00
H528   H     0.77088   0.71317   0.03978   0.00000  Uiso   1.00
C529   C     0.85620   0.98519   0.25042   0.00000  Uiso   1.00
C530   C     0.81047   0.68147   0.24955   0.00000  Uiso   1.00
N531   N     0.98344   0.81932   0.23783   0.00000  Uiso   1.00
N532   N     0.68322   0.84735   0.26217   0.00000  Uiso   1.00
N533   N     0.77588   0.75046   0.11776   0.00000  Uiso   1.00
O534   O     0.80392   0.72600   0.14545   0.00000  Uiso   1.00
O535   O     0.72332   0.73515   0.11095   0.00000  Uiso   1.00
N536   N     0.89089   0.91618   0.38222   0.00000  Uiso   1.00
O537   O     0.86287   0.94062   0.35450   0.00000  Uiso   1.00
O538   O     0.94345   0.93148   0.38902   0.00000  Uiso   1.00
N539   N     0.89311   0.91286   0.11815   0.00000  Uiso   1.00
O540   O     0.94833   0.91609   0.11052   0.00000  Uiso   1.00
O541   O     0.86954   0.94179   0.14961   0.00000  Uiso   1.00
N542   N     0.77336   0.75392   0.38194   0.00000  Uiso   1.00
O543   O     0.71820   0.75054   0.38997   0.00000  Uiso   1.00
O544   O     0.79668   0.72508   0.35031   0.00000  Uiso   1.00
N545   N     0.89136   0.97012   0.04515   0.00000  Uiso   1.00
O546   O     0.85237   0.99228   0.07056   0.00000  Uiso   1.00
O547   O     0.93748   0.99705   0.03212   0.00000  Uiso   1.00
N548   N     0.77592   0.69643   0.45481   0.00000  Uiso   1.00
O549   O     0.73019   0.66907   0.46802   0.00000  Uiso   1.00
O550   O     0.81496   0.67468   0.42915   0.00000  Uiso   1.00
N551   N     0.91361   0.67210   0.25602   0.00000  Uiso   1.00
O552   O     0.95249   0.99942   0.22367   0.00000  Uiso   1.00
O553   O     0.92835   0.68943   0.29514   0.00000  Uiso   1.00
N554   N     0.75307   0.99457   0.24394   0.00000  Uiso   1.00
O555   O     0.71417   0.66725   0.27627   0.00000  Uiso   1.00
O556   O     0.73834   0.97722   0.20481   0.00000  Uiso   1.00
Cl557  Cl    0.67958   0.77437   0.20137   0.00000  Uiso   1.00
Cl558  Cl    0.98709   0.89231   0.29862   0.00000  Uiso   1.00
O559   O     0.12975   0.24619   0.75298   0.00000  Uiso   1.00
O560   O     0.20358   0.08714   0.74701   0.00000  Uiso   1.00
O561   O     0.22613   0.23721   0.74518   0.00000  Uiso   1.00
O562   O     0.10720   0.09613   0.75481   0.00000  Uiso   1.00
C563   C     0.18151   0.26450   0.74867   0.00000  Uiso   1.00
C564   C     0.15182   0.06883   0.75132   0.00000  Uiso   1.00
O565   O     0.11847   0.17117   0.81997   0.00000  Uiso   1.00
O566   O     0.21486   0.16216   0.68002   0.00000  Uiso   1.00
O567   O     0.21485   0.16219   0.81217   0.00000  Uiso   1.00
O568   O     0.11848   0.17115   0.68782   0.00000  Uiso   1.00
C569   C     0.16751   0.16680   0.83624   0.00000  Uiso   1.00
C570   C     0.16582   0.16653   0.66376   0.00000  Uiso   1.00
Zn571  Zn    0.10231   0.17266   0.75521   0.00000  Uiso   1.00
Zn572  Zn    0.23102   0.16067   0.74479   0.00000  Uiso   1.00
C573   C     0.13680   0.12595   0.59342   0.00000  Uiso   1.00
C574   C     0.19661   0.20737   0.90657   0.00000  Uiso   1.00
C575   C     0.16423   0.16734   0.61613   0.00000  Uiso   1.00
C576   C     0.16911   0.16601   0.88387   0.00000  Uiso   1.00
C577   C     0.19220   0.20877   0.59370   0.00000  Uiso   1.00
C578   C     0.14114   0.12460   0.90632   0.00000  Uiso   1.00
C579   C     0.18960   0.21091   0.54719   0.00000  Uiso   1.00
C580   C     0.14388   0.12242   0.95282   0.00000  Uiso   1.00
C581   C     0.16557   0.16736   0.52350   0.00000  Uiso   1.00
C582   C     0.16790   0.16597   0.97650   0.00000  Uiso   1.00
C583   C     0.13957   0.12493   0.54671   0.00000  Uiso   1.00
C584   C     0.19390   0.20840   0.95328   0.00000  Uiso   1.00
C585   C     0.21087   0.25467   0.52341   0.00000  Uiso   1.00
C586   C     0.12274   0.07861   0.97658   0.00000  Uiso   1.00
C587   C     0.21387   0.25233   0.97713   0.00000  Uiso   1.00
C588   C     0.11968   0.08096   0.52286   0.00000  Uiso   1.00
H589   H     0.22939   0.28678   0.96022   0.00000  Uiso   1.00
H590   H     0.10422   0.04650   0.53978   0.00000  Uiso   1.00
C591   C     0.18954   0.31853   0.75042   0.00000  Uiso   1.00
C592   C     0.14380   0.01481   0.74955   0.00000  Uiso   1.00
N593   N     0.31678   0.15265   0.73783   0.00000  Uiso   1.00
N594   N     0.01656   0.18068   0.76217   0.00000  Uiso   1.00
N595   N     0.10921   0.08379   0.61776   0.00000  Uiso   1.00
O596   O     0.13726   0.05934   0.64545   0.00000  Uiso   1.00
O597   O     0.05665   0.06848   0.61095   0.00000  Uiso   1.00
N598   N     0.22422   0.24952   0.88222   0.00000  Uiso   1.00
O599   O     0.19620   0.27395   0.85450   0.00000  Uiso   1.00
O600   O     0.27679   0.26481   0.88902   0.00000  Uiso   1.00
N601   N     0.22644   0.24620   0.61815   0.00000  Uiso   1.00
O602   O     0.28167   0.24942   0.61052   0.00000  Uiso   1.00
O603   O     0.20287   0.27512   0.64961   0.00000  Uiso   1.00
N604   N     0.10669   0.08726   0.88194   0.00000  Uiso   1.00
O605   O     0.05153   0.08387   0.88997   0.00000  Uiso   1.00
O606   O     0.13001   0.05842   0.85031   0.00000  Uiso   1.00
N607   N     0.22469   0.30345   0.54515   0.00000  Uiso   1.00
O608   O     0.18570   0.32561   0.57056   0.00000  Uiso   1.00
O609   O     0.27081   0.33039   0.53212   0.00000  Uiso   1.00
N610   N     0.10925   0.02976   0.95481   0.00000  Uiso   1.00
O611   O     0.06352   0.00240   0.96802   0.00000  Uiso   1.00
O612   O     0.14829   0.00801   0.92915   0.00000  Uiso   1.00
N613   N     0.24694   0.00543   0.75602   0.00000  Uiso   1.00
O614   O     0.28582   0.33275   0.72367   0.00000  Uiso   1.00
O615   O     0.26169   0.02276   0.79514   0.00000  Uiso   1.00
N616   N     0.08640   0.32790   0.74394   0.00000  Uiso   1.00
O617   O     0.04750   0.00058   0.77627   0.00000  Uiso   1.00
O618   O     0.07167   0.31055   0.70481   0.00000  Uiso   1.00
Cl619  Cl    0.01291   0.10770   0.70137   0.00000  Uiso   1.00
Cl620  Cl    0.32043   0.22565   0.79862   0.00000  Uiso   1.00
O621   O     0.46308   0.24619   0.75298   0.00000  Uiso   1.00
O622   O     0.53692   0.08714   0.74701   0.00000  Uiso   1.00
O623   O     0.55946   0.23721   0.74518   0.00000  Uiso   1.00
O624   O     0.44054   0.09613   0.75481   0.00000  Uiso   1.00
C625   C     0.51485   0.26450   0.74867   0.00000  Uiso   1.00
C626   C     0.48515   0.06883   0.75132   0.00000  Uiso   1.00
O627   O     0.45181   0.17117   0.81997   0.00000  Uiso   1.00
O628   O     0.54819   0.16216   0.68002   0.00000  Uiso   1.00
O629   O     0.54819   0.16219   0.81217   0.00000  Uiso   1.00
O630   O     0.45181   0.17115   0.68782   0.00000  Uiso   1.00
C631   C     0.50084   0.16680   0.83624   0.00000  Uiso   1.00
C632   C     0.49916   0.16653   0.66376   0.00000  Uiso   1.00
Zn633  Zn    0.43565   0.17266   0.75521   0.00000  Uiso   1.00
Zn634  Zn    0.56435   0.16067   0.74479   0.00000  Uiso   1.00
C635   C     0.47014   0.12595   0.59342   0.00000  Uiso   1.00
C636   C     0.52995   0.20737   0.90657   0.00000  Uiso   1.00
C637   C     0.49757   0.16734   0.61613   0.00000  Uiso   1.00
C638   C     0.50245   0.16601   0.88387   0.00000  Uiso   1.00
C639   C     0.52553   0.20877   0.59370   0.00000  Uiso   1.00
C640   C     0.47448   0.12460   0.90632   0.00000  Uiso   1.00
C641   C     0.52293   0.21091   0.54719   0.00000  Uiso   1.00
C642   C     0.47721   0.12242   0.95282   0.00000  Uiso   1.00
C643   C     0.49891   0.16736   0.52350   0.00000  Uiso   1.00
C644   C     0.50123   0.16597   0.97650   0.00000  Uiso   1.00
C645   C     0.47290   0.12493   0.54671   0.00000  Uiso   1.00
C646   C     0.52723   0.20840   0.95328   0.00000  Uiso   1.00
C647   C     0.54421   0.25467   0.52341   0.00000  Uiso   1.00
C648   C     0.45608   0.07861   0.97658   0.00000  Uiso   1.00
C649   C     0.54720   0.25233   0.97713   0.00000  Uiso   1.00
C650   C     0.45301   0.08096   0.52286   0.00000  Uiso   1.00
H651   H     0.56273   0.28678   0.96022   0.00000  Uiso   1.00
H652   H     0.43755   0.04650   0.53978   0.00000  Uiso   1.00
C653   C     0.52287   0.31853   0.75042   0.00000  Uiso   1.00
C654   C     0.47713   0.01481   0.74955   0.00000  Uiso   1.00
N655   N     0.65011   0.15265   0.73783   0.00000  Uiso   1.00
N656   N     0.34989   0.18068   0.76217   0.00000  Uiso   1.00
N657   N     0.44255   0.08379   0.61776   0.00000  Uiso   1.00
O658   O     0.47059   0.05934   0.64545   0.00000  Uiso   1.00
O659   O     0.38999   0.06848   0.61095   0.00000  Uiso   1.00
N660   N     0.55755   0.24952   0.88222   0.00000  Uiso   1.00
O661   O     0.52953   0.27395   0.85450   0.00000  Uiso   1.00
O662   O     0.61012   0.26481   0.88902   0.00000  Uiso   1.00
N663   N     0.55977   0.24620   0.61815   0.00000  Uiso   1.00
O664   O     0.61500   0.24942   0.61052   0.00000  Uiso   1.00
O665   O     0.53620   0.27512   0.64961   0.00000  Uiso   1.00
N666   N     0.44003   0.08726   0.88194   0.00000  Uiso   1.00
O667   O     0.38486   0.08387   0.88997   0.00000  Uiso   1.00
O668   O     0.46335   0.05842   0.85031   0.00000  Uiso   1.00
N669   N     0.55803   0.30345   0.54515   0.00000  Uiso   1.00
O670   O     0.51903   0.32561   0.57056   0.00000  Uiso   1.00
O671   O     0.60414   0.33039   0.53212   0.00000  Uiso   1.00
N672   N     0.44259   0.02976   0.95481   0.00000  Uiso   1.00
O673   O     0.39686   0.00240   0.96802   0.00000  Uiso   1.00
O674   O     0.48163   0.00801   0.92915   0.00000  Uiso   1.00
N675   N     0.58027   0.00543   0.75602   0.00000  Uiso   1.00
O676   O     0.61916   0.33275   0.72367   0.00000  Uiso   1.00
O677   O     0.59502   0.02276   0.79514   0.00000  Uiso   1.00
N678   N     0.41973   0.32790   0.74394   0.00000  Uiso   1.00
O679   O     0.38084   0.00058   0.77627   0.00000  Uiso   1.00
O680   O     0.40501   0.31055   0.70481   0.00000  Uiso   1.00
Cl681  Cl    0.34625   0.10770   0.70137   0.00000  Uiso   1.00
Cl682  Cl    0.65376   0.22565   0.79862   0.00000  Uiso   1.00
O683   O     0.79642   0.24619   0.75298   0.00000  Uiso   1.00
O684   O     0.87025   0.08714   0.74701   0.00000  Uiso   1.00
O685   O     0.89280   0.23721   0.74518   0.00000  Uiso   1.00
O686   O     0.77387   0.09613   0.75481   0.00000  Uiso   1.00
C687   C     0.84818   0.26450   0.74867   0.00000  Uiso   1.00
C688   C     0.81849   0.06883   0.75132   0.00000  Uiso   1.00
O689   O     0.78514   0.17117   0.81997   0.00000  Uiso   1.00
O690   O     0.88153   0.16216   0.68002   0.00000  Uiso   1.00
O691   O     0.88152   0.16219   0.81217   0.00000  Uiso   1.00
O692   O     0.78515   0.17115   0.68782   0.00000  Uiso   1.00
C693   C     0.83418   0.16680   0.83624   0.00000  Uiso   1.00
C694   C     0.83249   0.16653   0.66376   0.00000  Uiso   1.00
Zn695  Zn    0.76898   0.17266   0.75521   0.00000  Uiso   1.00
Zn696  Zn    0.89769   0.16067   0.74479   0.00000  Uiso   1.00
C697   C     0.80347   0.12595   0.59342   0.00000  Uiso   1.00
C698   C     0.86328   0.20737   0.90657   0.00000  Uiso   1.00
C699   C     0.83090   0.16734   0.61613   0.00000  Uiso   1.00
C700   C     0.83578   0.16601   0.88387   0.00000  Uiso   1.00
C701   C     0.85886   0.20877   0.59370   0.00000  Uiso   1.00
C702   C     0.80781   0.12460   0.90632   0.00000  Uiso   1.00
C703   C     0.85627   0.21091   0.54719   0.00000  Uiso   1.00
C704   C     0.81055   0.12242   0.95282   0.00000  Uiso   1.00
C705   C     0.83224   0.16736   0.52350   0.00000  Uiso   1.00
C706   C     0.83457   0.16597   0.97650   0.00000  Uiso   1.00
C707   C     0.80624   0.12493   0.54671   0.00000  Uiso   1.00
C708   C     0.86056   0.20840   0.95328   0.00000  Uiso   1.00
C709   C     0.87754   0.25467   0.52341   0.00000  Uiso   1.00
C710   C     0.78941   0.07861   0.97658   0.00000  Uiso   1.00
C711   C     0.88054   0.25233   0.97713   0.00000  Uiso   1.00
C712   C     0.78635   0.08096   0.52286   0.00000  Uiso   1.00
H713   H     0.89606   0.28678   0.96022   0.00000  Uiso   1.00
H714   H     0.77088   0.04650   0.53978   0.00000  Uiso   1.00
C715   C     0.85620   0.31853   0.75042   0.00000  Uiso   1.00
C716   C     0.81047   0.01481   0.74955   0.00000  Uiso   1.00
N717   N     0.98344   0.15265   0.73783   0.00000  Uiso   1.00
N718   N     0.68322   0.18068   0.76217   0.00000  Uiso   1.00
N719   N     0.77588   0.08379   0.61776   0.00000  Uiso   1.00
O720   O     0.80392   0.05934   0.64545   0.00000  Uiso   1.00
O721   O     0.72332   0.06848   0.61095   0.00000  Uiso   1.00
N722   N     0.89089   0.24952   0.88222   0.00000  Uiso   1.00
O723   O     0.86287   0.27395   0.85450   0.00000  Uiso   1.00
O724   O     0.94345   0.26481   0.88902   0.00000  Uiso   1.00
N725   N     0.89311   0.24620   0.61815   0.00000  Uiso   1.00
O726   O     0.94833   0.24942   0.61052   0.00000  Uiso   1.00
O727   O     0.86954   0.27512   0.64961   0.00000  Uiso   1.00
N728   N     0.77336   0.08726   0.88194   0.00000  Uiso   1.00
O729   O     0.71820   0.08387   0.88997   0.00000  Uiso   1.00
O730   O     0.79668   0.05842   0.85031   0.00000  Uiso   1.00
N731   N     0.89136   0.30345   0.54515   0.00000  Uiso   1.00
O732   O     0.85237   0.32561   0.57056   0.00000  Uiso   1.00
O733   O     0.93748   0.33039   0.53212   0.00000  Uiso   1.00
N734   N     0.77592   0.02976   0.95481   0.00000  Uiso   1.00
O735   O     0.73019   0.00240   0.96802   0.00000  Uiso   1.00
O736   O     0.81496   0.00801   0.92915   0.00000  Uiso   1.00
N737   N     0.91361   0.00543   0.75602   0.00000  Uiso   1.00
O738   O     0.95249   0.33275   0.72367   0.00000  Uiso   1.00
O739   O     0.92835   0.02276   0.79514   0.00000  Uiso   1.00
N740   N     0.75307   0.32790   0.74394   0.00000  Uiso   1.00
O741   O     0.71417   0.00058   0.77627   0.00000  Uiso   1.00
O742   O     0.73834   0.31055   0.70481   0.00000  Uiso   1.00
Cl743  Cl    0.67958   0.10770   0.70137   0.00000  Uiso   1.00
Cl744  Cl    0.98709   0.22565   0.79862   0.00000  Uiso   1.00
O745   O     0.12975   0.57952   0.75298   0.00000  Uiso   1.00
O746   O     0.20358   0.42048   0.74701   0.00000  Uiso   1.00
O747   O     0.22613   0.57054   0.74518   0.00000  Uiso   1.00
O748   O     0.10720   0.42946   0.75481   0.00000  Uiso   1.00
C749   C     0.18151   0.59783   0.74867   0.00000  Uiso   1.00
C750   C     0.15182   0.40217   0.75132   0.00000  Uiso   1.00
O751   O     0.11847   0.50450   0.81997   0.00000  Uiso   1.00
O752   O     0.21486   0.49550   0.68002   0.00000  Uiso   1.00
O753   O     0.21485   0.49552   0.81217   0.00000  Uiso   1.00
O754   O     0.11848   0.50448   0.68782   0.00000  Uiso   1.00
C755   C     0.16751   0.50013   0.83624   0.00000  Uiso   1.00
C756   C     0.16582   0.49987   0.66376   0.00000  Uiso   1.00
Zn757  Zn    0.10231   0.50600   0.75521   0.00000  Uiso   1.00
Zn758  Zn    0.23102   0.49400   0.74479   0.00000  Uiso   1.00
C759   C     0.13680   0.45928   0.59342   0.00000  Uiso   1.00
C760   C     0.19661   0.54071   0.90657   0.00000  Uiso   1.00
C761   C     0.16423   0.50067   0.61613   0.00000  Uiso   1.00
C762   C     0.16911   0.49934   0.88387   0.00000  Uiso   1.00
C763   C     0.19220   0.54210   0.59370   0.00000  Uiso   1.00
C764   C     0.14114   0.45793   0.90632   0.00000  Uiso   1.00
C765   C     0.18960   0.54424   0.54719   0.00000  Uiso   1.00
C766   C     0.14388   0.45575   0.95282   0.00000  Uiso   1.00
C767   C     0.16557   0.50069   0.52350   0.00000  Uiso   1.00
C768   C     0.16790   0.49930   0.97650   0.00000  Uiso   1.00
C769   C     0.13957   0.45826   0.54671   0.00000  Uiso   1.00
C770   C     0.19390   0.54173   0.95328   0.00000  Uiso   1.00
C771   C     0.21087   0.58800   0.52341   0.00000  Uiso   1.00
C772   C     0.12274   0.41194   0.97658   0.00000  Uiso   1.00
C773   C     0.21387   0.58567   0.97713   0.00000  Uiso   1.00
C774   C     0.11968   0.41429   0.52286   0.00000  Uiso   1.00
H775   H     0.22939   0.62011   0.96022   0.00000  Uiso   1.00
H776   H     0.10422   0.37983   0.53978   0.00000  Uiso   1.00
C777   C     0.18954   0.65186   0.75042   0.00000  Uiso   1.00
C778   C     0.14380   0.34814   0.74955   0.00000  Uiso   1.00
N779   N     0.31678   0.48598   0.73783   0.00000  Uiso   1.00
N780   N     0.01656   0.51402   0.76217   0.00000  Uiso   1.00
N781   N     0.10921   0.41713   0.61776   0.00000  Uiso   1.00
O782   O     0.13726   0.39267   0.64545   0.00000  Uiso   1.00
O783   O     0.05665   0.40182   0.61095   0.00000  Uiso   1.00
N784   N     0.22422   0.58285   0.88222   0.00000  Uiso   1.00
O785   O     0.19620   0.60728   0.85450   0.00000  Uiso   1.00
O786   O     0.27679   0.59814   0.88902   0.00000  Uiso   1.00
N787   N     0.22644   0.57953   0.61815   0.00000  Uiso   1.00
O788   O     0.28167   0.58275   0.61052   0.00000  Uiso   1.00
O789   O     0.20287   0.60845   0.64961   0.00000  Uiso   1.00
N790   N     0.10669   0.42059   0.88194   0.00000  Uiso   1.00
O791   O     0.05153   0.41720   0.88997   0.00000  Uiso   1.00
O792   O     0.13001   0.39175   0.85031   0.00000  Uiso   1.00
N793   N     0.22469   0.63679   0.54515   0.00000  Uiso   1.00
O794   O     0.18570   0.65894   0.57056   0.00000  Uiso   1.00
O795   O     0.27081   0.66372   0.53212   0.00000  Uiso   1.00
N796   N     0.10925   0.36310   0.95481   0.00000  Uiso   1.00
O797   O     0.06352   0.33573   0.96802   0.00000  Uiso   1.00
O798   O     0.14829   0.34135   0.92915   0.00000  Uiso   1.00
N799   N     0.24694   0.33876   0.75602   0.00000  Uiso   1.00
O800   O     0.28582   0.66608   0.72367   0.00000  Uiso   1.00
O801   O     0.26169   0.35610   0.79514   0.00000  Uiso   1.00
N802   N     0.08640   0.66124   0.74394   0.00000  Uiso   1.00
O803   O     0.04750   0.33392   0.77627   0.00000  Uiso   1.00
O804   O     0.07167   0.64389   0.70481   0.00000  Uiso   1.00
Cl805  Cl    0.01291   0.44104   0.70137   0.00000  Uiso   1.00
Cl806  Cl    0.32043   0.55898   0.79862   0.00000  Uiso   1.00
O807   O     0.46308   0.57952   0.75298   0.00000  Uiso   1.00
O808   O     0.53692   0.42048   0.74701   0.00000  Uiso   1.00
O809   O     0.55946   0.57054   0.74518   0.00000  Uiso   1.00
O810   O     0.44054   0.42946   0.75481   0.00000  Uiso   1.00
C811   C     0.51485   0.59783   0.74867   0.00000  Uiso   1.00
C812   C     0.48515   0.40217   0.75132   0.00000  Uiso   1.00
O813   O     0.45181   0.50450   0.81997   0.00000  Uiso   1.00
O814   O     0.54819   0.49550   0.68002   0.00000  Uiso   1.00
O815   O     0.54819   0.49552   0.81217   0.00000  Uiso   1.00
O816   O     0.45181   0.50448   0.68782   0.00000  Uiso   1.00
C817   C     0.50084   0.50013   0.83624   0.00000  Uiso   1.00
C818   C     0.49916   0.49987   0.66376   0.00000  Uiso   1.00
Zn819  Zn    0.43565   0.50600   0.75521   0.00000  Uiso   1.00
Zn820  Zn    0.56435   0.49400   0.74479   0.00000  Uiso   1.00
C821   C     0.47014   0.45928   0.59342   0.00000  Uiso   1.00
C822   C     0.52995   0.54071   0.90657   0.00000  Uiso   1.00
C823   C     0.49757   0.50067   0.61613   0.00000  Uiso   1.00
C824   C     0.50245   0.49934   0.88387   0.00000  Uiso   1.00
C825   C     0.52553   0.54210   0.59370   0.00000  Uiso   1.00
C826   C     0.47448   0.45793   0.90632   0.00000  Uiso   1.00
C827   C     0.52293   0.54424   0.54719   0.00000  Uiso   1.00
C828   C     0.47721   0.45575   0.95282   0.00000  Uiso   1.00
C829   C     0.49891   0.50069   0.52350   0.00000  Uiso   1.00
C830   C     0.50123   0.49930   0.97650   0.00000  Uiso   1.00
C831   C     0.47290   0.45826   0.54671   0.00000  Uiso   1.00
C832   C     0.52723   0.54173   0.95328   0.00000  Uiso   1.00
C833   C     0.54421   0.58800   0.52341   0.00000  Uiso   1.00
C834   C     0.45608   0.41194   0.97658   0.00000  Uiso   1.00
C835   C     0.54720   0.58567   0.97713   0.00000  Uiso   1.00
C836   C     0.45301   0.41429   0.52286   0.00000  Uiso   1.00
H837   H     0.56273   0.62011   0.96022   0.00000  Uiso   1.00
H838   H     0.43755   0.37983   0.53978   0.00000  Uiso   1.00
C839   C     0.52287   0.65186   0.75042   0.00000  Uiso   1.00
C840   C     0.47713   0.34814   0.74955   0.00000  Uiso   1.00
N841   N     0.65011   0.48598   0.73783   0.00000  Uiso   1.00
N842   N     0.34989   0.51402   0.76217   0.00000  Uiso   1.00
N843   N     0.44255   0.41713   0.61776   0.00000  Uiso   1.00
O844   O     0.47059   0.39267   0.64545   0.00000  Uiso   1.00
O845   O     0.38999   0.40182   0.61095   0.00000  Uiso   1.00
N846   N     0.55755   0.58285   0.88222   0.00000  Uiso   1.00
O847   O     0.52953   0.60728   0.85450   0.00000  Uiso   1.00
O848   O     0.61012   0.59814   0.88902   0.00000  Uiso   1.00
N849   N     0.55977   0.57953   0.61815   0.00000  Uiso   1.00
O850   O     0.61500   0.58275   0.61052   0.00000  Uiso   1.00
O851   O     0.53620   0.60845   0.64961   0.00000  Uiso   1.00
N852   N     0.44003   0.42059   0.88194   0.00000  Uiso   1.00
O853   O     0.38486   0.41720   0.88997   0.00000  Uiso   1.00
O854   O     0.46335   0.39175   0.85031   0.00000  Uiso   1.00
N855   N     0.55803   0.63679   0.54515   0.00000  Uiso   1.00
O856   O     0.51903   0.65894   0.57056   0.00000  Uiso   1.00
O857   O     0.60414   0.66372   0.53212   0.00000  Uiso   1.00
N858   N     0.44259   0.36310   0.95481   0.00000  Uiso   1.00
O859   O     0.39686   0.33573   0.96802   0.00000  Uiso   1.00
O860   O     0.48163   0.34135   0.92915   0.00000  Uiso   1.00
N861   N     0.58027   0.33876   0.75602   0.00000  Uiso   1.00
O862   O     0.61916   0.66608   0.72367   0.00000  Uiso   1.00
O863   O     0.59502   0.35610   0.79514   0.00000  Uiso   1.00
N864   N     0.41973   0.66124   0.74394   0.00000  Uiso   1.00
O865   O     0.38084   0.33392   0.77627   0.00000  Uiso   1.00
O866   O     0.40501   0.64389   0.70481   0.00000  Uiso   1.00
Cl867  Cl    0.34625   0.44104   0.70137   0.00000  Uiso   1.00
Cl868  Cl    0.65376   0.55898   0.79862   0.00000  Uiso   1.00
O869   O     0.79642   0.57952   0.75298   0.00000  Uiso   1.00
O870   O     0.87025   0.42048   0.74701   0.00000  Uiso   1.00
O871   O     0.89280   0.57054   0.74518   0.00000  Uiso   1.00
O872   O     0.77387   0.42946   0.75481   0.00000  Uiso   1.00
C873   C     0.84818   0.59783   0.74867   0.00000  Uiso   1.00
C874   C     0.81849   0.40217   0.75132   0.00000  Uiso   1.00
O875   O     0.78514   0.50450   0.81997   0.00000  Uiso   1.00
O876   O     0.88153   0.49550   0.68002   0.00000  Uiso   1.00
O877   O     0.88152   0.49552   0.81217   0.00000  Uiso   1.00
O878   O     0.78515   0.50448   0.68782   0.00000  Uiso   1.00
C879   C     0.83418   0.50013   0.83624   0.00000  Uiso   1.00
C880   C     0.83249   0.49987   0.66376   0.00000  Uiso   1.00
Zn881  Zn    0.76898   0.50600   0.75521   0.00000  Uiso   1.00
Zn882  Zn    0.89769   0.49400   0.74479   0.00000  Uiso   1.00
C883   C     0.80347   0.45928   0.59342   0.00000  Uiso   1.00
C884   C     0.86328   0.54071   0.90657   0.00000  Uiso   1.00
C885   C     0.83090   0.50067   0.61613   0.00000  Uiso   1.00
C886   C     0.83578   0.49934   0.88387   0.00000  Uiso   1.00
C887   C     0.85886   0.54210   0.59370   0.00000  Uiso   1.00
C888   C     0.80781   0.45793   0.90632   0.00000  Uiso   1.00
C889   C     0.85627   0.54424   0.54719   0.00000  Uiso   1.00
C890   C     0.81055   0.45575   0.95282   0.00000  Uiso   1.00
C891   C     0.83224   0.50069   0.52350   0.00000  Uiso   1.00
C892   C     0.83457   0.49930   0.97650   0.00000  Uiso   1.00
C893   C     0.80624   0.45826   0.54671   0.00000  Uiso   1.00
C894   C     0.86056   0.54173   0.95328   0.00000  Uiso   1.00
C895   C     0.87754   0.58800   0.52341   0.00000  Uiso   1.00
C896   C     0.78941   0.41194   0.97658   0.00000  Uiso   1.00
C897   C     0.88054   0.58567   0.97713   0.00000  Uiso   1.00
C898   C     0.78635   0.41429   0.52286   0.00000  Uiso   1.00
H899   H     0.89606   0.62011   0.96022   0.00000  Uiso   1.00
H900   H     0.77088   0.37983   0.53978   0.00000  Uiso   1.00
C901   C     0.85620   0.65186   0.75042   0.00000  Uiso   1.00
C902   C     0.81047   0.34814   0.74955   0.00000  Uiso   1.00
N903   N     0.98344   0.48598   0.73783   0.00000  Uiso   1.00
N904   N     0.68322   0.51402   0.76217   0.00000  Uiso   1.00
N905   N     0.77588   0.41713   0.61776   0.00000  Uiso   1.00
O906   O     0.80392   0.39267   0.64545   0.00000  Uiso   1.00
O907   O     0.72332   0.40182   0.61095   0.00000  Uiso   1.00
N908   N     0.89089   0.58285   0.88222   0.00000  Uiso   1.00
O909   O     0.86287   0.60728   0.85450   0.00000  Uiso   1.00
O910   O     0.94345   0.59814   0.88902   0.00000  Uiso   1.00
N911   N     0.89311   0.57953   0.61815   0.00000  Uiso   1.00
O912   O     0.94833   0.58275   0.61052   0.00000  Uiso   1.00
O913   O     0.86954   0.60845   0.64961   0.00000  Uiso   1.00
N914   N     0.77336   0.42059   0.88194   0.00000  Uiso   1.00
O915   O     0.71820   0.41720   0.88997   0.00000  Uiso   1.00
O916   O     0.79668   0.39175   0.85031   0.00000  Uiso   1.00
N917   N     0.89136   0.63679   0.54515   0.00000  Uiso   1.00
O918   O     0.85237   0.65894   0.57056   0.00000  Uiso   1.00
O919   O     0.93748   0.66372   0.53212   0.00000  Uiso   1.00
N920   N     0.77592   0.36310   0.95481   0.00000  Uiso   1.00
O921   O     0.73019   0.33573   0.96802   0.00000  Uiso   1.00
O922   O     0.81496   0.34135   0.92915   0.00000  Uiso   1.00
N923   N     0.91361   0.33876   0.75602   0.00000  Uiso   1.00
O924   O     0.95249   0.66608   0.72367   0.00000  Uiso   1.00
O925   O     0.92835   0.35610   0.79514   0.00000  Uiso   1.00
N926   N     0.75307   0.66124   0.74394   0.00000  Uiso   1.00
O927   O     0.71417   0.33392   0.77627   0.00000  Uiso   1.00
O928   O     0.73834   0.64389   0.70481   0.00000  Uiso   1.00
Cl929  Cl    0.67958   0.44104   0.70137   0.00000  Uiso   1.00
Cl930  Cl    0.98709   0.55898   0.79862   0.00000  Uiso   1.00
O931   O     0.12975   0.91286   0.75298   0.00000  Uiso   1.00
O932   O     0.20358   0.75381   0.74701   0.00000  Uiso   1.00
O933   O     0.22613   0.90387   0.74518   0.00000  Uiso   1.00
O934   O     0.10720   0.76279   0.75481   0.00000  Uiso   1.00
C935   C     0.18151   0.93116   0.74867   0.00000  Uiso   1.00
C936   C     0.15182   0.73550   0.75132   0.00000  Uiso   1.00
O937   O     0.11847   0.83784   0.81997   0.00000  Uiso   1.00
O938   O     0.21486   0.82883   0.68002   0.00000  Uiso   1.00
O939   O     0.21485   0.82885   0.81217   0.00000  Uiso   1.00
O940   O     0.11848   0.83781   0.68782   0.00000  Uiso   1.00
C941   C     0.16751   0.83347   0.83624   0.00000  Uiso   1.00
C942   C     0.16582   0.83320   0.66376   0.00000  Uiso   1.00
Zn943  Zn    0.10231   0.83933   0.75521   0.00000  Uiso   1.00
Zn944  Zn    0.23102   0.82734   0.74479   0.00000  Uiso   1.00
C945   C     0.13680   0.79262   0.59342   0.00000  Uiso   1.00
C946   C     0.19661   0.87404   0.90657   0.00000  Uiso   1.00
C947   C     0.16423   0.83400   0.61613   0.00000  Uiso   1.00
C948   C     0.16911   0.83268   0.88387   0.00000  Uiso   1.00
C949   C     0.19220   0.87543   0.59370   0.00000  Uiso   1.00
C950   C     0.14114   0.79126   0.90632   0.00000  Uiso   1.00
C951   C     0.18960   0.87757   0.54719   0.00000  Uiso   1.00
C952   C     0.14388   0.78909   0.95282   0.00000  Uiso   1.00
C953   C     0.16557   0.83402   0.52350   0.00000  Uiso   1.00
C954   C     0.16790   0.83264   0.97650   0.00000  Uiso   1.00
C955   C     0.13957   0.79159   0.54671   0.00000  Uiso   1.00
C956   C     0.19390   0.87506   0.95328   0.00000  Uiso   1.00
C957   C     0.21087   0.92134   0.52341   0.00000  Uiso   1.00
C958   C     0.12274   0.74527   0.97658   0.00000  Uiso   1.00
C959   C     0.21387   0.91900   0.97713   0.00000  Uiso   1.00
C960   C     0.11968   0.74762   0.52286   0.00000  Uiso   1.00
H961   H     0.22939   0.95345   0.96022   0.00000  Uiso   1.00
H962   H     0.10422   0.71317   0.53978   0.00000  Uiso   1.00
C963   C     0.18954   0.98519   0.75042   0.00000  Uiso   1.00
C964   C     0.14380   0.68147   0.74955   0.00000  Uiso   1.00
N965   N     0.31678   0.81932   0.73783   0.00000  Uiso   1.00
N966   N     0.01656   0.84735   0.76217   0.00000  Uiso   1.00
N967   N     0.10921   0.75046   0.61776   0.00000  Uiso   1.00
O968   O     0.13726   0.72600   0.64545   0.00000  Uiso   1.00
O969   O     0.05665   0.73515   0.61095   0.00000  Uiso   1.00
N970   N     0.22422   0.91618   0.88222   0.00000  Uiso   1.00
O971   O     0.19620   0.94062   0.85450   0.00000  Uiso   1.00
O972   O     0.27679   0.93148   0.88902   0.00000  Uiso   1.00
N973   N     0.22644   0.91286   0.61815   0.00000  Uiso   1.00
O974   O     0.28167   0.91609   0.61052   0.00000  Uiso   1.00
O975   O     0.20287   0.94179   0.64961   0.00000  Uiso   1.00
N976   N     0.10669   0.75392   0.88194   0.00000  Uiso   1.00
O977   O     0.05153   0.75054   0.88997   0.00000  Uiso   1.00
O978   O     0.13001   0.72508   0.85031   0.00000  Uiso   1.00
N979   N     0.22469   0.97012   0.54515   0.00000  Uiso   1.00
O980   O     0.18570   0.99228   0.57056   0.00000  Uiso   1.00
O981   O     0.27081   0.99705   0.53212   0.00000  Uiso   1.00
N982   N     0.10925   0.69643   0.95481   0.00000  Uiso   1.00
O983   O     0.06352   0.66907   0.96802   0.00000  Uiso   1.00
O984   O     0.14829   0.67468   0.92915   0.00000  Uiso   1.00
N985   N     0.24694   0.67210   0.75602   0.00000  Uiso   1.00
O986   O     0.28582   0.99942   0.72367   0.00000  Uiso   1.00
O987   O     0.26169   0.68943   0.79514   0.00000  Uiso   1.00
N988   N     0.08640   0.99457   0.74394   0.00000  Uiso   1.00
O989   O     0.04750   0.66725   0.77627   0.00000  Uiso   1.00
O990   O     0.07167   0.97722   0.70481   0.00000  Uiso   1.00
Cl991  Cl    0.01291   0.77437   0.70137   0.00000  Uiso   1.00
Cl992  Cl    0.32043   0.89231   0.79862   0.00000  Uiso   1.00
O993   O     0.46308   0.91286   0.75298   0.00000  Uiso   1.00
O994   O     0.53692   0.75381   0.74701   0.00000  Uiso   1.00
O995   O     0.55946   0.90387   0.74518   0.00000  Uiso   1.00
O996   O     0.44054   0.76279   0.75481   0.00000  Uiso   1.00
C997   C     0.51485   0.93116   0.74867   0.00000  Uiso   1.00
C998   C     0.48515   0.73550   0.75132   0.00000  Uiso   1.00
O999   O     0.45181   0.83784   0.81997   0.00000  Uiso   1.00
O1000  O     0.54819   0.82883   0.68002   0.00000  Uiso   1.00
O1001  O     0.54819   0.82885   0.81217   0.00000  Uiso   1.00
O1002  O     0.45181   0.83781   0.68782   0.00000  Uiso   1.00
C1003  C     0.50084   0.83347   0.83624   0.00000  Uiso   1.00
C1004  C     0.49916   0.83320   0.66376   0.00000  Uiso   1.00
Zn1005 Zn    0.43565   0.83933   0.75521   0.00000  Uiso   1.00
Zn1006 Zn    0.56435   0.82734   0.74479   0.00000  Uiso   1.00
C1007  C     0.47014   0.79262   0.59342   0.00000  Uiso   1.00
C1008  C     0.52995   0.87404   0.90657   0.00000  Uiso   1.00
C1009  C     0.49757   0.83400   0.61613   0.00000  Uiso   1.00
C1010  C     0.50245   0.83268   0.88387   0.00000  Uiso   1.00
C1011  C     0.52553   0.87543   0.59370   0.00000  Uiso   1.00
C1012  C     0.47448   0.79126   0.90632   0.00000  Uiso   1.00
C1013  C     0.52293   0.87757   0.54719   0.00000  Uiso   1.00
C1014  C     0.47721   0.78909   0.95282   0.00000  Uiso   1.00
C1015  C     0.49891   0.83402   0.52350   0.00000  Uiso   1.00
C1016  C     0.50123   0.83264   0.97650   0.00000  Uiso   1.00
C1017  C     0.47290   0.79159   0.54671   0.00000  Uiso   1.00
C1018  C     0.52723   0.87506   0.95328   0.00000  Uiso   1.00
C1019  C     0.54421   0.92134   0.52341   0.00000  Uiso   1.00
C1020  C     0.45608   0.74527   0.97658   0.00000  Uiso   1.00
C1021  C     0.54720   0.91900   0.97713   0.00000  Uiso   1.00
C1022  C     0.45301   0.74762   0.52286   0.00000  Uiso   1.00
H1023  H     0.56273   0.95345   0.96022   0.00000  Uiso   1.00
H1024  H     0.43755   0.71317   0.53978   0.00000  Uiso   1.00
C1025  C     0.52287   0.98519   0.75042   0.00000  Uiso   1.00
C1026  C     0.47713   0.68147   0.74955   0.00000  Uiso   1.00
N1027  N     0.65011   0.81932   0.73783   0.00000  Uiso   1.00
N1028  N     0.34989   0.84735   0.76217   0.00000  Uiso   1.00
N1029  N     0.44255   0.75046   0.61776   0.00000  Uiso   1.00
O1030  O     0.47059   0.72600   0.64545   0.00000  Uiso   1.00
O1031  O     0.38999   0.73515   0.61095   0.00000  Uiso   1.00
N1032  N     0.55755   0.91618   0.88222   0.00000  Uiso   1.00
O1033  O     0.52953   0.94062   0.85450   0.00000  Uiso   1.00
O1034  O     0.61012   0.93148   0.88902   0.00000  Uiso   1.00
N1035  N     0.55977   0.91286   0.61815   0.00000  Uiso   1.00
O1036  O     0.61500   0.91609   0.61052   0.00000  Uiso   1.00
O1037  O     0.53620   0.94179   0.64961   0.00000  Uiso   1.00
N1038  N     0.44003   0.75392   0.88194   0.00000  Uiso   1.00
O1039  O     0.38486   0.75054   0.88997   0.00000  Uiso   1.00
O1040  O     0.46335   0.72508   0.85031   0.00000  Uiso   1.00
N1041  N     0.55803   0.97012   0.54515   0.00000  Uiso   1.00
O1042  O     0.51903   0.99228   0.57056   0.00000  Uiso   1.00
O1043  O     0.60414   0.99705   0.53212   0.00000  Uiso   1.00
N1044  N     0.44259   0.69643   0.95481   0.00000  Uiso   1.00
O1045  O     0.39686   0.66907   0.96802   0.00000  Uiso   1.00
O1046  O     0.48163   0.67468   0.92915   0.00000  Uiso   1.00
N1047  N     0.58027   0.67210   0.75602   0.00000  Uiso   1.00
O1048  O     0.61916   0.99942   0.72367   0.00000  Uiso   1.00
O1049  O     0.59502   0.68943   0.79514   0.00000  Uiso   1.00
N1050  N     0.41973   0.99457   0.74394   0.00000  Uiso   1.00
O1051  O     0.38084   0.66725   0.77627   0.00000  Uiso   1.00
O1052  O     0.40501   0.97722   0.70481   0.00000  Uiso   1.00
Cl1053 Cl    0.34625   0.77437   0.70137   0.00000  Uiso   1.00
Cl1054 Cl    0.65376   0.89231   0.79862   0.00000  Uiso   1.00
O1055  O     0.79642   0.91286   0.75298   0.00000  Uiso   1.00
O1056  O     0.87025   0.75381   0.74701   0.00000  Uiso   1.00
O1057  O     0.89280   0.90387   0.74518   0.00000  Uiso   1.00
O1058  O     0.77387   0.76279   0.75481   0.00000  Uiso   1.00
C1059  C     0.84818   0.93116   0.74867   0.00000  Uiso   1.00
C1060  C     0.81849   0.73550   0.75132   0.00000  Uiso   1.00
O1061  O     0.78514   0.83784   0.81997   0.00000  Uiso   1.00
O1062  O     0.88153   0.82883   0.68002   0.00000  Uiso   1.00
O1063  O     0.88152   0.82885   0.81217   0.00000  Uiso   1.00
O1064  O     0.78515   0.83781   0.68782   0.00000  Uiso   1.00
C1065  C     0.83418   0.83347   0.83624   0.00000  Uiso   1.00
C1066  C     0.83249   0.83320   0.66376   0.00000  Uiso   1.00
Zn1067 Zn    0.76898   0.83933   0.75521   0.00000  Uiso   1.00
Zn1068 Zn    0.89769   0.82734   0.74479   0.00000  Uiso   1.00
C1069  C     0.80347   0.79262   0.59342   0.00000  Uiso   1.00
C1070  C     0.86328   0.87404   0.90657   0.00000  Uiso   1.00
C1071  C     0.83090   0.83400   0.61613   0.00000  Uiso   1.00
C1072  C     0.83578   0.83268   0.88387   0.00000  Uiso   1.00
C1073  C     0.85886   0.87543   0.59370   0.00000  Uiso   1.00
C1074  C     0.80781   0.79126   0.90632   0.00000  Uiso   1.00
C1075  C     0.85627   0.87757   0.54719   0.00000  Uiso   1.00
C1076  C     0.81055   0.78909   0.95282   0.00000  Uiso   1.00
C1077  C     0.83224   0.83402   0.52350   0.00000  Uiso   1.00
C1078  C     0.83457   0.83264   0.97650   0.00000  Uiso   1.00
C1079  C     0.80624   0.79159   0.54671   0.00000  Uiso   1.00
C1080  C     0.86056   0.87506   0.95328   0.00000  Uiso   1.00
C1081  C     0.87754   0.92134   0.52341   0.00000  Uiso   1.00
C1082  C     0.78941   0.74527   0.97658   0.00000  Uiso   1.00
C1083  C     0.88054   0.91900   0.97713   0.00000  Uiso   1.00
C1084  C     0.78635   0.74762   0.52286   0.00000  Uiso   1.00
H1085  H     0.89606   0.95345   0.96022   0.00000  Uiso   1.00
H1086  H     0.77088   0.71317   0.53978   0.00000  Uiso   1.00
C1087  C     0.85620   0.98519   0.75042   0.00000  Uiso   1.00
C1088  C     0.81047   0.68147   0.74955   0.00000  Uiso   1.00
N1089  N     0.98344   0.81932   0.73783   0.00000  Uiso   1.00
N1090  N     0.68322   0.84735   0.76217   0.00000  Uiso   1.00
N1091  N     0.77588   0.75046   0.61776   0.00000  Uiso   1.00
O1092  O     0.80392   0.72600   0.64545   0.00000  Uiso   1.00
O1093  O     0.72332   0.73515   0.61095   0.00000  Uiso   1.00
N1094  N     0.89089   0.91618   0.88222   0.00000  Uiso   1.00
O1095  O     0.86287   0.94062   0.85450   0.00000  Uiso   1.00
O1096  O     0.94345   0.93148   0.88902   0.00000  Uiso   1.00
N1097  N     0.89311   0.91286   0.61815   0.00000  Uiso   1.00
O1098  O     0.94833   0.91609   0.61052   0.00000  Uiso   1.00
O1099  O     0.86954   0.94179   0.64961   0.00000  Uiso   1.00
N1100  N     0.77336   0.75392   0.88194   0.00000  Uiso   1.00
O1101  O     0.71820   0.75054   0.88997   0.00000  Uiso   1.00
O1102  O     0.79668   0.72508   0.85031   0.00000  Uiso   1.00
N1103  N     0.89136   0.97012   0.54515   0.00000  Uiso   1.00
O1104  O     0.85237   0.99228   0.57056   0.00000  Uiso   1.00
O1105  O     0.93748   0.99705   0.53212   0.00000  Uiso   1.00
N1106  N     0.77592   0.69643   0.95481   0.00000  Uiso   1.00
O1107  O     0.73019   0.66907   0.96802   0.00000  Uiso   1.00
O1108  O     0.81496   0.67468   0.92915   0.00000  Uiso   1.00
N1109  N     0.91361   0.67210   0.75602   0.00000  Uiso   1.00
O1110  O     0.95249   0.99942   0.72367   0.00000  Uiso   1.00
O1111  O     0.92835   0.68943   0.79514   0.00000  Uiso   1.00
N1112  N     0.75307   0.99457   0.74394   0.00000  Uiso   1.00
O1113  O     0.71417   0.66725   0.77627   0.00000  Uiso   1.00
O1114  O     0.73834   0.97722   0.70481   0.00000  Uiso   1.00
Cl1115 Cl    0.67958   0.77437   0.70137   0.00000  Uiso   1.00
Cl1116 Cl    0.98709   0.89231   0.79862   0.00000  Uiso   1.00
loop_
_geom_bond_atom_site_label_1
_geom_bond_atom_site_label_2
_geom_bond_distance
_geom_bond_site_symmetry_2
_ccdc_geom_bond_type
O1     C5      1.280   .     A
O1     Zn13    1.986   .     S
O2     C6      1.280   .     A
O2     Zn14    1.986   .     S
O3     C5      1.298   .     A
O3     Zn14    2.003   .     S
O4     C6      1.298   .     A
O4     Zn13    2.003   .     S
C5     C33     1.408   .     S
C6     C34     1.408   .     S
O7     C11     1.293   .     A
O7     Zn13    2.006   .     S
O8     C12     1.293   .     A
O8     Zn14    2.006   .     S
O9     Zn14    2.031   .     S
O9     C11     1.295   .     A
O10    C12     1.295   .     A
O10    Zn13    2.031   .     S
C11    C18     1.432   .     S
C12    C17     1.432   .     S
Zn13   N36     2.035   .     S
Zn14   N35     2.035   .     S
C15    C17     1.400   .     A
C15    C25     1.397   .     A
C15    N37     1.440   .     S
C16    N40     1.440   .     S
C16    C26     1.397   .     A
C16    C18     1.400   .     A
C17    C19     1.401   .     A
C18    C20     1.401   .     A
C19    C21     1.404   .     A
C19    N43     1.436   .     S
C20    N46     1.437   .     S
C20    C22     1.404   .     A
C21    C27     1.416   .     A
C21    C23     1.422   .     A
C22    C28     1.416   .     A
C22    C24     1.422   .     A
C23    C25     1.415   .     A
C23    C582    1.406   1_554 S
C24    C26     1.415   .     A
C24    C581    1.406   .     S
C25    C30     1.399   .     A
C26    C29     1.399   .     A
C27    N49     1.435   .     S
C27    C587    1.384   1_554 S
C28    N52     1.435   .     S
C28    C588    1.384   .     S
C29    H31     1.080   .     S
C29    C585    1.384   .     S
C30    H32     1.080   .     S
C30    C586    1.384   1_554 S
C33    C220    1.362   .     S
C33    N241    1.436   .     S
C34    C405    1.362   1_545 S
C34    N430    1.436   1_545 S
N35    N98     1.279   .     S
N35    Cl123   1.716   .     S
N36    N159    1.279   1_455 S
N36    Cl186   1.716   1_455 S
N37    O38     1.301   .     A
N37    O39     1.302   .     A
N40    O42     1.302   .     A
N40    O41     1.301   .     A
N43    O45     1.300   .     A
N43    O44     1.301   .     A
N46    O48     1.300   .     A
N46    O47     1.301   .     A
N49    O50     1.300   .     A
N49    O51     1.302   .     A
N52    O54     1.300   .     A
N52    O53     1.302   .     A
N55    O57     1.301   .     A
N55    C405    1.436   1_545 S
N55    O428    1.300   1_545 S
O56    N241    1.300   .     S
N58    O60     1.301   .     A
N58    C220    1.436   .     S
N58    O245    1.300   .     S
O59    N430    1.300   1_545 S
Cl61   N159    1.716   1_455 S
Cl62   N98     1.716   .     S
O63    C67     1.280   .     A
O63    Zn75    1.986   .     S
O64    C68     1.280   .     A
O64    Zn76    1.986   .     S
O65    C67     1.298   .     A
O65    Zn76    2.003   .     S
O66    C68     1.298   .     A
O66    Zn75    2.003   .     S
C67    C95     1.408   .     S
C68    C96     1.408   .     S
O69    C73     1.293   .     A
O69    Zn75    2.006   .     S
O70    C74     1.293   .     A
O70    Zn76    2.006   .     S
O71    Zn76    2.031   .     S
O71    C73     1.295   .     A
O72    C74     1.295   .     A
O72    Zn75    2.031   .     S
C73    C80     1.432   .     S
C74    C79     1.432   .     S
Zn75   N98     2.035   .     S
Zn76   N97     2.035   .     S
C77    C79     1.400   .     A
C77    C87     1.397   .     A
C77    N99     1.440   .     S
C78    N102    1.440   .     S
C78    C88     1.397   .     A
C78    C80     1.400   .     A
C79    C81     1.401   .     A
C80    C82     1.401   .     A
C81    C83     1.404   .     A
C81    N105    1.436   .     S
C82    N108    1.437   .     S
C82    C84     1.404   .     A
C83    C89     1.416   .     A
C83    C85     1.422   .     A
C84    C90     1.416   .     A
C84    C86     1.422   .     A
C85    C87     1.415   .     A
C85    C644    1.406   1_554 S
C86    C88     1.415   .     A
C86    C643    1.406   .     S
C87    C92     1.399   .     A
C88    C91     1.399   .     A
C89    N111    1.435   .     S
C89    C649    1.384   1_554 S
C90    N114    1.435   .     S
C90    C650    1.384   .     S
C91    H93     1.080   .     S
C91    C647    1.384   .     S
C92    H94     1.080   .     S
C92    C648    1.384   1_554 S
C95    C282    1.362   .     S
C95    N303    1.436   .     S
C96    C467    1.362   1_545 S
C96    N492    1.436   1_545 S
N97    N160    1.279   .     S
N97    Cl185   1.716   .     S
N99    O100    1.301   .     A
N99    O101    1.302   .     A
N102   O104    1.302   .     A
N102   O103    1.301   .     A
N105   O107    1.300   .     A
N105   O106    1.301   .     A
N108   O110    1.300   .     A
N108   O109    1.301   .     A
N111   O112    1.300   .     A
N111   O113    1.302   .     A
N114   O116    1.300   .     A
N114   O115    1.302   .     A
N117   O119    1.301   .     A
N117   C467    1.436   1_545 S
N117   O490    1.300   1_545 S
O118   N303    1.300   .     S
N120   O122    1.301   .     A
N120   C282    1.436   .     S
N120   O307    1.300   .     S
O121   N492    1.300   1_545 S
Cl124  N160    1.716   .     S
O125   C129    1.280   .     A
O125   Zn137   1.986   .     S
O126   C130    1.280   .     A
O126   Zn138   1.986   .     S
O127   C129    1.298   .     A
O127   Zn138   2.003   .     S
O128   C130    1.298   .     A
O128   Zn137   2.003   .     S
C129   C157    1.408   .     S
C130   C158    1.408   .     S
O131   C135    1.293   .     A
O131   Zn137   2.006   .     S
O132   C136    1.293   .     A
O132   Zn138   2.006   .     S
O133   Zn138   2.031   .     S
O133   C135    1.295   .     A
O134   C136    1.295   .     A
O134   Zn137   2.031   .     S
C135   C142    1.432   .     S
C136   C141    1.432   .     S
Zn137  N160    2.035   .     S
Zn138  N159    2.035   .     S
C139   C141    1.400   .     A
C139   C149    1.397   .     A
C139   N161    1.440   .     S
C140   N164    1.440   .     S
C140   C150    1.397   .     A
C140   C142    1.400   .     A
C141   C143    1.401   .     A
C142   C144    1.401   .     A
C143   C145    1.404   .     A
C143   N167    1.436   .     S
C144   N170    1.437   .     S
C144   C146    1.404   .     A
C145   C151    1.416   .     A
C145   C147    1.422   .     A
C146   C152    1.416   .     A
C146   C148    1.422   .     A
C147   C149    1.415   .     A
C147   C706    1.406   1_554 S
C148   C150    1.415   .     A
C148   C705    1.406   .     S
C149   C154    1.399   .     A
C150   C153    1.399   .     A
C151   N173    1.435   .     S
C151   C711    1.384   1_554 S
C152   N176    1.435   .     S
C152   C712    1.384   .     S
C153   H155    1.080   .     S
C153   C709    1.384   .     S
C154   H156    1.080   .     S
C154   C710    1.384   1_554 S
C157   C344    1.362   .     S
C157   N365    1.436   .     S
C158   C529    1.362   1_545 S
C158   N554    1.436   1_545 S
N159   N36     1.279   1_655 S
N159   Cl61    1.716   1_655 S
N161   O162    1.301   .     A
N161   O163    1.302   .     A
N164   O166    1.302   .     A
N164   O165    1.301   .     A
N167   O169    1.300   .     A
N167   O168    1.301   .     A
N170   O172    1.300   .     A
N170   O171    1.301   .     A
N173   O174    1.300   .     A
N173   O175    1.302   .     A
N176   O178    1.300   .     A
N176   O177    1.302   .     A
N179   O181    1.301   .     A
N179   C529    1.436   1_545 S
N179   O552    1.300   1_545 S
O180   N365    1.300   .     S
N182   O184    1.301   .     A
N182   C344    1.436   .     S
N182   O369    1.300   .     S
O183   N554    1.300   1_545 S
Cl186  N36     1.716   1_655 S
O187   C191    1.280   .     A
O187   Zn199   1.986   .     S
O188   C192    1.280   .     A
O188   Zn200   1.986   .     S
O189   C191    1.298   .     A
O189   Zn200   2.003   .     S
O190   C192    1.298   .     A
O190   Zn199   2.003   .     S
C191   C219    1.408   .     S
C192   C220    1.408   .     S
O193   C197    1.293   .     A
O193   Zn199   2.006   .     S
O194   C198    1.293   .     A
O194   Zn200   2.006   .     S
O195   Zn200   2.031   .     S
O195   C197    1.295   .     A
O196   C198    1.295   .     A
O196   Zn199   2.031   .     S
C197   C204    1.432   .     S
C198   C203    1.432   .     S
Zn199  N222    2.035   .     S
Zn200  N221    2.035   .     S
C201   C203    1.400   .     A
C201   C211    1.397   .     A
C201   N223    1.440   .     S
C202   N226    1.440   .     S
C202   C212    1.397   .     A
C202   C204    1.400   .     A
C203   C205    1.401   .     A
C204   C206    1.401   .     A
C205   C207    1.404   .     A
C205   N229    1.436   .     S
C206   N232    1.437   .     S
C206   C208    1.404   .     A
C207   C213    1.416   .     A
C207   C209    1.422   .     A
C208   C214    1.416   .     A
C208   C210    1.422   .     A
C209   C211    1.415   .     A
C209   C768    1.406   1_554 S
C210   C212    1.415   .     A
C210   C767    1.406   .     S
C211   C216    1.399   .     A
C212   C215    1.399   .     A
C213   N235    1.435   .     S
C213   C773    1.384   1_554 S
C214   N238    1.435   .     S
C214   C774    1.384   .     S
C215   H217    1.080   .     S
C215   C771    1.384   .     S
C216   H218    1.080   .     S
C216   C772    1.384   1_554 S
C219   C406    1.362   .     S
C219   N427    1.436   .     S
N221   N284    1.279   .     S
N221   Cl309   1.716   .     S
N222   N345    1.279   1_455 S
N222   Cl372   1.716   1_455 S
N223   O224    1.301   .     A
N223   O225    1.302   .     A
N226   O228    1.302   .     A
N226   O227    1.301   .     A
N229   O231    1.300   .     A
N229   O230    1.301   .     A
N232   O234    1.300   .     A
N232   O233    1.301   .     A
N235   O236    1.300   .     A
N235   O237    1.302   .     A
N238   O240    1.300   .     A
N238   O239    1.302   .     A
N241   O243    1.301   .     A
O242   N427    1.300   .     S
N244   O246    1.301   .     A
N244   C406    1.436   .     S
N244   O431    1.300   .     S
Cl247  N345    1.716   1_455 S
Cl248  N284    1.716   .     S
O249   C253    1.280   .     A
O249   Zn261   1.986   .     S
O250   C254    1.280   .     A
O250   Zn262   1.986   .     S
O251   C253    1.298   .     A
O251   Zn262   2.003   .     S
O252   C254    1.298   .     A
O252   Zn261   2.003   .     S
C253   C281    1.408   .     S
C254   C282    1.408   .     S
O255   C259    1.293   .     A
O255   Zn261   2.006   .     S
O256   C260    1.293   .     A
O256   Zn262   2.006   .     S
O257   Zn262   2.031   .     S
O257   C259    1.295   .     A
O258   C260    1.295   .     A
O258   Zn261   2.031   .     S
C259   C266    1.432   .     S
C260   C265    1.432   .     S
Zn261  N284    2.035   .     S
Zn262  N283    2.035   .     S
C263   C265    1.400   .     A
C263   C273    1.397   .     A
C263   N285    1.440   .     S
C264   N288    1.440   .     S
C264   C274    1.397   .     A
C264   C266    1.400   .     A
C265   C267    1.401   .     A
C266   C268    1.401   .     A
C267   C269    1.404   .     A
C267   N291    1.436   .     S
C268   N294    1.437   .     S
C268   C270    1.404   .     A
C269   C275    1.416   .     A
C269   C271    1.422   .     A
C270   C276    1.416   .     A
C270   C272    1.422   .     A
C271   C273    1.415   .     A
C271   C830    1.406   1_554 S
C272   C274    1.415   .     A
C272   C829    1.406   .     S
C273   C278    1.399   .     A
C274   C277    1.399   .     A
C275   N297    1.435   .     S
C275   C835    1.384   1_554 S
C276   N300    1.435   .     S
C276   C836    1.384   .     S
C277   H279    1.080   .     S
C277   C833    1.384   .     S
C278   H280    1.080   .     S
C278   C834    1.384   1_554 S
C281   C468    1.362   .     S
C281   N489    1.436   .     S
N283   N346    1.279   .     S
N283   Cl371   1.716   .     S
N285   O286    1.301   .     A
N285   O287    1.302   .     A
N288   O290    1.302   .     A
N288   O289    1.301   .     A
N291   O293    1.300   .     A
N291   O292    1.301   .     A
N294   O296    1.300   .     A
N294   O295    1.301   .     A
N297   O298    1.300   .     A
N297   O299    1.302   .     A
N300   O302    1.300   .     A
N300   O301    1.302   .     A
N303   O305    1.301   .     A
O304   N489    1.300   .     S
N306   O308    1.301   .     A
N306   C468    1.436   .     S
N306   O493    1.300   .     S
Cl310  N346    1.716   .     S
O311   C315    1.280   .     A
O311   Zn323   1.986   .     S
O312   C316    1.280   .     A
O312   Zn324   1.986   .     S
O313   C315    1.298   .     A
O313   Zn324   2.003   .     S
O314   C316    1.298   .     A
O314   Zn323   2.003   .     S
C315   C343    1.408   .     S
C316   C344    1.408   .     S
O317   C321    1.293   .     A
O317   Zn323   2.006   .     S
O318   C322    1.293   .     A
O318   Zn324   2.006   .     S
O319   Zn324   2.031   .     S
O319   C321    1.295   .     A
O320   C322    1.295   .     A
O320   Zn323   2.031   .     S
C321   C328    1.432   .     S
C322   C327    1.432   .     S
Zn323  N346    2.035   .     S
Zn324  N345    2.035   .     S
C325   C327    1.400   .     A
C325   C335    1.397   .     A
C325   N347    1.440   .     S
C326   N350    1.440   .     S
C326   C336    1.397   .     A
C326   C328    1.400   .     A
C327   C329    1.401   .     A
C328   C330    1.401   .     A
C329   C331    1.404   .     A
C329   N353    1.436   .     S
C330   N356    1.437   .     S
C330   C332    1.404   .     A
C331   C337    1.416   .     A
C331   C333    1.422   .     A
C332   C338    1.416   .     A
C332   C334    1.422   .     A
C333   C335    1.415   .     A
C333   C892    1.406   1_554 S
C334   C336    1.415   .     A
C334   C891    1.406   .     S
C335   C340    1.399   .     A
C336   C339    1.399   .     A
C337   N359    1.435   .     S
C337   C897    1.384   1_554 S
C338   N362    1.435   .     S
C338   C898    1.384   .     S
C339   H341    1.080   .     S
C339   C895    1.384   .     S
C340   H342    1.080   .     S
C340   C896    1.384   1_554 S
C343   C530    1.362   .     S
C343   N551    1.436   .     S
N345   N222    1.279   1_655 S
N345   Cl247   1.716   1_655 S
N347   O348    1.301   .     A
N347   O349    1.302   .     A
N350   O352    1.302   .     A
N350   O351    1.301   .     A
N353   O355    1.300   .     A
N353   O354    1.301   .     A
N356   O358    1.300   .     A
N356   O357    1.301   .     A
N359   O360    1.300   .     A
N359   O361    1.302   .     A
N362   O364    1.300   .     A
N362   O363    1.302   .     A
N365   O367    1.301   .     A
O366   N551    1.300   .     S
N368   O370    1.301   .     A
N368   C530    1.436   .     S
N368   O555    1.300   .     S
Cl372  N222    1.716   1_655 S
O373   C377    1.280   .     A
O373   Zn385   1.986   .     S
O374   C378    1.280   .     A
O374   Zn386   1.986   .     S
O375   C377    1.298   .     A
O375   Zn386   2.003   .     S
O376   C378    1.298   .     A
O376   Zn385   2.003   .     S
C377   C405    1.408   .     S
C378   C406    1.408   .     S
O379   C383    1.293   .     A
O379   Zn385   2.006   .     S
O380   C384    1.293   .     A
O380   Zn386   2.006   .     S
O381   Zn386   2.031   .     S
O381   C383    1.295   .     A
O382   C384    1.295   .     A
O382   Zn385   2.031   .     S
C383   C390    1.432   .     S
C384   C389    1.432   .     S
Zn385  N408    2.035   .     S
Zn386  N407    2.035   .     S
C387   C389    1.400   .     A
C387   C397    1.397   .     A
C387   N409    1.440   .     S
C388   N412    1.440   .     S
C388   C398    1.397   .     A
C388   C390    1.400   .     A
C389   C391    1.401   .     A
C390   C392    1.401   .     A
C391   C393    1.404   .     A
C391   N415    1.436   .     S
C392   N418    1.437   .     S
C392   C394    1.404   .     A
C393   C399    1.416   .     A
C393   C395    1.422   .     A
C394   C400    1.416   .     A
C394   C396    1.422   .     A
C395   C397    1.415   .     A
C395   C954    1.406   1_554 S
C396   C398    1.415   .     A
C396   C953    1.406   .     S
C397   C402    1.399   .     A
C398   C401    1.399   .     A
C399   N421    1.435   .     S
C399   C959    1.384   1_554 S
C400   N424    1.435   .     S
C400   C960    1.384   .     S
C401   H403    1.080   .     S
C401   C957    1.384   .     S
C402   H404    1.080   .     S
C402   C958    1.384   1_554 S
C405   C34     1.362   1_565 S
C405   N55     1.436   1_565 S
N407   N470    1.279   .     S
N407   Cl495   1.716   .     S
N408   N531    1.279   1_455 S
N408   Cl558   1.716   1_455 S
N409   O410    1.301   .     A
N409   O411    1.302   .     A
N412   O414    1.302   .     A
N412   O413    1.301   .     A
N415   O417    1.300   .     A
N415   O416    1.301   .     A
N418   O420    1.300   .     A
N418   O419    1.301   .     A
N421   O422    1.300   .     A
N421   O423    1.302   .     A
N424   O426    1.300   .     A
N424   O425    1.302   .     A
N427   O429    1.301   .     A
O428   N55     1.300   1_565 S
N430   O432    1.301   .     A
N430   C34     1.436   1_565 S
N430   O59     1.300   1_565 S
Cl433  N531    1.716   1_455 S
Cl434  N470    1.716   .     S
O435   C439    1.280   .     A
O435   Zn447   1.986   .     S
O436   C440    1.280   .     A
O436   Zn448   1.986   .     S
O437   C439    1.298   .     A
O437   Zn448   2.003   .     S
O438   C440    1.298   .     A
O438   Zn447   2.003   .     S
C439   C467    1.408   .     S
C440   C468    1.408   .     S
O441   C445    1.293   .     A
O441   Zn447   2.006   .     S
O442   C446    1.293   .     A
O442   Zn448   2.006   .     S
O443   Zn448   2.031   .     S
O443   C445    1.295   .     A
O444   C446    1.295   .     A
O444   Zn447   2.031   .     S
C445   C452    1.432   .     S
C446   C451    1.432   .     S
Zn447  N470    2.035   .     S
Zn448  N469    2.035   .     S
C449   C451    1.400   .     A
C449   C459    1.397   .     A
C449   N471    1.440   .     S
C450   N474    1.440   .     S
C450   C460    1.397   .     A
C450   C452    1.400   .     A
C451   C453    1.401   .     A
C452   C454    1.401   .     A
C453   C455    1.404   .     A
C453   N477    1.436   .     S
C454   N480    1.437   .     S
C454   C456    1.404   .     A
C455   C461    1.416   .     A
C455   C457    1.422   .     A
C456   C462    1.416   .     A
C456   C458    1.422   .     A
C457   C459    1.415   .     A
C457   C1016   1.406   1_554 S
C458   C460    1.415   .     A
C458   C1015   1.406   .     S
C459   C464    1.399   .     A
C460   C463    1.399   .     A
C461   N483    1.435   .     S
C461   C1021   1.384   1_554 S
C462   N486    1.435   .     S
C462   C1022   1.384   .     S
C463   H465    1.080   .     S
C463   C1019   1.384   .     S
C464   H466    1.080   .     S
C464   C1020   1.384   1_554 S
C467   C96     1.362   1_565 S
C467   N117    1.436   1_565 S
N469   N532    1.279   .     S
N469   Cl557   1.716   .     S
N471   O472    1.301   .     A
N471   O473    1.302   .     A
N474   O476    1.302   .     A
N474   O475    1.301   .     A
N477   O479    1.300   .     A
N477   O478    1.301   .     A
N480   O482    1.300   .     A
N480   O481    1.301   .     A
N483   O484    1.300   .     A
N483   O485    1.302   .     A
N486   O488    1.300   .     A
N486   O487    1.302   .     A
N489   O491    1.301   .     A
O490   N117    1.300   1_565 S
N492   O494    1.301   .     A
N492   C96     1.436   1_565 S
N492   O121    1.300   1_565 S
Cl496  N532    1.716   .     S
O497   C501    1.280   .     A
O497   Zn509   1.986   .     S
O498   C502    1.280   .     A
O498   Zn510   1.986   .     S
O499   C501    1.298   .     A
O499   Zn510   2.003   .     S
O500   C502    1.298   .     A
O500   Zn509   2.003   .     S
C501   C529    1.408   .     S
C502   C530    1.408   .     S
O503   C507    1.293   .     A
O503   Zn509   2.006   .     S
O504   C508    1.293   .     A
O504   Zn510   2.006   .     S
O505   Zn510   2.031   .     S
O505   C507    1.295   .     A
O506   C508    1.295   .     A
O506   Zn509   2.031   .     S
C507   C514    1.432   .     S
C508   C513    1.432   .     S
Zn509  N532    2.035   .     S
Zn510  N531    2.035   .     S
C511   C513    1.400   .     A
C511   C521    1.397   .     A
C511   N533    1.440   .     S
C512   N536    1.440   .     S
C512   C522    1.397   .     A
C512   C514    1.400   .     A
C513   C515    1.401   .     A
C514   C516    1.401   .     A
C515   C517    1.404   .     A
C515   N539    1.436   .     S
C516   N542    1.437   .     S
C516   C518    1.404   .     A
C517   C523    1.416   .     A
C517   C519    1.422   .     A
C518   C524    1.416   .     A
C518   C520    1.422   .     A
C519   C521    1.415   .     A
C519   C1078   1.406   1_554 S
C520   C522    1.415   .     A
C520   C1077   1.406   .     S
C521   C526    1.399   .     A
C522   C525    1.399   .     A
C523   N545    1.435   .     S
C523   C1083   1.384   1_554 S
C524   N548    1.435   .     S
C524   C1084   1.384   .     S
C525   H527    1.080   .     S
C525   C1081   1.384   .     S
C526   H528    1.080   .     S
C526   C1082   1.384   1_554 S
C529   C158    1.362   1_565 S
C529   N179    1.436   1_565 S
N531   N408    1.279   1_655 S
N531   Cl433   1.716   1_655 S
N533   O534    1.301   .     A
N533   O535    1.302   .     A
N536   O538    1.302   .     A
N536   O537    1.301   .     A
N539   O541    1.300   .     A
N539   O540    1.301   .     A
N542   O544    1.300   .     A
N542   O543    1.301   .     A
N545   O546    1.300   .     A
N545   O547    1.302   .     A
N548   O550    1.300   .     A
N548   O549    1.302   .     A
N551   O553    1.301   .     A
O552   N179    1.300   1_565 S
N554   O556    1.301   .     A
N554   C158    1.436   1_565 S
N554   O183    1.300   1_565 S
Cl558  N408    1.716   1_655 S
O559   C563    1.280   .     A
O559   Zn571   1.986   .     S
O560   C564    1.280   .     A
O560   Zn572   1.986   .     S
O561   C563    1.298   .     A
O561   Zn572   2.003   .     S
O562   C564    1.298   .     A
O562   Zn571   2.003   .     S
C563   C591    1.408   .     S
C564   C592    1.408   .     S
O565   C569    1.293   .     A
O565   Zn571   2.006   .     S
O566   C570    1.293   .     A
O566   Zn572   2.006   .     S
O567   Zn572   2.031   .     S
O567   C569    1.295   .     A
O568   C570    1.295   .     A
O568   Zn571   2.031   .     S
C569   C576    1.432   .     S
C570   C575    1.432   .     S
Zn571  N594    2.035   .     S
Zn572  N593    2.035   .     S
C573   C575    1.400   .     A
C573   C583    1.397   .     A
C573   N595    1.440   .     S
C574   N598    1.440   .     S
C574   C584    1.397   .     A
C574   C576    1.400   .     A
C575   C577    1.401   .     A
C576   C578    1.401   .     A
C577   C579    1.404   .     A
C577   N601    1.436   .     S
C578   N604    1.437   .     S
C578   C580    1.404   .     A
C579   C585    1.416   .     A
C579   C581    1.422   .     A
C580   C586    1.416   .     A
C580   C582    1.422   .     A
C581   C583    1.415   .     A
C582   C584    1.415   .     A
C582   C23     1.406   1_556 S
C583   C588    1.399   .     A
C584   C587    1.399   .     A
C585   N607    1.435   .     S
C586   N610    1.435   .     S
C586   C30     1.384   1_556 S
C587   H589    1.080   .     S
C587   C27     1.384   1_556 S
C588   H590    1.080   .     S
C591   C778    1.362   .     S
C591   N799    1.436   .     S
C592   C963    1.362   1_545 S
C592   N988    1.436   1_545 S
N593   N656    1.279   .     S
N593   Cl681   1.716   .     S
N594   N717    1.279   1_455 S
N594   Cl744   1.716   1_455 S
N595   O596    1.301   .     A
N595   O597    1.302   .     A
N598   O600    1.302   .     A
N598   O599    1.301   .     A
N601   O603    1.300   .     A
N601   O602    1.301   .     A
N604   O606    1.300   .     A
N604   O605    1.301   .     A
N607   O608    1.300   .     A
N607   O609    1.302   .     A
N610   O612    1.300   .     A
N610   O611    1.302   .     A
N613   O615    1.301   .     A
N613   C963    1.436   1_545 S
N613   O986    1.300   1_545 S
O614   N799    1.300   .     S
N616   O618    1.301   .     A
N616   C778    1.436   .     S
N616   O803    1.300   .     S
O617   N988    1.300   1_545 S
Cl619  N717    1.716   1_455 S
Cl620  N656    1.716   .     S
O621   C625    1.280   .     A
O621   Zn633   1.986   .     S
O622   C626    1.280   .     A
O622   Zn634   1.986   .     S
O623   C625    1.298   .     A
O623   Zn634   2.003   .     S
O624   C626    1.298   .     A
O624   Zn633   2.003   .     S
C625   C653    1.408   .     S
C626   C654    1.408   .     S
O627   C631    1.293   .     A
O627   Zn633   2.006   .     S
O628   C632    1.293   .     A
O628   Zn634   2.006   .     S
O629   Zn634   2.031   .     S
O629   C631    1.295   .     A
O630   C632    1.295   .     A
O630   Zn633   2.031   .     S
C631   C638    1.432   .     S
C632   C637    1.432   .     S
Zn633  N656    2.035   .     S
Zn634  N655    2.035   .     S
C635   C637    1.400   .     A
C635   C645    1.397   .     A
C635   N657    1.440   .     S
C636   N660    1.440   .     S
C636   C646    1.397   .     A
C636   C638    1.400   .     A
C637   C639    1.401   .     A
C638   C640    1.401   .     A
C639   C641    1.404   .     A
C639   N663    1.436   .     S
C640   N666    1.437   .     S
C640   C642    1.404   .     A
C641   C647    1.416   .     A
C641   C643    1.422   .     A
C642   C648    1.416   .     A
C642   C644    1.422   .     A
C643   C645    1.415   .     A
C644   C646    1.415   .     A
C644   C85     1.406   1_556 S
C645   C650    1.399   .     A
C646   C649    1.399   .     A
C647   N669    1.435   .     S
C648   N672    1.435   .     S
C648   C92     1.384   1_556 S
C649   H651    1.080   .     S
C649   C89     1.384   1_556 S
C650   H652    1.080   .     S
C653   C840    1.362   .     S
C653   N861    1.436   .     S
C654   C1025   1.362   1_545 S
C654   N1050   1.436   1_545 S
N655   N718    1.279   .     S
N655   Cl743   1.716   .     S
N657   O658    1.301   .     A
N657   O659    1.302   .     A
N660   O662    1.302   .     A
N660   O661    1.301   .     A
N663   O665    1.300   .     A
N663   O664    1.301   .     A
N666   O668    1.300   .     A
N666   O667    1.301   .     A
N669   O670    1.300   .     A
N669   O671    1.302   .     A
N672   O674    1.300   .     A
N672   O673    1.302   .     A
N675   O677    1.301   .     A
N675   C1025   1.436   1_545 S
N675   O1048   1.300   1_545 S
O676   N861    1.300   .     S
N678   O680    1.301   .     A
N678   C840    1.436   .     S
N678   O865    1.300   .     S
O679   N1050   1.300   1_545 S
Cl682  N718    1.716   .     S
O683   C687    1.280   .     A
O683   Zn695   1.986   .     S
O684   C688    1.280   .     A
O684   Zn696   1.986   .     S
O685   C687    1.298   .     A
O685   Zn696   2.003   .     S
O686   C688    1.298   .     A
O686   Zn695   2.003   .     S
C687   C715    1.408   .     S
C688   C716    1.408   .     S
O689   C693    1.293   .     A
O689   Zn695   2.006   .     S
O690   C694    1.293   .     A
O690   Zn696   2.006   .     S
O691   Zn696   2.031   .     S
O691   C693    1.295   .     A
O692   C694    1.295   .     A
O692   Zn695   2.031   .     S
C693   C700    1.432   .     S
C694   C699    1.432   .     S
Zn695  N718    2.035   .     S
Zn696  N717    2.035   .     S
C697   C699    1.400   .     A
C697   C707    1.397   .     A
C697   N719    1.440   .     S
C698   N722    1.440   .     S
C698   C708    1.397   .     A
C698   C700    1.400   .     A
C699   C701    1.401   .     A
C700   C702    1.401   .     A
C701   C703    1.404   .     A
C701   N725    1.436   .     S
C702   N728    1.437   .     S
C702   C704    1.404   .     A
C703   C709    1.416   .     A
C703   C705    1.422   .     A
C704   C710    1.416   .     A
C704   C706    1.422   .     A
C705   C707    1.415   .     A
C706   C708    1.415   .     A
C706   C147    1.406   1_556 S
C707   C712    1.399   .     A
C708   C711    1.399   .     A
C709   N731    1.435   .     S
C710   N734    1.435   .     S
C710   C154    1.384   1_556 S
C711   H713    1.080   .     S
C711   C151    1.384   1_556 S
C712   H714    1.080   .     S
C715   C902    1.362   .     S
C715   N923    1.436   .     S
C716   C1087   1.362   1_545 S
C716   N1112   1.436   1_545 S
N717   N594    1.279   1_655 S
N717   Cl619   1.716   1_655 S
N719   O720    1.301   .     A
N719   O721    1.302   .     A
N722   O724    1.302   .     A
N722   O723    1.301   .     A
N725   O727    1.300   .     A
N725   O726    1.301   .     A
N728   O730    1.300   .     A
N728   O729    1.301   .     A
N731   O732    1.300   .     A
N731   O733    1.302   .     A
N734   O736    1.300   .     A
N734   O735    1.302   .     A
N737   O739    1.301   .     A
N737   C1087   1.436   1_545 S
N737   O1110   1.300   1_545 S
O738   N923    1.300   .     S
N740   O742    1.301   .     A
N740   C902    1.436   .     S
N740   O927    1.300   .     S
O741   N1112   1.300   1_545 S
Cl744  N594    1.716   1_655 S
O745   C749    1.280   .     A
O745   Zn757   1.986   .     S
O746   C750    1.280   .     A
O746   Zn758   1.986   .     S
O747   C749    1.298   .     A
O747   Zn758   2.003   .     S
O748   C750    1.298   .     A
O748   Zn757   2.003   .     S
C749   C777    1.408   .     S
C750   C778    1.408   .     S
O751   C755    1.293   .     A
O751   Zn757   2.006   .     S
O752   C756    1.293   .     A
O752   Zn758   2.006   .     S
O753   Zn758   2.031   .     S
O753   C755    1.295   .     A
O754   C756    1.295   .     A
O754   Zn757   2.031   .     S
C755   C762    1.432   .     S
C756   C761    1.432   .     S
Zn757  N780    2.035   .     S
Zn758  N779    2.035   .     S
C759   C761    1.400   .     A
C759   C769    1.397   .     A
C759   N781    1.440   .     S
C760   N784    1.440   .     S
C760   C770    1.397   .     A
C760   C762    1.400   .     A
C761   C763    1.401   .     A
C762   C764    1.401   .     A
C763   C765    1.404   .     A
C763   N787    1.436   .     S
C764   N790    1.437   .     S
C764   C766    1.404   .     A
C765   C771    1.416   .     A
C765   C767    1.422   .     A
C766   C772    1.416   .     A
C766   C768    1.422   .     A
C767   C769    1.415   .     A
C768   C770    1.415   .     A
C768   C209    1.406   1_556 S
C769   C774    1.399   .     A
C770   C773    1.399   .     A
C771   N793    1.435   .     S
C772   N796    1.435   .     S
C772   C216    1.384   1_556 S
C773   H775    1.080   .     S
C773   C213    1.384   1_556 S
C774   H776    1.080   .     S
C777   C964    1.362   .     S
C777   N985    1.436   .     S
N779   N842    1.279   .     S
N779   Cl867   1.716   .     S
N780   N903    1.279   1_455 S
N780   Cl930   1.716   1_455 S
N781   O782    1.301   .     A
N781   O783    1.302   .     A
N784   O786    1.302   .     A
N784   O785    1.301   .     A
N787   O789    1.300   .     A
N787   O788    1.301   .     A
N790   O792    1.300   .     A
N790   O791    1.301   .     A
N793   O794    1.300   .     A
N793   O795    1.302   .     A
N796   O798    1.300   .     A
N796   O797    1.302   .     A
N799   O801    1.301   .     A
O800   N985    1.300   .     S
N802   O804    1.301   .     A
N802   C964    1.436   .     S
N802   O989    1.300   .     S
Cl805  N903    1.716   1_455 S
Cl806  N842    1.716   .     S
O807   C811    1.280   .     A
O807   Zn819   1.986   .     S
O808   C812    1.280   .     A
O808   Zn820   1.986   .     S
O809   C811    1.298   .     A
O809   Zn820   2.003   .     S
O810   C812    1.298   .     A
O810   Zn819   2.003   .     S
C811   C839    1.408   .     S
C812   C840    1.408   .     S
O813   C817    1.293   .     A
O813   Zn819   2.006   .     S
O814   C818    1.293   .     A
O814   Zn820   2.006   .     S
O815   Zn820   2.031   .     S
O815   C817    1.295   .     A
O816   C818    1.295   .     A
O816   Zn819   2.031   .     S
C817   C824    1.432   .     S
C818   C823    1.432   .     S
Zn819  N842    2.035   .     S
Zn820  N841    2.035   .     S
C821   C823    1.400   .     A
C821   C831    1.397   .     A
C821   N843    1.440   .     S
C822   N846    1.440   .     S
C822   C832    1.397   .     A
C822   C824    1.400   .     A
C823   C825    1.401   .     A
C824   C826    1.401   .     A
C825   C827    1.404   .     A
C825   N849    1.436   .     S
C826   N852    1.437   .     S
C826   C828    1.404   .     A
C827   C833    1.416   .     A
C827   C829    1.422   .     A
C828   C834    1.416   .     A
C828   C830    1.422   .     A
C829   C831    1.415   .     A
C830   C832    1.415   .     A
C830   C271    1.406   1_556 S
C831   C836    1.399   .     A
C832   C835    1.399   .     A
C833   N855    1.435   .     S
C834   N858    1.435   .     S
C834   C278    1.384   1_556 S
C835   H837    1.080   .     S
C835   C275    1.384   1_556 S
C836   H838    1.080   .     S
C839   C1026   1.362   .     S
C839   N1047   1.436   .     S
N841   N904    1.279   .     S
N841   Cl929   1.716   .     S
N843   O844    1.301   .     A
N843   O845    1.302   .     A
N846   O848    1.302   .     A
N846   O847    1.301   .     A
N849   O851    1.300   .     A
N849   O850    1.301   .     A
N852   O854    1.300   .     A
N852   O853    1.301   .     A
N855   O856    1.300   .     A
N855   O857    1.302   .     A
N858   O860    1.300   .     A
N858   O859    1.302   .     A
N861   O863    1.301   .     A
O862   N1047   1.300   .     S
N864   O866    1.301   .     A
N864   C1026   1.436   .     S
N864   O1051   1.300   .     S
Cl868  N904    1.716   .     S
O869   C873    1.280   .     A
O869   Zn881   1.986   .     S
O870   C874    1.280   .     A
O870   Zn882   1.986   .     S
O871   C873    1.298   .     A
O871   Zn882   2.003   .     S
O872   C874    1.298   .     A
O872   Zn881   2.003   .     S
C873   C901    1.408   .     S
C874   C902    1.408   .     S
O875   C879    1.293   .     A
O875   Zn881   2.006   .     S
O876   C880    1.293   .     A
O876   Zn882   2.006   .     S
O877   Zn882   2.031   .     S
O877   C879    1.295   .     A
O878   C880    1.295   .     A
O878   Zn881   2.031   .     S
C879   C886    1.432   .     S
C880   C885    1.432   .     S
Zn881  N904    2.035   .     S
Zn882  N903    2.035   .     S
C883   C885    1.400   .     A
C883   C893    1.397   .     A
C883   N905    1.440   .     S
C884   N908    1.440   .     S
C884   C894    1.397   .     A
C884   C886    1.400   .     A
C885   C887    1.401   .     A
C886   C888    1.401   .     A
C887   C889    1.404   .     A
C887   N911    1.436   .     S
C888   N914    1.437   .     S
C888   C890    1.404   .     A
C889   C895    1.416   .     A
C889   C891    1.422   .     A
C890   C896    1.416   .     A
C890   C892    1.422   .     A
C891   C893    1.415   .     A
C892   C894    1.415   .     A
C892   C333    1.406   1_556 S
C893   C898    1.399   .     A
C894   C897    1.399   .     A
C895   N917    1.435   .     S
C896   N920    1.435   .     S
C896   C340    1.384   1_556 S
C897   H899    1.080   .     S
C897   C337    1.384   1_556 S
C898   H900    1.080   .     S
C901   C1088   1.362   .     S
C901   N1109   1.436   .     S
N903   N780    1.279   1_655 S
N903   Cl805   1.716   1_655 S
N905   O906    1.301   .     A
N905   O907    1.302   .     A
N908   O910    1.302   .     A
N908   O909    1.301   .     A
N911   O913    1.300   .     A
N911   O912    1.301   .     A
N914   O916    1.300   .     A
N914   O915    1.301   .     A
N917   O918    1.300   .     A
N917   O919    1.302   .     A
N920   O922    1.300   .     A
N920   O921    1.302   .     A
N923   O925    1.301   .     A
O924   N1109   1.300   .     S
N926   O928    1.301   .     A
N926   C1088   1.436   .     S
N926   O1113   1.300   .     S
Cl930  N780    1.716   1_655 S
O931   C935    1.280   .     A
O931   Zn943   1.986   .     S
O932   C936    1.280   .     A
O932   Zn944   1.986   .     S
O933   C935    1.298   .     A
O933   Zn944   2.003   .     S
O934   C936    1.298   .     A
O934   Zn943   2.003   .     S
C935   C963    1.408   .     S
C936   C964    1.408   .     S
O937   C941    1.293   .     A
O937   Zn943   2.006   .     S
O938   C942    1.293   .     A
O938   Zn944   2.006   .     S
O939   Zn944   2.031   .     S
O939   C941    1.295   .     A
O940   C942    1.295   .     A
O940   Zn943   2.031   .     S
C941   C948    1.432   .     S
C942   C947    1.432   .     S
Zn943  N966    2.035   .     S
Zn944  N965    2.035   .     S
C945   C947    1.400   .     A
C945   C955    1.397   .     A
C945   N967    1.440   .     S
C946   N970    1.440   .     S
C946   C956    1.397   .     A
C946   C948    1.400   .     A
C947   C949    1.401   .     A
C948   C950    1.401   .     A
C949   C951    1.404   .     A
C949   N973    1.436   .     S
C950   N976    1.437   .     S
C950   C952    1.404   .     A
C951   C957    1.416   .     A
C951   C953    1.422   .     A
C952   C958    1.416   .     A
C952   C954    1.422   .     A
C953   C955    1.415   .     A
C954   C956    1.415   .     A
C954   C395    1.406   1_556 S
C955   C960    1.399   .     A
C956   C959    1.399   .     A
C957   N979    1.435   .     S
C958   N982    1.435   .     S
C958   C402    1.384   1_556 S
C959   H961    1.080   .     S
C959   C399    1.384   1_556 S
C960   H962    1.080   .     S
C963   C592    1.362   1_565 S
C963   N613    1.436   1_565 S
N965   N1028   1.279   .     S
N965   Cl1053  1.716   .     S
N966   N1089   1.279   1_455 S
N966   Cl1116  1.716   1_455 S
N967   O968    1.301   .     A
N967   O969    1.302   .     A
N970   O972    1.302   .     A
N970   O971    1.301   .     A
N973   O975    1.300   .     A
N973   O974    1.301   .     A
N976   O978    1.300   .     A
N976   O977    1.301   .     A
N979   O980    1.300   .     A
N979   O981    1.302   .     A
N982   O984    1.300   .     A
N982   O983    1.302   .     A
N985   O987    1.301   .     A
O986   N613    1.300   1_565 S
N988   O990    1.301   .     A
N988   C592    1.436   1_565 S
N988   O617    1.300   1_565 S
Cl991  N1089   1.716   1_455 S
Cl992  N1028   1.716   .     S
O993   C997    1.280   .     A
O993   Zn1005  1.986   .     S
O994   C998    1.280   .     A
O994   Zn1006  1.986   .     S
O995   C997    1.298   .     A
O995   Zn1006  2.003   .     S
O996   C998    1.298   .     A
O996   Zn1005  2.003   .     S
C997   C1025   1.408   .     S
C998   C1026   1.408   .     S
O999   C1003   1.293   .     A
O999   Zn1005  2.006   .     S
O1000  C1004   1.293   .     A
O1000  Zn1006  2.006   .     S
O1001  Zn1006  2.031   .     S
O1001  C1003   1.295   .     A
O1002  C1004   1.295   .     A
O1002  Zn1005  2.031   .     S
C1003  C1010   1.432   .     S
C1004  C1009   1.432   .     S
Zn1005 N1028   2.035   .     S
Zn1006 N1027   2.035   .     S
C1007  C1009   1.400   .     A
C1007  C1017   1.397   .     A
C1007  N1029   1.440   .     S
C1008  N1032   1.440   .     S
C1008  C1018   1.397   .     A
C1008  C1010   1.400   .     A
C1009  C1011   1.401   .     A
C1010  C1012   1.401   .     A
C1011  C1013   1.404   .     A
C1011  N1035   1.436   .     S
C1012  N1038   1.437   .     S
C1012  C1014   1.404   .     A
C1013  C1019   1.416   .     A
C1013  C1015   1.422   .     A
C1014  C1020   1.416   .     A
C1014  C1016   1.422   .     A
C1015  C1017   1.415   .     A
C1016  C1018   1.415   .     A
C1016  C457    1.406   1_556 S
C1017  C1022   1.399   .     A
C1018  C1021   1.399   .     A
C1019  N1041   1.435   .     S
C1020  N1044   1.435   .     S
C1020  C464    1.384   1_556 S
C1021  H1023   1.080   .     S
C1021  C461    1.384   1_556 S
C1022  H1024   1.080   .     S
C1025  C654    1.362   1_565 S
C1025  N675    1.436   1_565 S
N1027  N1090   1.279   .     S
N1027  Cl1115  1.716   .     S
N1029  O1030   1.301   .     A
N1029  O1031   1.302   .     A
N1032  O1034   1.302   .     A
N1032  O1033   1.301   .     A
N1035  O1037   1.300   .     A
N1035  O1036   1.301   .     A
N1038  O1040   1.300   .     A
N1038  O1039   1.301   .     A
N1041  O1042   1.300   .     A
N1041  O1043   1.302   .     A
N1044  O1046   1.300   .     A
N1044  O1045   1.302   .     A
N1047  O1049   1.301   .     A
O1048  N675    1.300   1_565 S
N1050  O1052   1.301   .     A
N1050  C654    1.436   1_565 S
N1050  O679    1.300   1_565 S
Cl1054 N1090   1.716   .     S
O1055  C1059   1.280   .     A
O1055  Zn1067  1.986   .     S
O1056  C1060   1.280   .     A
O1056  Zn1068  1.986   .     S
O1057  C1059   1.298   .     A
O1057  Zn1068  2.003   .     S
O1058  C1060   1.298   .     A
O1058  Zn1067  2.003   .     S
C1059  C1087   1.408   .     S
C1060  C1088   1.408   .     S
O1061  C1065   1.293   .     A
O1061  Zn1067  2.006   .     S
O1062  C1066   1.293   .     A
O1062  Zn1068  2.006   .     S
O1063  Zn1068  2.031   .     S
O1063  C1065   1.295   .     A
O1064  C1066   1.295   .     A
O1064  Zn1067  2.031   .     S
C1065  C1072   1.432   .     S
C1066  C1071   1.432   .     S
Zn1067 N1090   2.035   .     S
Zn1068 N1089   2.035   .     S
C1069  C1071   1.400   .     A
C1069  C1079   1.397   .     A
C1069  N1091   1.440   .     S
C1070  N1094   1.440   .     S
C1070  C1080   1.397   .     A
C1070  C1072   1.400   .     A
C1071  C1073   1.401   .     A
C1072  C1074   1.401   .     A
C1073  C1075   1.404   .     A
C1073  N1097   1.436   .     S
C1074  N1100   1.437   .     S
C1074  C1076   1.404   .     A
C1075  C1081   1.416   .     A
C1075  C1077   1.422   .     A
C1076  C1082   1.416   .     A
C1076  C1078   1.422   .     A
C1077  C1079   1.415   .     A
C1078  C1080   1.415   .     A
C1078  C519    1.406   1_556 S
C1079  C1084   1.399   .     A
C1080  C1083   1.399   .     A
C1081  N1103   1.435   .     S
C1082  N1106   1.435   .     S
C1082  C526    1.384   1_556 S
C1083  H1085   1.080   .     S
C1083  C523    1.384   1_556 S
C1084  H1086   1.080   .     S
C1087  C716    1.362   1_565 S
C1087  N737    1.436   1_565 S
N1089  N966    1.279   1_655 S
N1089  Cl991   1.716   1_655 S
N1091  O1092   1.301   .     A
N1091  O1093   1.302   .     A
N1094  O1096   1.302   .     A
N1094  O1095   1.301   .     A
N1097  O1099   1.300   .     A
N1097  O1098   1.301   .     A
N1100  O1102   1.300   .     A
N1100  O1101   1.301   .     A
N1103  O1104   1.300   .     A
N1103  O1105   1.302   .     A
N1106  O1108   1.300   .     A
N1106  O1107   1.302   .     A
N1109  O1111   1.301   .     A
O1110  N737    1.300   1_565 S
N1112  O1114   1.301   .     A
N1112  C716    1.436   1_565 S
N1112  O741    1.300   1_565 S
Cl1116 N966    1.716   1_655 S
