data_str_m3_o1_o16_pcu_sym.99
_audit_creation_date              2020-01-03
_audit_creation_method            'Materials Studio'
_symmetry_space_group_name_H-M    'P1'
_symmetry_Int_Tables_number       1
_symmetry_cell_setting            triclinic
loop_
_symmetry_equiv_pos_as_xyz
  x,y,z
_cell_length_a                    29.6702
_cell_length_b                    32.0635
_cell_length_c                    26.3540
_cell_angle_alpha                 89.2749
_cell_angle_beta                  70.1065
_cell_angle_gamma                 89.2287
loop_
_atom_site_label
_atom_site_type_symbol
_atom_site_fract_x
_atom_site_fract_y
_atom_site_fract_z
_atom_site_U_iso_or_equiv
_atom_site_adp_type
_atom_site_occupancy
C1     C     0.16886   0.24613   0.24177   0.00000  Uiso   1.00
C2     C     0.14413   0.15672   0.49214   0.00000  Uiso   1.00
C3     C     0.15522   0.14660   0.43738   0.00000  Uiso   1.00
C4     C     0.18112   0.15372   0.01464   0.00000  Uiso   1.00
C5     C     0.22593   0.13512   0.48521   0.00000  Uiso   1.00
C6     C     0.23352   0.11982   0.43391   0.00000  Uiso   1.00
C7     C     0.19831   0.12464   0.41062   0.00000  Uiso   1.00
C8     C     0.17516   0.16972   0.06525   0.00000  Uiso   1.00
C9     C     0.25343   0.14398   0.06091   0.00000  Uiso   1.00
C10    C     0.12324   0.15948   0.41073   0.00000  Uiso   1.00
C11    C     0.21525   0.31066   0.22358   0.00000  Uiso   1.00
C12    C     0.14017   0.16403   0.35195   0.00000  Uiso   1.00
C13    C     0.21292   0.01893   0.23713   0.00000  Uiso   1.00
C14    C     0.17069   0.04179   0.24128   0.00000  Uiso   1.00
C15    C     0.13296   0.02240   0.23044   0.00000  Uiso   1.00
C16    C     0.13355   0.31311   0.22392   0.00000  Uiso   1.00
C17    C     0.17281   0.29010   0.22766   0.00000  Uiso   1.00
C18    C     0.32281   0.15353   0.20569   0.00000  Uiso   1.00
C19    C     0.03753   0.15372   0.20592   0.00000  Uiso   1.00
C20    C     0.01039   0.17919   0.29431   0.00000  Uiso   1.00
C21    C     0.29596   0.17928   0.29426   0.00000  Uiso   1.00
C22    C     0.16735   0.08631   0.24921   0.00000  Uiso   1.00
C23    C     0.19323   0.16683   0.14800   0.00000  Uiso   1.00
C24    C     0.26218   0.13124   0.00808   0.00000  Uiso   1.00
C25    C     0.20917   0.16219   0.08988   0.00000  Uiso   1.00
C26    C     0.07668   0.17286   0.44085   0.00000  Uiso   1.00
C27    C     0.06302   0.17621   0.49654   0.00000  Uiso   1.00
C28    C     0.09655   0.16926   0.02206   0.00000  Uiso   1.00
H29    H     0.28018   0.13798   0.07961   0.00000  Uiso   1.00
H30    H     0.10307   0.04021   0.22670   0.00000  Uiso   1.00
H31    H     0.06657   0.14318   0.17086   0.00000  Uiso   1.00
H32    H     0.01751   0.18950   0.32973   0.00000  Uiso   1.00
H33    H     0.26737   0.18984   0.32971   0.00000  Uiso   1.00
H34    H     0.26711   0.10479   0.41152   0.00000  Uiso   1.00
H35    H     0.29639   0.11684   0.48597   0.00000  Uiso   1.00
H36    H     0.14329   0.18710   0.08730   0.00000  Uiso   1.00
H37    H     0.05125   0.18176   0.42125   0.00000  Uiso   1.00
H38    H     0.08397   0.17283   0.06528   0.00000  Uiso   1.00
H39    H     0.02686   0.18594   0.01981   0.00000  Uiso   1.00
H40    H     0.20522   0.11069   0.37156   0.00000  Uiso   1.00
N41    N     0.04760   0.16668   0.25001   0.00000  Uiso   1.00
N42    N     0.28573   0.16665   0.25000   0.00000  Uiso   1.00
O43    O     0.12846   0.22775   0.25000   0.00000  Uiso   1.00
O44    O     0.20490   0.22774   0.25000   0.00000  Uiso   1.00
O45    O     0.10947   0.16666   0.32681   0.00000  Uiso   1.00
O46    O     0.18591   0.16665   0.32681   0.00000  Uiso   1.00
O47    O     0.12843   0.10559   0.24999   0.00000  Uiso   1.00
O48    O     0.20488   0.10558   0.24999   0.00000  Uiso   1.00
O49    O     0.14742   0.16668   0.17319   0.00000  Uiso   1.00
O50    O     0.22387   0.16667   0.17319   0.00000  Uiso   1.00
Zn51   Zn    0.11562   0.16667   0.25000   0.00000  Uiso   1.00
Zn52   Zn    0.21771   0.16666   0.25000   0.00000  Uiso   1.00
C53    C     0.25389   0.03554   0.25014   0.00000  Uiso   1.00
C54    C     0.29738   0.04427   0.20898   0.00000  Uiso   1.00
C55    C     0.00418   0.05528   0.22202   0.00000  Uiso   1.00
C56    C     0.00101   0.05776   0.27606   0.00000  Uiso   1.00
C57    C     0.29151   0.04801   0.31701   0.00000  Uiso   1.00
C58    C     0.25124   0.03722   0.30424   0.00000  Uiso   1.00
H59    H     0.30031   0.04193   0.16701   0.00000  Uiso   1.00
H60    H     0.03771   0.06189   0.19021   0.00000  Uiso   1.00
H61    H     0.03179   0.06669   0.28641   0.00000  Uiso   1.00
H62    H     0.28983   0.04792   0.35859   0.00000  Uiso   1.00
H63    H     0.21839   0.02910   0.33633   0.00000  Uiso   1.00
C64    C     0.09563   0.29397   0.20805   0.00000  Uiso   1.00
C65    C     0.10698   0.27710   0.15625   0.00000  Uiso   1.00
C66    C     0.07180   0.25724   0.14155   0.00000  Uiso   1.00
C67    C     0.02553   0.25352   0.17874   0.00000  Uiso   1.00
C68    C     0.01413   0.27022   0.23048   0.00000  Uiso   1.00
C69    C     0.04895   0.29081   0.24500   0.00000  Uiso   1.00
H70    H     0.14307   0.27918   0.12749   0.00000  Uiso   1.00
H71    H     0.08047   0.24444   0.10155   0.00000  Uiso   1.00
H72    H     0.33216   0.23714   0.16748   0.00000  Uiso   1.00
H73    H     0.31186   0.26677   0.25973   0.00000  Uiso   1.00
H74    H     0.03998   0.30325   0.28530   0.00000  Uiso   1.00
O75    O     0.31275   0.13989   0.16142   0.00000  Uiso   1.00
H76    H     0.00973   0.13134   0.13309   0.00000  Uiso   1.00
O77    O     0.25905   0.29066   0.20714   0.00000  Uiso   1.00
H78    H     0.25857   0.26970   0.17995   0.00000  Uiso   1.00
C79    C     0.50220   0.24613   0.24177   0.00000  Uiso   1.00
C80    C     0.47747   0.15672   0.49214   0.00000  Uiso   1.00
C81    C     0.48856   0.14660   0.43738   0.00000  Uiso   1.00
C82    C     0.51446   0.15372   0.01464   0.00000  Uiso   1.00
C83    C     0.55926   0.13512   0.48521   0.00000  Uiso   1.00
C84    C     0.56686   0.11982   0.43391   0.00000  Uiso   1.00
C85    C     0.53165   0.12464   0.41062   0.00000  Uiso   1.00
C86    C     0.50849   0.16972   0.06525   0.00000  Uiso   1.00
C87    C     0.58676   0.14398   0.06091   0.00000  Uiso   1.00
C88    C     0.45657   0.15948   0.41073   0.00000  Uiso   1.00
C89    C     0.54859   0.31066   0.22358   0.00000  Uiso   1.00
C90    C     0.47351   0.16403   0.35195   0.00000  Uiso   1.00
C91    C     0.54625   0.01893   0.23713   0.00000  Uiso   1.00
C92    C     0.50402   0.04179   0.24128   0.00000  Uiso   1.00
C93    C     0.46629   0.02240   0.23044   0.00000  Uiso   1.00
C94    C     0.46689   0.31311   0.22392   0.00000  Uiso   1.00
C95    C     0.50615   0.29010   0.22766   0.00000  Uiso   1.00
C96    C     0.65615   0.15353   0.20569   0.00000  Uiso   1.00
C97    C     0.37086   0.15372   0.20592   0.00000  Uiso   1.00
C98    C     0.34372   0.17919   0.29431   0.00000  Uiso   1.00
C99    C     0.62929   0.17928   0.29426   0.00000  Uiso   1.00
C100   C     0.50068   0.08631   0.24921   0.00000  Uiso   1.00
C101   C     0.52656   0.16683   0.14800   0.00000  Uiso   1.00
C102   C     0.59551   0.13124   0.00808   0.00000  Uiso   1.00
C103   C     0.54250   0.16219   0.08988   0.00000  Uiso   1.00
C104   C     0.41002   0.17286   0.44085   0.00000  Uiso   1.00
C105   C     0.39635   0.17621   0.49654   0.00000  Uiso   1.00
C106   C     0.42988   0.16926   0.02206   0.00000  Uiso   1.00
H107   H     0.61351   0.13798   0.07961   0.00000  Uiso   1.00
H108   H     0.43640   0.04021   0.22670   0.00000  Uiso   1.00
H109   H     0.39990   0.14318   0.17086   0.00000  Uiso   1.00
H110   H     0.35084   0.18950   0.32973   0.00000  Uiso   1.00
H111   H     0.60070   0.18984   0.32971   0.00000  Uiso   1.00
H112   H     0.60044   0.10479   0.41152   0.00000  Uiso   1.00
H113   H     0.62972   0.11684   0.48597   0.00000  Uiso   1.00
H114   H     0.47663   0.18710   0.08730   0.00000  Uiso   1.00
H115   H     0.38458   0.18176   0.42125   0.00000  Uiso   1.00
H116   H     0.41730   0.17283   0.06528   0.00000  Uiso   1.00
H117   H     0.36019   0.18594   0.01981   0.00000  Uiso   1.00
H118   H     0.53856   0.11069   0.37156   0.00000  Uiso   1.00
N119   N     0.38093   0.16668   0.25001   0.00000  Uiso   1.00
N120   N     0.61906   0.16665   0.25000   0.00000  Uiso   1.00
O121   O     0.46179   0.22775   0.25000   0.00000  Uiso   1.00
O122   O     0.53823   0.22774   0.25000   0.00000  Uiso   1.00
O123   O     0.44280   0.16666   0.32681   0.00000  Uiso   1.00
O124   O     0.51924   0.16665   0.32681   0.00000  Uiso   1.00
O125   O     0.46177   0.10559   0.24999   0.00000  Uiso   1.00
O126   O     0.53821   0.10558   0.24999   0.00000  Uiso   1.00
O127   O     0.48076   0.16668   0.17319   0.00000  Uiso   1.00
O128   O     0.55720   0.16667   0.17319   0.00000  Uiso   1.00
Zn129  Zn    0.44896   0.16667   0.25000   0.00000  Uiso   1.00
Zn130  Zn    0.55104   0.16666   0.25000   0.00000  Uiso   1.00
C131   C     0.58723   0.03554   0.25014   0.00000  Uiso   1.00
C132   C     0.63072   0.04427   0.20898   0.00000  Uiso   1.00
C133   C     0.33752   0.05528   0.22202   0.00000  Uiso   1.00
C134   C     0.33435   0.05776   0.27606   0.00000  Uiso   1.00
C135   C     0.62484   0.04801   0.31701   0.00000  Uiso   1.00
C136   C     0.58457   0.03722   0.30424   0.00000  Uiso   1.00
H137   H     0.63364   0.04193   0.16701   0.00000  Uiso   1.00
H138   H     0.37104   0.06189   0.19021   0.00000  Uiso   1.00
H139   H     0.36512   0.06669   0.28641   0.00000  Uiso   1.00
H140   H     0.62316   0.04792   0.35859   0.00000  Uiso   1.00
H141   H     0.55172   0.02910   0.33633   0.00000  Uiso   1.00
C142   C     0.42897   0.29397   0.20805   0.00000  Uiso   1.00
C143   C     0.44032   0.27710   0.15625   0.00000  Uiso   1.00
C144   C     0.40513   0.25724   0.14155   0.00000  Uiso   1.00
C145   C     0.35887   0.25352   0.17874   0.00000  Uiso   1.00
C146   C     0.34746   0.27022   0.23048   0.00000  Uiso   1.00
C147   C     0.38229   0.29081   0.24500   0.00000  Uiso   1.00
H148   H     0.47640   0.27918   0.12749   0.00000  Uiso   1.00
H149   H     0.41380   0.24444   0.10155   0.00000  Uiso   1.00
H150   H     0.66550   0.23714   0.16748   0.00000  Uiso   1.00
H151   H     0.64519   0.26677   0.25973   0.00000  Uiso   1.00
H152   H     0.37332   0.30325   0.28530   0.00000  Uiso   1.00
O153   O     0.64609   0.13989   0.16142   0.00000  Uiso   1.00
H154   H     0.34307   0.13134   0.13309   0.00000  Uiso   1.00
O155   O     0.59239   0.29066   0.20714   0.00000  Uiso   1.00
H156   H     0.59190   0.26970   0.17995   0.00000  Uiso   1.00
C157   C     0.83553   0.24613   0.24177   0.00000  Uiso   1.00
C158   C     0.81080   0.15672   0.49214   0.00000  Uiso   1.00
C159   C     0.82189   0.14660   0.43738   0.00000  Uiso   1.00
C160   C     0.84779   0.15372   0.01464   0.00000  Uiso   1.00
C161   C     0.89260   0.13512   0.48521   0.00000  Uiso   1.00
C162   C     0.90019   0.11982   0.43391   0.00000  Uiso   1.00
C163   C     0.86498   0.12464   0.41062   0.00000  Uiso   1.00
C164   C     0.84182   0.16972   0.06525   0.00000  Uiso   1.00
C165   C     0.92009   0.14398   0.06091   0.00000  Uiso   1.00
C166   C     0.78990   0.15948   0.41073   0.00000  Uiso   1.00
C167   C     0.88192   0.31066   0.22358   0.00000  Uiso   1.00
C168   C     0.80684   0.16403   0.35195   0.00000  Uiso   1.00
C169   C     0.87959   0.01893   0.23713   0.00000  Uiso   1.00
C170   C     0.83736   0.04179   0.24128   0.00000  Uiso   1.00
C171   C     0.79963   0.02240   0.23044   0.00000  Uiso   1.00
C172   C     0.80022   0.31311   0.22392   0.00000  Uiso   1.00
C173   C     0.83948   0.29010   0.22766   0.00000  Uiso   1.00
C174   C     0.98948   0.15353   0.20569   0.00000  Uiso   1.00
C175   C     0.70420   0.15372   0.20592   0.00000  Uiso   1.00
C176   C     0.67705   0.17919   0.29431   0.00000  Uiso   1.00
C177   C     0.96263   0.17928   0.29426   0.00000  Uiso   1.00
C178   C     0.83401   0.08631   0.24921   0.00000  Uiso   1.00
C179   C     0.85990   0.16683   0.14800   0.00000  Uiso   1.00
C180   C     0.92884   0.13124   0.00808   0.00000  Uiso   1.00
C181   C     0.87584   0.16219   0.08988   0.00000  Uiso   1.00
C182   C     0.74335   0.17286   0.44085   0.00000  Uiso   1.00
C183   C     0.72968   0.17621   0.49654   0.00000  Uiso   1.00
C184   C     0.76322   0.16926   0.02206   0.00000  Uiso   1.00
H185   H     0.94684   0.13798   0.07961   0.00000  Uiso   1.00
H186   H     0.76974   0.04021   0.22670   0.00000  Uiso   1.00
H187   H     0.73323   0.14318   0.17086   0.00000  Uiso   1.00
H188   H     0.68417   0.18950   0.32973   0.00000  Uiso   1.00
H189   H     0.93404   0.18984   0.32971   0.00000  Uiso   1.00
H190   H     0.93377   0.10479   0.41152   0.00000  Uiso   1.00
H191   H     0.96306   0.11684   0.48597   0.00000  Uiso   1.00
H192   H     0.80996   0.18710   0.08730   0.00000  Uiso   1.00
H193   H     0.71791   0.18176   0.42125   0.00000  Uiso   1.00
H194   H     0.75063   0.17283   0.06528   0.00000  Uiso   1.00
H195   H     0.69352   0.18594   0.01981   0.00000  Uiso   1.00
H196   H     0.87189   0.11069   0.37156   0.00000  Uiso   1.00
N197   N     0.71426   0.16668   0.25001   0.00000  Uiso   1.00
N198   N     0.95239   0.16665   0.25000   0.00000  Uiso   1.00
O199   O     0.79512   0.22775   0.25000   0.00000  Uiso   1.00
O200   O     0.87157   0.22774   0.25000   0.00000  Uiso   1.00
O201   O     0.77613   0.16666   0.32681   0.00000  Uiso   1.00
O202   O     0.85258   0.16665   0.32681   0.00000  Uiso   1.00
O203   O     0.79510   0.10559   0.24999   0.00000  Uiso   1.00
O204   O     0.87154   0.10558   0.24999   0.00000  Uiso   1.00
O205   O     0.81409   0.16668   0.17319   0.00000  Uiso   1.00
O206   O     0.89053   0.16667   0.17319   0.00000  Uiso   1.00
Zn207  Zn    0.78229   0.16667   0.25000   0.00000  Uiso   1.00
Zn208  Zn    0.88438   0.16666   0.25000   0.00000  Uiso   1.00
C209   C     0.92056   0.03554   0.25014   0.00000  Uiso   1.00
C210   C     0.96405   0.04427   0.20898   0.00000  Uiso   1.00
C211   C     0.67085   0.05528   0.22202   0.00000  Uiso   1.00
C212   C     0.66768   0.05776   0.27606   0.00000  Uiso   1.00
C213   C     0.95818   0.04801   0.31701   0.00000  Uiso   1.00
C214   C     0.91791   0.03722   0.30424   0.00000  Uiso   1.00
H215   H     0.96697   0.04193   0.16701   0.00000  Uiso   1.00
H216   H     0.70437   0.06189   0.19021   0.00000  Uiso   1.00
H217   H     0.69846   0.06669   0.28641   0.00000  Uiso   1.00
H218   H     0.95649   0.04792   0.35859   0.00000  Uiso   1.00
H219   H     0.88505   0.02910   0.33633   0.00000  Uiso   1.00
C220   C     0.76230   0.29397   0.20805   0.00000  Uiso   1.00
C221   C     0.77365   0.27710   0.15625   0.00000  Uiso   1.00
C222   C     0.73846   0.25724   0.14155   0.00000  Uiso   1.00
C223   C     0.69220   0.25352   0.17874   0.00000  Uiso   1.00
C224   C     0.68080   0.27022   0.23048   0.00000  Uiso   1.00
C225   C     0.71562   0.29081   0.24500   0.00000  Uiso   1.00
H226   H     0.80973   0.27918   0.12749   0.00000  Uiso   1.00
H227   H     0.74713   0.24444   0.10155   0.00000  Uiso   1.00
H228   H     0.99883   0.23714   0.16748   0.00000  Uiso   1.00
H229   H     0.97852   0.26677   0.25973   0.00000  Uiso   1.00
H230   H     0.70665   0.30325   0.28530   0.00000  Uiso   1.00
O231   O     0.97942   0.13989   0.16142   0.00000  Uiso   1.00
H232   H     0.67640   0.13134   0.13309   0.00000  Uiso   1.00
O233   O     0.92572   0.29066   0.20714   0.00000  Uiso   1.00
H234   H     0.92524   0.26970   0.17995   0.00000  Uiso   1.00
C235   C     0.16886   0.57946   0.24177   0.00000  Uiso   1.00
C236   C     0.14413   0.49005   0.49214   0.00000  Uiso   1.00
C237   C     0.15522   0.47993   0.43738   0.00000  Uiso   1.00
C238   C     0.18112   0.48706   0.01464   0.00000  Uiso   1.00
C239   C     0.22593   0.46845   0.48521   0.00000  Uiso   1.00
C240   C     0.23352   0.45315   0.43391   0.00000  Uiso   1.00
C241   C     0.19831   0.45798   0.41062   0.00000  Uiso   1.00
C242   C     0.17516   0.50305   0.06525   0.00000  Uiso   1.00
C243   C     0.25343   0.47732   0.06091   0.00000  Uiso   1.00
C244   C     0.12324   0.49282   0.41073   0.00000  Uiso   1.00
C245   C     0.21525   0.64399   0.22358   0.00000  Uiso   1.00
C246   C     0.14017   0.49737   0.35195   0.00000  Uiso   1.00
C247   C     0.21292   0.35227   0.23713   0.00000  Uiso   1.00
C248   C     0.17069   0.37512   0.24128   0.00000  Uiso   1.00
C249   C     0.13296   0.35573   0.23044   0.00000  Uiso   1.00
C250   C     0.13355   0.64645   0.22392   0.00000  Uiso   1.00
C251   C     0.17281   0.62344   0.22766   0.00000  Uiso   1.00
C252   C     0.32281   0.48686   0.20569   0.00000  Uiso   1.00
C253   C     0.03753   0.48705   0.20592   0.00000  Uiso   1.00
C254   C     0.01039   0.51252   0.29431   0.00000  Uiso   1.00
C255   C     0.29596   0.51262   0.29426   0.00000  Uiso   1.00
C256   C     0.16735   0.41964   0.24921   0.00000  Uiso   1.00
C257   C     0.19323   0.50017   0.14800   0.00000  Uiso   1.00
C258   C     0.26218   0.46457   0.00808   0.00000  Uiso   1.00
C259   C     0.20917   0.49552   0.08988   0.00000  Uiso   1.00
C260   C     0.07668   0.50620   0.44085   0.00000  Uiso   1.00
C261   C     0.06302   0.50954   0.49654   0.00000  Uiso   1.00
C262   C     0.09655   0.50259   0.02206   0.00000  Uiso   1.00
H263   H     0.28018   0.47132   0.07961   0.00000  Uiso   1.00
H264   H     0.10307   0.37354   0.22670   0.00000  Uiso   1.00
H265   H     0.06657   0.47652   0.17086   0.00000  Uiso   1.00
H266   H     0.01751   0.52283   0.32973   0.00000  Uiso   1.00
H267   H     0.26737   0.52317   0.32971   0.00000  Uiso   1.00
H268   H     0.26711   0.43812   0.41152   0.00000  Uiso   1.00
H269   H     0.29639   0.45017   0.48597   0.00000  Uiso   1.00
H270   H     0.14329   0.52043   0.08730   0.00000  Uiso   1.00
H271   H     0.05125   0.51509   0.42125   0.00000  Uiso   1.00
H272   H     0.08397   0.50616   0.06528   0.00000  Uiso   1.00
H273   H     0.02686   0.51928   0.01981   0.00000  Uiso   1.00
H274   H     0.20522   0.44402   0.37156   0.00000  Uiso   1.00
N275   N     0.04760   0.50001   0.25001   0.00000  Uiso   1.00
N276   N     0.28573   0.49998   0.25000   0.00000  Uiso   1.00
O277   O     0.12846   0.56108   0.25000   0.00000  Uiso   1.00
O278   O     0.20490   0.56107   0.25000   0.00000  Uiso   1.00
O279   O     0.10947   0.50000   0.32681   0.00000  Uiso   1.00
O280   O     0.18591   0.49999   0.32681   0.00000  Uiso   1.00
O281   O     0.12843   0.43893   0.24999   0.00000  Uiso   1.00
O282   O     0.20488   0.43892   0.24999   0.00000  Uiso   1.00
O283   O     0.14742   0.50001   0.17319   0.00000  Uiso   1.00
O284   O     0.22387   0.50000   0.17319   0.00000  Uiso   1.00
Zn285  Zn    0.11562   0.50001   0.25000   0.00000  Uiso   1.00
Zn286  Zn    0.21771   0.49999   0.25000   0.00000  Uiso   1.00
C287   C     0.25389   0.36888   0.25014   0.00000  Uiso   1.00
C288   C     0.29738   0.37761   0.20898   0.00000  Uiso   1.00
C289   C     0.00418   0.38861   0.22202   0.00000  Uiso   1.00
C290   C     0.00101   0.39109   0.27606   0.00000  Uiso   1.00
C291   C     0.29151   0.38135   0.31701   0.00000  Uiso   1.00
C292   C     0.25124   0.37056   0.30424   0.00000  Uiso   1.00
H293   H     0.30031   0.37526   0.16701   0.00000  Uiso   1.00
H294   H     0.03771   0.39522   0.19021   0.00000  Uiso   1.00
H295   H     0.03179   0.40002   0.28641   0.00000  Uiso   1.00
H296   H     0.28983   0.38126   0.35859   0.00000  Uiso   1.00
H297   H     0.21839   0.36243   0.33633   0.00000  Uiso   1.00
C298   C     0.09563   0.62731   0.20805   0.00000  Uiso   1.00
C299   C     0.10698   0.61043   0.15625   0.00000  Uiso   1.00
C300   C     0.07180   0.59057   0.14155   0.00000  Uiso   1.00
C301   C     0.02553   0.58685   0.17874   0.00000  Uiso   1.00
C302   C     0.01413   0.60355   0.23048   0.00000  Uiso   1.00
C303   C     0.04895   0.62415   0.24500   0.00000  Uiso   1.00
H304   H     0.14307   0.61251   0.12749   0.00000  Uiso   1.00
H305   H     0.08047   0.57777   0.10155   0.00000  Uiso   1.00
H306   H     0.33216   0.57047   0.16748   0.00000  Uiso   1.00
H307   H     0.31186   0.60011   0.25973   0.00000  Uiso   1.00
H308   H     0.03998   0.63658   0.28530   0.00000  Uiso   1.00
O309   O     0.31275   0.47322   0.16142   0.00000  Uiso   1.00
H310   H     0.00973   0.46468   0.13309   0.00000  Uiso   1.00
O311   O     0.25905   0.62399   0.20714   0.00000  Uiso   1.00
H312   H     0.25857   0.60303   0.17995   0.00000  Uiso   1.00
C313   C     0.50220   0.57946   0.24177   0.00000  Uiso   1.00
C314   C     0.47747   0.49005   0.49214   0.00000  Uiso   1.00
C315   C     0.48856   0.47993   0.43738   0.00000  Uiso   1.00
C316   C     0.51446   0.48706   0.01464   0.00000  Uiso   1.00
C317   C     0.55926   0.46845   0.48521   0.00000  Uiso   1.00
C318   C     0.56686   0.45315   0.43391   0.00000  Uiso   1.00
C319   C     0.53165   0.45798   0.41062   0.00000  Uiso   1.00
C320   C     0.50849   0.50305   0.06525   0.00000  Uiso   1.00
C321   C     0.58676   0.47732   0.06091   0.00000  Uiso   1.00
C322   C     0.45657   0.49282   0.41073   0.00000  Uiso   1.00
C323   C     0.54859   0.64399   0.22358   0.00000  Uiso   1.00
C324   C     0.47351   0.49737   0.35195   0.00000  Uiso   1.00
C325   C     0.54625   0.35227   0.23713   0.00000  Uiso   1.00
C326   C     0.50402   0.37512   0.24128   0.00000  Uiso   1.00
C327   C     0.46629   0.35573   0.23044   0.00000  Uiso   1.00
C328   C     0.46689   0.64645   0.22392   0.00000  Uiso   1.00
C329   C     0.50615   0.62344   0.22766   0.00000  Uiso   1.00
C330   C     0.65615   0.48686   0.20569   0.00000  Uiso   1.00
C331   C     0.37086   0.48705   0.20592   0.00000  Uiso   1.00
C332   C     0.34372   0.51252   0.29431   0.00000  Uiso   1.00
C333   C     0.62929   0.51262   0.29426   0.00000  Uiso   1.00
C334   C     0.50068   0.41964   0.24921   0.00000  Uiso   1.00
C335   C     0.52656   0.50017   0.14800   0.00000  Uiso   1.00
C336   C     0.59551   0.46457   0.00808   0.00000  Uiso   1.00
C337   C     0.54250   0.49552   0.08988   0.00000  Uiso   1.00
C338   C     0.41002   0.50620   0.44085   0.00000  Uiso   1.00
C339   C     0.39635   0.50954   0.49654   0.00000  Uiso   1.00
C340   C     0.42988   0.50259   0.02206   0.00000  Uiso   1.00
H341   H     0.61351   0.47132   0.07961   0.00000  Uiso   1.00
H342   H     0.43640   0.37354   0.22670   0.00000  Uiso   1.00
H343   H     0.39990   0.47652   0.17086   0.00000  Uiso   1.00
H344   H     0.35084   0.52283   0.32973   0.00000  Uiso   1.00
H345   H     0.60070   0.52317   0.32971   0.00000  Uiso   1.00
H346   H     0.60044   0.43812   0.41152   0.00000  Uiso   1.00
H347   H     0.62972   0.45017   0.48597   0.00000  Uiso   1.00
H348   H     0.47663   0.52043   0.08730   0.00000  Uiso   1.00
H349   H     0.38458   0.51509   0.42125   0.00000  Uiso   1.00
H350   H     0.41730   0.50616   0.06528   0.00000  Uiso   1.00
H351   H     0.36019   0.51928   0.01981   0.00000  Uiso   1.00
H352   H     0.53856   0.44402   0.37156   0.00000  Uiso   1.00
N353   N     0.38093   0.50001   0.25001   0.00000  Uiso   1.00
N354   N     0.61906   0.49998   0.25000   0.00000  Uiso   1.00
O355   O     0.46179   0.56108   0.25000   0.00000  Uiso   1.00
O356   O     0.53823   0.56107   0.25000   0.00000  Uiso   1.00
O357   O     0.44280   0.50000   0.32681   0.00000  Uiso   1.00
O358   O     0.51924   0.49999   0.32681   0.00000  Uiso   1.00
O359   O     0.46177   0.43893   0.24999   0.00000  Uiso   1.00
O360   O     0.53821   0.43892   0.24999   0.00000  Uiso   1.00
O361   O     0.48076   0.50001   0.17319   0.00000  Uiso   1.00
O362   O     0.55720   0.50000   0.17319   0.00000  Uiso   1.00
Zn363  Zn    0.44896   0.50001   0.25000   0.00000  Uiso   1.00
Zn364  Zn    0.55104   0.49999   0.25000   0.00000  Uiso   1.00
C365   C     0.58723   0.36888   0.25014   0.00000  Uiso   1.00
C366   C     0.63072   0.37761   0.20898   0.00000  Uiso   1.00
C367   C     0.33752   0.38861   0.22202   0.00000  Uiso   1.00
C368   C     0.33435   0.39109   0.27606   0.00000  Uiso   1.00
C369   C     0.62484   0.38135   0.31701   0.00000  Uiso   1.00
C370   C     0.58457   0.37056   0.30424   0.00000  Uiso   1.00
H371   H     0.63364   0.37526   0.16701   0.00000  Uiso   1.00
H372   H     0.37104   0.39522   0.19021   0.00000  Uiso   1.00
H373   H     0.36512   0.40002   0.28641   0.00000  Uiso   1.00
H374   H     0.62316   0.38126   0.35859   0.00000  Uiso   1.00
H375   H     0.55172   0.36243   0.33633   0.00000  Uiso   1.00
C376   C     0.42897   0.62731   0.20805   0.00000  Uiso   1.00
C377   C     0.44032   0.61043   0.15625   0.00000  Uiso   1.00
C378   C     0.40513   0.59057   0.14155   0.00000  Uiso   1.00
C379   C     0.35887   0.58685   0.17874   0.00000  Uiso   1.00
C380   C     0.34746   0.60355   0.23048   0.00000  Uiso   1.00
C381   C     0.38229   0.62415   0.24500   0.00000  Uiso   1.00
H382   H     0.47640   0.61251   0.12749   0.00000  Uiso   1.00
H383   H     0.41380   0.57777   0.10155   0.00000  Uiso   1.00
H384   H     0.66550   0.57047   0.16748   0.00000  Uiso   1.00
H385   H     0.64519   0.60011   0.25973   0.00000  Uiso   1.00
H386   H     0.37332   0.63658   0.28530   0.00000  Uiso   1.00
O387   O     0.64609   0.47322   0.16142   0.00000  Uiso   1.00
H388   H     0.34307   0.46468   0.13309   0.00000  Uiso   1.00
O389   O     0.59239   0.62399   0.20714   0.00000  Uiso   1.00
H390   H     0.59190   0.60303   0.17995   0.00000  Uiso   1.00
C391   C     0.83553   0.57946   0.24177   0.00000  Uiso   1.00
C392   C     0.81080   0.49005   0.49214   0.00000  Uiso   1.00
C393   C     0.82189   0.47993   0.43738   0.00000  Uiso   1.00
C394   C     0.84779   0.48706   0.01464   0.00000  Uiso   1.00
C395   C     0.89260   0.46845   0.48521   0.00000  Uiso   1.00
C396   C     0.90019   0.45315   0.43391   0.00000  Uiso   1.00
C397   C     0.86498   0.45798   0.41062   0.00000  Uiso   1.00
C398   C     0.84182   0.50305   0.06525   0.00000  Uiso   1.00
C399   C     0.92009   0.47732   0.06091   0.00000  Uiso   1.00
C400   C     0.78990   0.49282   0.41073   0.00000  Uiso   1.00
C401   C     0.88192   0.64399   0.22358   0.00000  Uiso   1.00
C402   C     0.80684   0.49737   0.35195   0.00000  Uiso   1.00
C403   C     0.87959   0.35227   0.23713   0.00000  Uiso   1.00
C404   C     0.83736   0.37512   0.24128   0.00000  Uiso   1.00
C405   C     0.79963   0.35573   0.23044   0.00000  Uiso   1.00
C406   C     0.80022   0.64645   0.22392   0.00000  Uiso   1.00
C407   C     0.83948   0.62344   0.22766   0.00000  Uiso   1.00
C408   C     0.98948   0.48686   0.20569   0.00000  Uiso   1.00
C409   C     0.70420   0.48705   0.20592   0.00000  Uiso   1.00
C410   C     0.67705   0.51252   0.29431   0.00000  Uiso   1.00
C411   C     0.96263   0.51262   0.29426   0.00000  Uiso   1.00
C412   C     0.83401   0.41964   0.24921   0.00000  Uiso   1.00
C413   C     0.85990   0.50017   0.14800   0.00000  Uiso   1.00
C414   C     0.92884   0.46457   0.00808   0.00000  Uiso   1.00
C415   C     0.87584   0.49552   0.08988   0.00000  Uiso   1.00
C416   C     0.74335   0.50620   0.44085   0.00000  Uiso   1.00
C417   C     0.72968   0.50954   0.49654   0.00000  Uiso   1.00
C418   C     0.76322   0.50259   0.02206   0.00000  Uiso   1.00
H419   H     0.94684   0.47132   0.07961   0.00000  Uiso   1.00
H420   H     0.76974   0.37354   0.22670   0.00000  Uiso   1.00
H421   H     0.73323   0.47652   0.17086   0.00000  Uiso   1.00
H422   H     0.68417   0.52283   0.32973   0.00000  Uiso   1.00
H423   H     0.93404   0.52317   0.32971   0.00000  Uiso   1.00
H424   H     0.93377   0.43812   0.41152   0.00000  Uiso   1.00
H425   H     0.96306   0.45017   0.48597   0.00000  Uiso   1.00
H426   H     0.80996   0.52043   0.08730   0.00000  Uiso   1.00
H427   H     0.71791   0.51509   0.42125   0.00000  Uiso   1.00
H428   H     0.75063   0.50616   0.06528   0.00000  Uiso   1.00
H429   H     0.69352   0.51928   0.01981   0.00000  Uiso   1.00
H430   H     0.87189   0.44402   0.37156   0.00000  Uiso   1.00
N431   N     0.71426   0.50001   0.25001   0.00000  Uiso   1.00
N432   N     0.95239   0.49998   0.25000   0.00000  Uiso   1.00
O433   O     0.79512   0.56108   0.25000   0.00000  Uiso   1.00
O434   O     0.87157   0.56107   0.25000   0.00000  Uiso   1.00
O435   O     0.77613   0.50000   0.32681   0.00000  Uiso   1.00
O436   O     0.85258   0.49999   0.32681   0.00000  Uiso   1.00
O437   O     0.79510   0.43893   0.24999   0.00000  Uiso   1.00
O438   O     0.87154   0.43892   0.24999   0.00000  Uiso   1.00
O439   O     0.81409   0.50001   0.17319   0.00000  Uiso   1.00
O440   O     0.89053   0.50000   0.17319   0.00000  Uiso   1.00
Zn441  Zn    0.78229   0.50001   0.25000   0.00000  Uiso   1.00
Zn442  Zn    0.88438   0.49999   0.25000   0.00000  Uiso   1.00
C443   C     0.92056   0.36888   0.25014   0.00000  Uiso   1.00
C444   C     0.96405   0.37761   0.20898   0.00000  Uiso   1.00
C445   C     0.67085   0.38861   0.22202   0.00000  Uiso   1.00
C446   C     0.66768   0.39109   0.27606   0.00000  Uiso   1.00
C447   C     0.95818   0.38135   0.31701   0.00000  Uiso   1.00
C448   C     0.91791   0.37056   0.30424   0.00000  Uiso   1.00
H449   H     0.96697   0.37526   0.16701   0.00000  Uiso   1.00
H450   H     0.70437   0.39522   0.19021   0.00000  Uiso   1.00
H451   H     0.69846   0.40002   0.28641   0.00000  Uiso   1.00
H452   H     0.95649   0.38126   0.35859   0.00000  Uiso   1.00
H453   H     0.88505   0.36243   0.33633   0.00000  Uiso   1.00
C454   C     0.76230   0.62731   0.20805   0.00000  Uiso   1.00
C455   C     0.77365   0.61043   0.15625   0.00000  Uiso   1.00
C456   C     0.73846   0.59057   0.14155   0.00000  Uiso   1.00
C457   C     0.69220   0.58685   0.17874   0.00000  Uiso   1.00
C458   C     0.68080   0.60355   0.23048   0.00000  Uiso   1.00
C459   C     0.71562   0.62415   0.24500   0.00000  Uiso   1.00
H460   H     0.80973   0.61251   0.12749   0.00000  Uiso   1.00
H461   H     0.74713   0.57777   0.10155   0.00000  Uiso   1.00
H462   H     0.99883   0.57047   0.16748   0.00000  Uiso   1.00
H463   H     0.97852   0.60011   0.25973   0.00000  Uiso   1.00
H464   H     0.70665   0.63658   0.28530   0.00000  Uiso   1.00
O465   O     0.97942   0.47322   0.16142   0.00000  Uiso   1.00
H466   H     0.67640   0.46468   0.13309   0.00000  Uiso   1.00
O467   O     0.92572   0.62399   0.20714   0.00000  Uiso   1.00
H468   H     0.92524   0.60303   0.17995   0.00000  Uiso   1.00
C469   C     0.16886   0.91280   0.24177   0.00000  Uiso   1.00
C470   C     0.14413   0.82338   0.49214   0.00000  Uiso   1.00
C471   C     0.15522   0.81327   0.43738   0.00000  Uiso   1.00
C472   C     0.18112   0.82039   0.01464   0.00000  Uiso   1.00
C473   C     0.22593   0.80179   0.48521   0.00000  Uiso   1.00
C474   C     0.23352   0.78649   0.43391   0.00000  Uiso   1.00
C475   C     0.19831   0.79131   0.41062   0.00000  Uiso   1.00
C476   C     0.17516   0.83639   0.06525   0.00000  Uiso   1.00
C477   C     0.25343   0.81065   0.06091   0.00000  Uiso   1.00
C478   C     0.12324   0.82615   0.41073   0.00000  Uiso   1.00
C479   C     0.21525   0.97732   0.22358   0.00000  Uiso   1.00
C480   C     0.14017   0.83070   0.35195   0.00000  Uiso   1.00
C481   C     0.21292   0.68560   0.23713   0.00000  Uiso   1.00
C482   C     0.17069   0.70846   0.24128   0.00000  Uiso   1.00
C483   C     0.13296   0.68906   0.23044   0.00000  Uiso   1.00
C484   C     0.13355   0.97978   0.22392   0.00000  Uiso   1.00
C485   C     0.17281   0.95677   0.22766   0.00000  Uiso   1.00
C486   C     0.32281   0.82019   0.20569   0.00000  Uiso   1.00
C487   C     0.03753   0.82039   0.20592   0.00000  Uiso   1.00
C488   C     0.01039   0.84585   0.29431   0.00000  Uiso   1.00
C489   C     0.29596   0.84595   0.29426   0.00000  Uiso   1.00
C490   C     0.16735   0.75298   0.24921   0.00000  Uiso   1.00
C491   C     0.19323   0.83350   0.14800   0.00000  Uiso   1.00
C492   C     0.26218   0.79791   0.00808   0.00000  Uiso   1.00
C493   C     0.20917   0.82886   0.08988   0.00000  Uiso   1.00
C494   C     0.07668   0.83953   0.44085   0.00000  Uiso   1.00
C495   C     0.06302   0.84288   0.49654   0.00000  Uiso   1.00
C496   C     0.09655   0.83593   0.02206   0.00000  Uiso   1.00
H497   H     0.28018   0.80465   0.07961   0.00000  Uiso   1.00
H498   H     0.10307   0.70688   0.22670   0.00000  Uiso   1.00
H499   H     0.06657   0.80985   0.17086   0.00000  Uiso   1.00
H500   H     0.01751   0.85616   0.32973   0.00000  Uiso   1.00
H501   H     0.26737   0.85650   0.32971   0.00000  Uiso   1.00
H502   H     0.26711   0.77145   0.41152   0.00000  Uiso   1.00
H503   H     0.29639   0.78350   0.48597   0.00000  Uiso   1.00
H504   H     0.14329   0.85376   0.08730   0.00000  Uiso   1.00
H505   H     0.05125   0.84842   0.42125   0.00000  Uiso   1.00
H506   H     0.08397   0.83950   0.06528   0.00000  Uiso   1.00
H507   H     0.02686   0.85261   0.01981   0.00000  Uiso   1.00
H508   H     0.20522   0.77736   0.37156   0.00000  Uiso   1.00
N509   N     0.04760   0.83334   0.25001   0.00000  Uiso   1.00
N510   N     0.28573   0.83331   0.25000   0.00000  Uiso   1.00
O511   O     0.12846   0.89442   0.25000   0.00000  Uiso   1.00
O512   O     0.20490   0.89441   0.25000   0.00000  Uiso   1.00
O513   O     0.10947   0.83333   0.32681   0.00000  Uiso   1.00
O514   O     0.18591   0.83332   0.32681   0.00000  Uiso   1.00
O515   O     0.12843   0.77226   0.24999   0.00000  Uiso   1.00
O516   O     0.20488   0.77225   0.24999   0.00000  Uiso   1.00
O517   O     0.14742   0.83335   0.17319   0.00000  Uiso   1.00
O518   O     0.22387   0.83334   0.17319   0.00000  Uiso   1.00
Zn519  Zn    0.11562   0.83334   0.25000   0.00000  Uiso   1.00
Zn520  Zn    0.21771   0.83333   0.25000   0.00000  Uiso   1.00
C521   C     0.25389   0.70221   0.25014   0.00000  Uiso   1.00
C522   C     0.29738   0.71094   0.20898   0.00000  Uiso   1.00
C523   C     0.00418   0.72195   0.22202   0.00000  Uiso   1.00
C524   C     0.00101   0.72442   0.27606   0.00000  Uiso   1.00
C525   C     0.29151   0.71468   0.31701   0.00000  Uiso   1.00
C526   C     0.25124   0.70389   0.30424   0.00000  Uiso   1.00
H527   H     0.30031   0.70859   0.16701   0.00000  Uiso   1.00
H528   H     0.03771   0.72856   0.19021   0.00000  Uiso   1.00
H529   H     0.03179   0.73335   0.28641   0.00000  Uiso   1.00
H530   H     0.28983   0.71459   0.35859   0.00000  Uiso   1.00
H531   H     0.21839   0.69577   0.33633   0.00000  Uiso   1.00
C532   C     0.09563   0.96064   0.20805   0.00000  Uiso   1.00
C533   C     0.10698   0.94376   0.15625   0.00000  Uiso   1.00
C534   C     0.07180   0.92391   0.14155   0.00000  Uiso   1.00
C535   C     0.02553   0.92018   0.17874   0.00000  Uiso   1.00
C536   C     0.01413   0.93688   0.23048   0.00000  Uiso   1.00
C537   C     0.04895   0.95748   0.24500   0.00000  Uiso   1.00
H538   H     0.14307   0.94584   0.12749   0.00000  Uiso   1.00
H539   H     0.08047   0.91111   0.10155   0.00000  Uiso   1.00
H540   H     0.33216   0.90381   0.16748   0.00000  Uiso   1.00
H541   H     0.31186   0.93344   0.25973   0.00000  Uiso   1.00
H542   H     0.03998   0.96992   0.28530   0.00000  Uiso   1.00
O543   O     0.31275   0.80656   0.16142   0.00000  Uiso   1.00
H544   H     0.00973   0.79801   0.13309   0.00000  Uiso   1.00
O545   O     0.25905   0.95732   0.20714   0.00000  Uiso   1.00
H546   H     0.25857   0.93637   0.17995   0.00000  Uiso   1.00
C547   C     0.50220   0.91280   0.24177   0.00000  Uiso   1.00
C548   C     0.47747   0.82338   0.49214   0.00000  Uiso   1.00
C549   C     0.48856   0.81327   0.43738   0.00000  Uiso   1.00
C550   C     0.51446   0.82039   0.01464   0.00000  Uiso   1.00
C551   C     0.55926   0.80179   0.48521   0.00000  Uiso   1.00
C552   C     0.56686   0.78649   0.43391   0.00000  Uiso   1.00
C553   C     0.53165   0.79131   0.41062   0.00000  Uiso   1.00
C554   C     0.50849   0.83639   0.06525   0.00000  Uiso   1.00
C555   C     0.58676   0.81065   0.06091   0.00000  Uiso   1.00
C556   C     0.45657   0.82615   0.41073   0.00000  Uiso   1.00
C557   C     0.54859   0.97732   0.22358   0.00000  Uiso   1.00
C558   C     0.47351   0.83070   0.35195   0.00000  Uiso   1.00
C559   C     0.54625   0.68560   0.23713   0.00000  Uiso   1.00
C560   C     0.50402   0.70846   0.24128   0.00000  Uiso   1.00
C561   C     0.46629   0.68906   0.23044   0.00000  Uiso   1.00
C562   C     0.46689   0.97978   0.22392   0.00000  Uiso   1.00
C563   C     0.50615   0.95677   0.22766   0.00000  Uiso   1.00
C564   C     0.65615   0.82019   0.20569   0.00000  Uiso   1.00
C565   C     0.37086   0.82039   0.20592   0.00000  Uiso   1.00
C566   C     0.34372   0.84585   0.29431   0.00000  Uiso   1.00
C567   C     0.62929   0.84595   0.29426   0.00000  Uiso   1.00
C568   C     0.50068   0.75298   0.24921   0.00000  Uiso   1.00
C569   C     0.52656   0.83350   0.14800   0.00000  Uiso   1.00
C570   C     0.59551   0.79791   0.00808   0.00000  Uiso   1.00
C571   C     0.54250   0.82886   0.08988   0.00000  Uiso   1.00
C572   C     0.41002   0.83953   0.44085   0.00000  Uiso   1.00
C573   C     0.39635   0.84288   0.49654   0.00000  Uiso   1.00
C574   C     0.42988   0.83593   0.02206   0.00000  Uiso   1.00
H575   H     0.61351   0.80465   0.07961   0.00000  Uiso   1.00
H576   H     0.43640   0.70688   0.22670   0.00000  Uiso   1.00
H577   H     0.39990   0.80985   0.17086   0.00000  Uiso   1.00
H578   H     0.35084   0.85616   0.32973   0.00000  Uiso   1.00
H579   H     0.60070   0.85650   0.32971   0.00000  Uiso   1.00
H580   H     0.60044   0.77145   0.41152   0.00000  Uiso   1.00
H581   H     0.62972   0.78350   0.48597   0.00000  Uiso   1.00
H582   H     0.47663   0.85376   0.08730   0.00000  Uiso   1.00
H583   H     0.38458   0.84842   0.42125   0.00000  Uiso   1.00
H584   H     0.41730   0.83950   0.06528   0.00000  Uiso   1.00
H585   H     0.36019   0.85261   0.01981   0.00000  Uiso   1.00
H586   H     0.53856   0.77736   0.37156   0.00000  Uiso   1.00
N587   N     0.38093   0.83334   0.25001   0.00000  Uiso   1.00
N588   N     0.61906   0.83331   0.25000   0.00000  Uiso   1.00
O589   O     0.46179   0.89442   0.25000   0.00000  Uiso   1.00
O590   O     0.53823   0.89441   0.25000   0.00000  Uiso   1.00
O591   O     0.44280   0.83333   0.32681   0.00000  Uiso   1.00
O592   O     0.51924   0.83332   0.32681   0.00000  Uiso   1.00
O593   O     0.46177   0.77226   0.24999   0.00000  Uiso   1.00
O594   O     0.53821   0.77225   0.24999   0.00000  Uiso   1.00
O595   O     0.48076   0.83335   0.17319   0.00000  Uiso   1.00
O596   O     0.55720   0.83334   0.17319   0.00000  Uiso   1.00
Zn597  Zn    0.44896   0.83334   0.25000   0.00000  Uiso   1.00
Zn598  Zn    0.55104   0.83333   0.25000   0.00000  Uiso   1.00
C599   C     0.58723   0.70221   0.25014   0.00000  Uiso   1.00
C600   C     0.63072   0.71094   0.20898   0.00000  Uiso   1.00
C601   C     0.33752   0.72195   0.22202   0.00000  Uiso   1.00
C602   C     0.33435   0.72442   0.27606   0.00000  Uiso   1.00
C603   C     0.62484   0.71468   0.31701   0.00000  Uiso   1.00
C604   C     0.58457   0.70389   0.30424   0.00000  Uiso   1.00
H605   H     0.63364   0.70859   0.16701   0.00000  Uiso   1.00
H606   H     0.37104   0.72856   0.19021   0.00000  Uiso   1.00
H607   H     0.36512   0.73335   0.28641   0.00000  Uiso   1.00
H608   H     0.62316   0.71459   0.35859   0.00000  Uiso   1.00
H609   H     0.55172   0.69577   0.33633   0.00000  Uiso   1.00
C610   C     0.42897   0.96064   0.20805   0.00000  Uiso   1.00
C611   C     0.44032   0.94376   0.15625   0.00000  Uiso   1.00
C612   C     0.40513   0.92391   0.14155   0.00000  Uiso   1.00
C613   C     0.35887   0.92018   0.17874   0.00000  Uiso   1.00
C614   C     0.34746   0.93688   0.23048   0.00000  Uiso   1.00
C615   C     0.38229   0.95748   0.24500   0.00000  Uiso   1.00
H616   H     0.47640   0.94584   0.12749   0.00000  Uiso   1.00
H617   H     0.41380   0.91111   0.10155   0.00000  Uiso   1.00
H618   H     0.66550   0.90381   0.16748   0.00000  Uiso   1.00
H619   H     0.64519   0.93344   0.25973   0.00000  Uiso   1.00
H620   H     0.37332   0.96992   0.28530   0.00000  Uiso   1.00
O621   O     0.64609   0.80656   0.16142   0.00000  Uiso   1.00
H622   H     0.34307   0.79801   0.13309   0.00000  Uiso   1.00
O623   O     0.59239   0.95732   0.20714   0.00000  Uiso   1.00
H624   H     0.59190   0.93637   0.17995   0.00000  Uiso   1.00
C625   C     0.83553   0.91280   0.24177   0.00000  Uiso   1.00
C626   C     0.81080   0.82338   0.49214   0.00000  Uiso   1.00
C627   C     0.82189   0.81327   0.43738   0.00000  Uiso   1.00
C628   C     0.84779   0.82039   0.01464   0.00000  Uiso   1.00
C629   C     0.89260   0.80179   0.48521   0.00000  Uiso   1.00
C630   C     0.90019   0.78649   0.43391   0.00000  Uiso   1.00
C631   C     0.86498   0.79131   0.41062   0.00000  Uiso   1.00
C632   C     0.84182   0.83639   0.06525   0.00000  Uiso   1.00
C633   C     0.92009   0.81065   0.06091   0.00000  Uiso   1.00
C634   C     0.78990   0.82615   0.41073   0.00000  Uiso   1.00
C635   C     0.88192   0.97732   0.22358   0.00000  Uiso   1.00
C636   C     0.80684   0.83070   0.35195   0.00000  Uiso   1.00
C637   C     0.87959   0.68560   0.23713   0.00000  Uiso   1.00
C638   C     0.83736   0.70846   0.24128   0.00000  Uiso   1.00
C639   C     0.79963   0.68906   0.23044   0.00000  Uiso   1.00
C640   C     0.80022   0.97978   0.22392   0.00000  Uiso   1.00
C641   C     0.83948   0.95677   0.22766   0.00000  Uiso   1.00
C642   C     0.98948   0.82019   0.20569   0.00000  Uiso   1.00
C643   C     0.70420   0.82039   0.20592   0.00000  Uiso   1.00
C644   C     0.67705   0.84585   0.29431   0.00000  Uiso   1.00
C645   C     0.96263   0.84595   0.29426   0.00000  Uiso   1.00
C646   C     0.83401   0.75298   0.24921   0.00000  Uiso   1.00
C647   C     0.85990   0.83350   0.14800   0.00000  Uiso   1.00
C648   C     0.92884   0.79791   0.00808   0.00000  Uiso   1.00
C649   C     0.87584   0.82886   0.08988   0.00000  Uiso   1.00
C650   C     0.74335   0.83953   0.44085   0.00000  Uiso   1.00
C651   C     0.72968   0.84288   0.49654   0.00000  Uiso   1.00
C652   C     0.76322   0.83593   0.02206   0.00000  Uiso   1.00
H653   H     0.94684   0.80465   0.07961   0.00000  Uiso   1.00
H654   H     0.76974   0.70688   0.22670   0.00000  Uiso   1.00
H655   H     0.73323   0.80985   0.17086   0.00000  Uiso   1.00
H656   H     0.68417   0.85616   0.32973   0.00000  Uiso   1.00
H657   H     0.93404   0.85650   0.32971   0.00000  Uiso   1.00
H658   H     0.93377   0.77145   0.41152   0.00000  Uiso   1.00
H659   H     0.96306   0.78350   0.48597   0.00000  Uiso   1.00
H660   H     0.80996   0.85376   0.08730   0.00000  Uiso   1.00
H661   H     0.71791   0.84842   0.42125   0.00000  Uiso   1.00
H662   H     0.75063   0.83950   0.06528   0.00000  Uiso   1.00
H663   H     0.69352   0.85261   0.01981   0.00000  Uiso   1.00
H664   H     0.87189   0.77736   0.37156   0.00000  Uiso   1.00
N665   N     0.71426   0.83334   0.25001   0.00000  Uiso   1.00
N666   N     0.95239   0.83331   0.25000   0.00000  Uiso   1.00
O667   O     0.79512   0.89442   0.25000   0.00000  Uiso   1.00
O668   O     0.87157   0.89441   0.25000   0.00000  Uiso   1.00
O669   O     0.77613   0.83333   0.32681   0.00000  Uiso   1.00
O670   O     0.85258   0.83332   0.32681   0.00000  Uiso   1.00
O671   O     0.79510   0.77226   0.24999   0.00000  Uiso   1.00
O672   O     0.87154   0.77225   0.24999   0.00000  Uiso   1.00
O673   O     0.81409   0.83335   0.17319   0.00000  Uiso   1.00
O674   O     0.89053   0.83334   0.17319   0.00000  Uiso   1.00
Zn675  Zn    0.78229   0.83334   0.25000   0.00000  Uiso   1.00
Zn676  Zn    0.88438   0.83333   0.25000   0.00000  Uiso   1.00
C677   C     0.92056   0.70221   0.25014   0.00000  Uiso   1.00
C678   C     0.96405   0.71094   0.20898   0.00000  Uiso   1.00
C679   C     0.67085   0.72195   0.22202   0.00000  Uiso   1.00
C680   C     0.66768   0.72442   0.27606   0.00000  Uiso   1.00
C681   C     0.95818   0.71468   0.31701   0.00000  Uiso   1.00
C682   C     0.91791   0.70389   0.30424   0.00000  Uiso   1.00
H683   H     0.96697   0.70859   0.16701   0.00000  Uiso   1.00
H684   H     0.70437   0.72856   0.19021   0.00000  Uiso   1.00
H685   H     0.69846   0.73335   0.28641   0.00000  Uiso   1.00
H686   H     0.95649   0.71459   0.35859   0.00000  Uiso   1.00
H687   H     0.88505   0.69577   0.33633   0.00000  Uiso   1.00
C688   C     0.76230   0.96064   0.20805   0.00000  Uiso   1.00
C689   C     0.77365   0.94376   0.15625   0.00000  Uiso   1.00
C690   C     0.73846   0.92391   0.14155   0.00000  Uiso   1.00
C691   C     0.69220   0.92018   0.17874   0.00000  Uiso   1.00
C692   C     0.68080   0.93688   0.23048   0.00000  Uiso   1.00
C693   C     0.71562   0.95748   0.24500   0.00000  Uiso   1.00
H694   H     0.80973   0.94584   0.12749   0.00000  Uiso   1.00
H695   H     0.74713   0.91111   0.10155   0.00000  Uiso   1.00
H696   H     0.99883   0.90381   0.16748   0.00000  Uiso   1.00
H697   H     0.97852   0.93344   0.25973   0.00000  Uiso   1.00
H698   H     0.70665   0.96992   0.28530   0.00000  Uiso   1.00
O699   O     0.97942   0.80656   0.16142   0.00000  Uiso   1.00
H700   H     0.67640   0.79801   0.13309   0.00000  Uiso   1.00
O701   O     0.92572   0.95732   0.20714   0.00000  Uiso   1.00
H702   H     0.92524   0.93637   0.17995   0.00000  Uiso   1.00
C703   C     0.16886   0.24613   0.74177   0.00000  Uiso   1.00
C704   C     0.14413   0.15672   0.99214   0.00000  Uiso   1.00
C705   C     0.15522   0.14660   0.93738   0.00000  Uiso   1.00
C706   C     0.18112   0.15372   0.51464   0.00000  Uiso   1.00
C707   C     0.22593   0.13512   0.98521   0.00000  Uiso   1.00
C708   C     0.23352   0.11982   0.93391   0.00000  Uiso   1.00
C709   C     0.19831   0.12464   0.91062   0.00000  Uiso   1.00
C710   C     0.17516   0.16972   0.56525   0.00000  Uiso   1.00
C711   C     0.25343   0.14398   0.56091   0.00000  Uiso   1.00
C712   C     0.12324   0.15948   0.91073   0.00000  Uiso   1.00
C713   C     0.21525   0.31066   0.72358   0.00000  Uiso   1.00
C714   C     0.14017   0.16403   0.85195   0.00000  Uiso   1.00
C715   C     0.21292   0.01893   0.73713   0.00000  Uiso   1.00
C716   C     0.17069   0.04179   0.74128   0.00000  Uiso   1.00
C717   C     0.13296   0.02240   0.73044   0.00000  Uiso   1.00
C718   C     0.13355   0.31311   0.72392   0.00000  Uiso   1.00
C719   C     0.17281   0.29010   0.72766   0.00000  Uiso   1.00
C720   C     0.32281   0.15353   0.70569   0.00000  Uiso   1.00
C721   C     0.03753   0.15372   0.70592   0.00000  Uiso   1.00
C722   C     0.01039   0.17919   0.79431   0.00000  Uiso   1.00
C723   C     0.29596   0.17928   0.79426   0.00000  Uiso   1.00
C724   C     0.16735   0.08631   0.74921   0.00000  Uiso   1.00
C725   C     0.19323   0.16683   0.64800   0.00000  Uiso   1.00
C726   C     0.26218   0.13124   0.50808   0.00000  Uiso   1.00
C727   C     0.20917   0.16219   0.58988   0.00000  Uiso   1.00
C728   C     0.07668   0.17286   0.94085   0.00000  Uiso   1.00
C729   C     0.06302   0.17621   0.99654   0.00000  Uiso   1.00
C730   C     0.09655   0.16926   0.52206   0.00000  Uiso   1.00
H731   H     0.28018   0.13798   0.57961   0.00000  Uiso   1.00
H732   H     0.10307   0.04021   0.72670   0.00000  Uiso   1.00
H733   H     0.06657   0.14318   0.67086   0.00000  Uiso   1.00
H734   H     0.01751   0.18950   0.82973   0.00000  Uiso   1.00
H735   H     0.26737   0.18984   0.82971   0.00000  Uiso   1.00
H736   H     0.26711   0.10479   0.91152   0.00000  Uiso   1.00
H737   H     0.29639   0.11684   0.98597   0.00000  Uiso   1.00
H738   H     0.14329   0.18710   0.58730   0.00000  Uiso   1.00
H739   H     0.05125   0.18176   0.92125   0.00000  Uiso   1.00
H740   H     0.08397   0.17283   0.56528   0.00000  Uiso   1.00
H741   H     0.02686   0.18594   0.51981   0.00000  Uiso   1.00
H742   H     0.20522   0.11069   0.87156   0.00000  Uiso   1.00
N743   N     0.04760   0.16668   0.75001   0.00000  Uiso   1.00
N744   N     0.28573   0.16665   0.75000   0.00000  Uiso   1.00
O745   O     0.12846   0.22775   0.75000   0.00000  Uiso   1.00
O746   O     0.20490   0.22774   0.75000   0.00000  Uiso   1.00
O747   O     0.10947   0.16666   0.82681   0.00000  Uiso   1.00
O748   O     0.18591   0.16665   0.82681   0.00000  Uiso   1.00
O749   O     0.12843   0.10559   0.74999   0.00000  Uiso   1.00
O750   O     0.20488   0.10558   0.74999   0.00000  Uiso   1.00
O751   O     0.14742   0.16668   0.67319   0.00000  Uiso   1.00
O752   O     0.22387   0.16667   0.67319   0.00000  Uiso   1.00
Zn753  Zn    0.11562   0.16667   0.75000   0.00000  Uiso   1.00
Zn754  Zn    0.21771   0.16666   0.75000   0.00000  Uiso   1.00
C755   C     0.25389   0.03554   0.75014   0.00000  Uiso   1.00
C756   C     0.29738   0.04427   0.70898   0.00000  Uiso   1.00
C757   C     0.00418   0.05528   0.72202   0.00000  Uiso   1.00
C758   C     0.00101   0.05776   0.77606   0.00000  Uiso   1.00
C759   C     0.29151   0.04801   0.81701   0.00000  Uiso   1.00
C760   C     0.25124   0.03722   0.80424   0.00000  Uiso   1.00
H761   H     0.30031   0.04193   0.66701   0.00000  Uiso   1.00
H762   H     0.03771   0.06189   0.69021   0.00000  Uiso   1.00
H763   H     0.03179   0.06669   0.78641   0.00000  Uiso   1.00
H764   H     0.28983   0.04792   0.85859   0.00000  Uiso   1.00
H765   H     0.21839   0.02910   0.83633   0.00000  Uiso   1.00
C766   C     0.09563   0.29397   0.70805   0.00000  Uiso   1.00
C767   C     0.10698   0.27710   0.65625   0.00000  Uiso   1.00
C768   C     0.07180   0.25724   0.64155   0.00000  Uiso   1.00
C769   C     0.02553   0.25352   0.67874   0.00000  Uiso   1.00
C770   C     0.01413   0.27022   0.73048   0.00000  Uiso   1.00
C771   C     0.04895   0.29081   0.74500   0.00000  Uiso   1.00
H772   H     0.14307   0.27918   0.62749   0.00000  Uiso   1.00
H773   H     0.08047   0.24444   0.60155   0.00000  Uiso   1.00
H774   H     0.33216   0.23714   0.66748   0.00000  Uiso   1.00
H775   H     0.31186   0.26677   0.75973   0.00000  Uiso   1.00
H776   H     0.03998   0.30325   0.78530   0.00000  Uiso   1.00
O777   O     0.31275   0.13989   0.66142   0.00000  Uiso   1.00
H778   H     0.00973   0.13134   0.63309   0.00000  Uiso   1.00
O779   O     0.25905   0.29066   0.70714   0.00000  Uiso   1.00
H780   H     0.25857   0.26970   0.67995   0.00000  Uiso   1.00
C781   C     0.50220   0.24613   0.74177   0.00000  Uiso   1.00
C782   C     0.47747   0.15672   0.99214   0.00000  Uiso   1.00
C783   C     0.48856   0.14660   0.93738   0.00000  Uiso   1.00
C784   C     0.51446   0.15372   0.51464   0.00000  Uiso   1.00
C785   C     0.55926   0.13512   0.98521   0.00000  Uiso   1.00
C786   C     0.56686   0.11982   0.93391   0.00000  Uiso   1.00
C787   C     0.53165   0.12464   0.91062   0.00000  Uiso   1.00
C788   C     0.50849   0.16972   0.56525   0.00000  Uiso   1.00
C789   C     0.58676   0.14398   0.56091   0.00000  Uiso   1.00
C790   C     0.45657   0.15948   0.91073   0.00000  Uiso   1.00
C791   C     0.54859   0.31066   0.72358   0.00000  Uiso   1.00
C792   C     0.47351   0.16403   0.85195   0.00000  Uiso   1.00
C793   C     0.54625   0.01893   0.73713   0.00000  Uiso   1.00
C794   C     0.50402   0.04179   0.74128   0.00000  Uiso   1.00
C795   C     0.46629   0.02240   0.73044   0.00000  Uiso   1.00
C796   C     0.46689   0.31311   0.72392   0.00000  Uiso   1.00
C797   C     0.50615   0.29010   0.72766   0.00000  Uiso   1.00
C798   C     0.65615   0.15353   0.70569   0.00000  Uiso   1.00
C799   C     0.37086   0.15372   0.70592   0.00000  Uiso   1.00
C800   C     0.34372   0.17919   0.79431   0.00000  Uiso   1.00
C801   C     0.62929   0.17928   0.79426   0.00000  Uiso   1.00
C802   C     0.50068   0.08631   0.74921   0.00000  Uiso   1.00
C803   C     0.52656   0.16683   0.64800   0.00000  Uiso   1.00
C804   C     0.59551   0.13124   0.50808   0.00000  Uiso   1.00
C805   C     0.54250   0.16219   0.58988   0.00000  Uiso   1.00
C806   C     0.41002   0.17286   0.94085   0.00000  Uiso   1.00
C807   C     0.39635   0.17621   0.99654   0.00000  Uiso   1.00
C808   C     0.42988   0.16926   0.52206   0.00000  Uiso   1.00
H809   H     0.61351   0.13798   0.57961   0.00000  Uiso   1.00
H810   H     0.43640   0.04021   0.72670   0.00000  Uiso   1.00
H811   H     0.39990   0.14318   0.67086   0.00000  Uiso   1.00
H812   H     0.35084   0.18950   0.82973   0.00000  Uiso   1.00
H813   H     0.60070   0.18984   0.82971   0.00000  Uiso   1.00
H814   H     0.60044   0.10479   0.91152   0.00000  Uiso   1.00
H815   H     0.62972   0.11684   0.98597   0.00000  Uiso   1.00
H816   H     0.47663   0.18710   0.58730   0.00000  Uiso   1.00
H817   H     0.38458   0.18176   0.92125   0.00000  Uiso   1.00
H818   H     0.41730   0.17283   0.56528   0.00000  Uiso   1.00
H819   H     0.36019   0.18594   0.51981   0.00000  Uiso   1.00
H820   H     0.53856   0.11069   0.87156   0.00000  Uiso   1.00
N821   N     0.38093   0.16668   0.75001   0.00000  Uiso   1.00
N822   N     0.61906   0.16665   0.75000   0.00000  Uiso   1.00
O823   O     0.46179   0.22775   0.75000   0.00000  Uiso   1.00
O824   O     0.53823   0.22774   0.75000   0.00000  Uiso   1.00
O825   O     0.44280   0.16666   0.82681   0.00000  Uiso   1.00
O826   O     0.51924   0.16665   0.82681   0.00000  Uiso   1.00
O827   O     0.46177   0.10559   0.74999   0.00000  Uiso   1.00
O828   O     0.53821   0.10558   0.74999   0.00000  Uiso   1.00
O829   O     0.48076   0.16668   0.67319   0.00000  Uiso   1.00
O830   O     0.55720   0.16667   0.67319   0.00000  Uiso   1.00
Zn831  Zn    0.44896   0.16667   0.75000   0.00000  Uiso   1.00
Zn832  Zn    0.55104   0.16666   0.75000   0.00000  Uiso   1.00
C833   C     0.58723   0.03554   0.75014   0.00000  Uiso   1.00
C834   C     0.63072   0.04427   0.70898   0.00000  Uiso   1.00
C835   C     0.33752   0.05528   0.72202   0.00000  Uiso   1.00
C836   C     0.33435   0.05776   0.77606   0.00000  Uiso   1.00
C837   C     0.62484   0.04801   0.81701   0.00000  Uiso   1.00
C838   C     0.58457   0.03722   0.80424   0.00000  Uiso   1.00
H839   H     0.63364   0.04193   0.66701   0.00000  Uiso   1.00
H840   H     0.37104   0.06189   0.69021   0.00000  Uiso   1.00
H841   H     0.36512   0.06669   0.78641   0.00000  Uiso   1.00
H842   H     0.62316   0.04792   0.85859   0.00000  Uiso   1.00
H843   H     0.55172   0.02910   0.83633   0.00000  Uiso   1.00
C844   C     0.42897   0.29397   0.70805   0.00000  Uiso   1.00
C845   C     0.44032   0.27710   0.65625   0.00000  Uiso   1.00
C846   C     0.40513   0.25724   0.64155   0.00000  Uiso   1.00
C847   C     0.35887   0.25352   0.67874   0.00000  Uiso   1.00
C848   C     0.34746   0.27022   0.73048   0.00000  Uiso   1.00
C849   C     0.38229   0.29081   0.74500   0.00000  Uiso   1.00
H850   H     0.47640   0.27918   0.62749   0.00000  Uiso   1.00
H851   H     0.41380   0.24444   0.60155   0.00000  Uiso   1.00
H852   H     0.66550   0.23714   0.66748   0.00000  Uiso   1.00
H853   H     0.64519   0.26677   0.75973   0.00000  Uiso   1.00
H854   H     0.37332   0.30325   0.78530   0.00000  Uiso   1.00
O855   O     0.64609   0.13989   0.66142   0.00000  Uiso   1.00
H856   H     0.34307   0.13134   0.63309   0.00000  Uiso   1.00
O857   O     0.59239   0.29066   0.70714   0.00000  Uiso   1.00
H858   H     0.59190   0.26970   0.67995   0.00000  Uiso   1.00
C859   C     0.83553   0.24613   0.74177   0.00000  Uiso   1.00
C860   C     0.81080   0.15672   0.99214   0.00000  Uiso   1.00
C861   C     0.82189   0.14660   0.93738   0.00000  Uiso   1.00
C862   C     0.84779   0.15372   0.51464   0.00000  Uiso   1.00
C863   C     0.89260   0.13512   0.98521   0.00000  Uiso   1.00
C864   C     0.90019   0.11982   0.93391   0.00000  Uiso   1.00
C865   C     0.86498   0.12464   0.91062   0.00000  Uiso   1.00
C866   C     0.84182   0.16972   0.56525   0.00000  Uiso   1.00
C867   C     0.92009   0.14398   0.56091   0.00000  Uiso   1.00
C868   C     0.78990   0.15948   0.91073   0.00000  Uiso   1.00
C869   C     0.88192   0.31066   0.72358   0.00000  Uiso   1.00
C870   C     0.80684   0.16403   0.85195   0.00000  Uiso   1.00
C871   C     0.87959   0.01893   0.73713   0.00000  Uiso   1.00
C872   C     0.83736   0.04179   0.74128   0.00000  Uiso   1.00
C873   C     0.79963   0.02240   0.73044   0.00000  Uiso   1.00
C874   C     0.80022   0.31311   0.72392   0.00000  Uiso   1.00
C875   C     0.83948   0.29010   0.72766   0.00000  Uiso   1.00
C876   C     0.98948   0.15353   0.70569   0.00000  Uiso   1.00
C877   C     0.70420   0.15372   0.70592   0.00000  Uiso   1.00
C878   C     0.67705   0.17919   0.79431   0.00000  Uiso   1.00
C879   C     0.96263   0.17928   0.79426   0.00000  Uiso   1.00
C880   C     0.83401   0.08631   0.74921   0.00000  Uiso   1.00
C881   C     0.85990   0.16683   0.64800   0.00000  Uiso   1.00
C882   C     0.92884   0.13124   0.50808   0.00000  Uiso   1.00
C883   C     0.87584   0.16219   0.58988   0.00000  Uiso   1.00
C884   C     0.74335   0.17286   0.94085   0.00000  Uiso   1.00
C885   C     0.72968   0.17621   0.99654   0.00000  Uiso   1.00
C886   C     0.76322   0.16926   0.52206   0.00000  Uiso   1.00
H887   H     0.94684   0.13798   0.57961   0.00000  Uiso   1.00
H888   H     0.76974   0.04021   0.72670   0.00000  Uiso   1.00
H889   H     0.73323   0.14318   0.67086   0.00000  Uiso   1.00
H890   H     0.68417   0.18950   0.82973   0.00000  Uiso   1.00
H891   H     0.93404   0.18984   0.82971   0.00000  Uiso   1.00
H892   H     0.93377   0.10479   0.91152   0.00000  Uiso   1.00
H893   H     0.96306   0.11684   0.98597   0.00000  Uiso   1.00
H894   H     0.80996   0.18710   0.58730   0.00000  Uiso   1.00
H895   H     0.71791   0.18176   0.92125   0.00000  Uiso   1.00
H896   H     0.75063   0.17283   0.56528   0.00000  Uiso   1.00
H897   H     0.69352   0.18594   0.51981   0.00000  Uiso   1.00
H898   H     0.87189   0.11069   0.87156   0.00000  Uiso   1.00
N899   N     0.71426   0.16668   0.75001   0.00000  Uiso   1.00
N900   N     0.95239   0.16665   0.75000   0.00000  Uiso   1.00
O901   O     0.79512   0.22775   0.75000   0.00000  Uiso   1.00
O902   O     0.87157   0.22774   0.75000   0.00000  Uiso   1.00
O903   O     0.77613   0.16666   0.82681   0.00000  Uiso   1.00
O904   O     0.85258   0.16665   0.82681   0.00000  Uiso   1.00
O905   O     0.79510   0.10559   0.74999   0.00000  Uiso   1.00
O906   O     0.87154   0.10558   0.74999   0.00000  Uiso   1.00
O907   O     0.81409   0.16668   0.67319   0.00000  Uiso   1.00
O908   O     0.89053   0.16667   0.67319   0.00000  Uiso   1.00
Zn909  Zn    0.78229   0.16667   0.75000   0.00000  Uiso   1.00
Zn910  Zn    0.88438   0.16666   0.75000   0.00000  Uiso   1.00
C911   C     0.92056   0.03554   0.75014   0.00000  Uiso   1.00
C912   C     0.96405   0.04427   0.70898   0.00000  Uiso   1.00
C913   C     0.67085   0.05528   0.72202   0.00000  Uiso   1.00
C914   C     0.66768   0.05776   0.77606   0.00000  Uiso   1.00
C915   C     0.95818   0.04801   0.81701   0.00000  Uiso   1.00
C916   C     0.91791   0.03722   0.80424   0.00000  Uiso   1.00
H917   H     0.96697   0.04193   0.66701   0.00000  Uiso   1.00
H918   H     0.70437   0.06189   0.69021   0.00000  Uiso   1.00
H919   H     0.69846   0.06669   0.78641   0.00000  Uiso   1.00
H920   H     0.95649   0.04792   0.85859   0.00000  Uiso   1.00
H921   H     0.88505   0.02910   0.83633   0.00000  Uiso   1.00
C922   C     0.76230   0.29397   0.70805   0.00000  Uiso   1.00
C923   C     0.77365   0.27710   0.65625   0.00000  Uiso   1.00
C924   C     0.73846   0.25724   0.64155   0.00000  Uiso   1.00
C925   C     0.69220   0.25352   0.67874   0.00000  Uiso   1.00
C926   C     0.68080   0.27022   0.73048   0.00000  Uiso   1.00
C927   C     0.71562   0.29081   0.74500   0.00000  Uiso   1.00
H928   H     0.80973   0.27918   0.62749   0.00000  Uiso   1.00
H929   H     0.74713   0.24444   0.60155   0.00000  Uiso   1.00
H930   H     0.99883   0.23714   0.66748   0.00000  Uiso   1.00
H931   H     0.97852   0.26677   0.75973   0.00000  Uiso   1.00
H932   H     0.70665   0.30325   0.78530   0.00000  Uiso   1.00
O933   O     0.97942   0.13989   0.66142   0.00000  Uiso   1.00
H934   H     0.67640   0.13134   0.63309   0.00000  Uiso   1.00
O935   O     0.92572   0.29066   0.70714   0.00000  Uiso   1.00
H936   H     0.92524   0.26970   0.67995   0.00000  Uiso   1.00
C937   C     0.16886   0.57946   0.74177   0.00000  Uiso   1.00
C938   C     0.14413   0.49005   0.99214   0.00000  Uiso   1.00
C939   C     0.15522   0.47993   0.93738   0.00000  Uiso   1.00
C940   C     0.18112   0.48706   0.51464   0.00000  Uiso   1.00
C941   C     0.22593   0.46845   0.98521   0.00000  Uiso   1.00
C942   C     0.23352   0.45315   0.93391   0.00000  Uiso   1.00
C943   C     0.19831   0.45798   0.91062   0.00000  Uiso   1.00
C944   C     0.17516   0.50305   0.56525   0.00000  Uiso   1.00
C945   C     0.25343   0.47732   0.56091   0.00000  Uiso   1.00
C946   C     0.12324   0.49282   0.91073   0.00000  Uiso   1.00
C947   C     0.21525   0.64399   0.72358   0.00000  Uiso   1.00
C948   C     0.14017   0.49737   0.85195   0.00000  Uiso   1.00
C949   C     0.21292   0.35227   0.73713   0.00000  Uiso   1.00
C950   C     0.17069   0.37512   0.74128   0.00000  Uiso   1.00
C951   C     0.13296   0.35573   0.73044   0.00000  Uiso   1.00
C952   C     0.13355   0.64645   0.72392   0.00000  Uiso   1.00
C953   C     0.17281   0.62344   0.72766   0.00000  Uiso   1.00
C954   C     0.32281   0.48686   0.70569   0.00000  Uiso   1.00
C955   C     0.03753   0.48705   0.70592   0.00000  Uiso   1.00
C956   C     0.01039   0.51252   0.79431   0.00000  Uiso   1.00
C957   C     0.29596   0.51262   0.79426   0.00000  Uiso   1.00
C958   C     0.16735   0.41964   0.74921   0.00000  Uiso   1.00
C959   C     0.19323   0.50017   0.64800   0.00000  Uiso   1.00
C960   C     0.26218   0.46457   0.50808   0.00000  Uiso   1.00
C961   C     0.20917   0.49552   0.58988   0.00000  Uiso   1.00
C962   C     0.07668   0.50620   0.94085   0.00000  Uiso   1.00
C963   C     0.06302   0.50954   0.99654   0.00000  Uiso   1.00
C964   C     0.09655   0.50259   0.52206   0.00000  Uiso   1.00
H965   H     0.28018   0.47132   0.57961   0.00000  Uiso   1.00
H966   H     0.10307   0.37354   0.72670   0.00000  Uiso   1.00
H967   H     0.06657   0.47652   0.67086   0.00000  Uiso   1.00
H968   H     0.01751   0.52283   0.82973   0.00000  Uiso   1.00
H969   H     0.26737   0.52317   0.82971   0.00000  Uiso   1.00
H970   H     0.26711   0.43812   0.91152   0.00000  Uiso   1.00
H971   H     0.29639   0.45017   0.98597   0.00000  Uiso   1.00
H972   H     0.14329   0.52043   0.58730   0.00000  Uiso   1.00
H973   H     0.05125   0.51509   0.92125   0.00000  Uiso   1.00
H974   H     0.08397   0.50616   0.56528   0.00000  Uiso   1.00
H975   H     0.02686   0.51928   0.51981   0.00000  Uiso   1.00
H976   H     0.20522   0.44402   0.87156   0.00000  Uiso   1.00
N977   N     0.04760   0.50001   0.75001   0.00000  Uiso   1.00
N978   N     0.28573   0.49998   0.75000   0.00000  Uiso   1.00
O979   O     0.12846   0.56108   0.75000   0.00000  Uiso   1.00
O980   O     0.20490   0.56107   0.75000   0.00000  Uiso   1.00
O981   O     0.10947   0.50000   0.82681   0.00000  Uiso   1.00
O982   O     0.18591   0.49999   0.82681   0.00000  Uiso   1.00
O983   O     0.12843   0.43893   0.74999   0.00000  Uiso   1.00
O984   O     0.20488   0.43892   0.74999   0.00000  Uiso   1.00
O985   O     0.14742   0.50001   0.67319   0.00000  Uiso   1.00
O986   O     0.22387   0.50000   0.67319   0.00000  Uiso   1.00
Zn987  Zn    0.11562   0.50001   0.75000   0.00000  Uiso   1.00
Zn988  Zn    0.21771   0.49999   0.75000   0.00000  Uiso   1.00
C989   C     0.25389   0.36888   0.75014   0.00000  Uiso   1.00
C990   C     0.29738   0.37761   0.70898   0.00000  Uiso   1.00
C991   C     0.00418   0.38861   0.72202   0.00000  Uiso   1.00
C992   C     0.00101   0.39109   0.77606   0.00000  Uiso   1.00
C993   C     0.29151   0.38135   0.81701   0.00000  Uiso   1.00
C994   C     0.25124   0.37056   0.80424   0.00000  Uiso   1.00
H995   H     0.30031   0.37526   0.66701   0.00000  Uiso   1.00
H996   H     0.03771   0.39522   0.69021   0.00000  Uiso   1.00
H997   H     0.03179   0.40002   0.78641   0.00000  Uiso   1.00
H998   H     0.28983   0.38126   0.85859   0.00000  Uiso   1.00
H999   H     0.21839   0.36243   0.83633   0.00000  Uiso   1.00
C1000  C     0.09563   0.62731   0.70805   0.00000  Uiso   1.00
C1001  C     0.10698   0.61043   0.65625   0.00000  Uiso   1.00
C1002  C     0.07180   0.59057   0.64155   0.00000  Uiso   1.00
C1003  C     0.02553   0.58685   0.67874   0.00000  Uiso   1.00
C1004  C     0.01413   0.60355   0.73048   0.00000  Uiso   1.00
C1005  C     0.04895   0.62415   0.74500   0.00000  Uiso   1.00
H1006  H     0.14307   0.61251   0.62749   0.00000  Uiso   1.00
H1007  H     0.08047   0.57777   0.60155   0.00000  Uiso   1.00
H1008  H     0.33216   0.57047   0.66748   0.00000  Uiso   1.00
H1009  H     0.31186   0.60011   0.75973   0.00000  Uiso   1.00
H1010  H     0.03998   0.63658   0.78530   0.00000  Uiso   1.00
O1011  O     0.31275   0.47322   0.66142   0.00000  Uiso   1.00
H1012  H     0.00973   0.46468   0.63309   0.00000  Uiso   1.00
O1013  O     0.25905   0.62399   0.70714   0.00000  Uiso   1.00
H1014  H     0.25857   0.60303   0.67995   0.00000  Uiso   1.00
C1015  C     0.50220   0.57946   0.74177   0.00000  Uiso   1.00
C1016  C     0.47747   0.49005   0.99214   0.00000  Uiso   1.00
C1017  C     0.48856   0.47993   0.93738   0.00000  Uiso   1.00
C1018  C     0.51446   0.48706   0.51464   0.00000  Uiso   1.00
C1019  C     0.55926   0.46845   0.98521   0.00000  Uiso   1.00
C1020  C     0.56686   0.45315   0.93391   0.00000  Uiso   1.00
C1021  C     0.53165   0.45798   0.91062   0.00000  Uiso   1.00
C1022  C     0.50849   0.50305   0.56525   0.00000  Uiso   1.00
C1023  C     0.58676   0.47732   0.56091   0.00000  Uiso   1.00
C1024  C     0.45657   0.49282   0.91073   0.00000  Uiso   1.00
C1025  C     0.54859   0.64399   0.72358   0.00000  Uiso   1.00
C1026  C     0.47351   0.49737   0.85195   0.00000  Uiso   1.00
C1027  C     0.54625   0.35227   0.73713   0.00000  Uiso   1.00
C1028  C     0.50402   0.37512   0.74128   0.00000  Uiso   1.00
C1029  C     0.46629   0.35573   0.73044   0.00000  Uiso   1.00
C1030  C     0.46689   0.64645   0.72392   0.00000  Uiso   1.00
C1031  C     0.50615   0.62344   0.72766   0.00000  Uiso   1.00
C1032  C     0.65615   0.48686   0.70569   0.00000  Uiso   1.00
C1033  C     0.37086   0.48705   0.70592   0.00000  Uiso   1.00
C1034  C     0.34372   0.51252   0.79431   0.00000  Uiso   1.00
C1035  C     0.62929   0.51262   0.79426   0.00000  Uiso   1.00
C1036  C     0.50068   0.41964   0.74921   0.00000  Uiso   1.00
C1037  C     0.52656   0.50017   0.64800   0.00000  Uiso   1.00
C1038  C     0.59551   0.46457   0.50808   0.00000  Uiso   1.00
C1039  C     0.54250   0.49552   0.58988   0.00000  Uiso   1.00
C1040  C     0.41002   0.50620   0.94085   0.00000  Uiso   1.00
C1041  C     0.39635   0.50954   0.99654   0.00000  Uiso   1.00
C1042  C     0.42988   0.50259   0.52206   0.00000  Uiso   1.00
H1043  H     0.61351   0.47132   0.57961   0.00000  Uiso   1.00
H1044  H     0.43640   0.37354   0.72670   0.00000  Uiso   1.00
H1045  H     0.39990   0.47652   0.67086   0.00000  Uiso   1.00
H1046  H     0.35084   0.52283   0.82973   0.00000  Uiso   1.00
H1047  H     0.60070   0.52317   0.82971   0.00000  Uiso   1.00
H1048  H     0.60044   0.43812   0.91152   0.00000  Uiso   1.00
H1049  H     0.62972   0.45017   0.98597   0.00000  Uiso   1.00
H1050  H     0.47663   0.52043   0.58730   0.00000  Uiso   1.00
H1051  H     0.38458   0.51509   0.92125   0.00000  Uiso   1.00
H1052  H     0.41730   0.50616   0.56528   0.00000  Uiso   1.00
H1053  H     0.36019   0.51928   0.51981   0.00000  Uiso   1.00
H1054  H     0.53856   0.44402   0.87156   0.00000  Uiso   1.00
N1055  N     0.38093   0.50001   0.75001   0.00000  Uiso   1.00
N1056  N     0.61906   0.49998   0.75000   0.00000  Uiso   1.00
O1057  O     0.46179   0.56108   0.75000   0.00000  Uiso   1.00
O1058  O     0.53823   0.56107   0.75000   0.00000  Uiso   1.00
O1059  O     0.44280   0.50000   0.82681   0.00000  Uiso   1.00
O1060  O     0.51924   0.49999   0.82681   0.00000  Uiso   1.00
O1061  O     0.46177   0.43893   0.74999   0.00000  Uiso   1.00
O1062  O     0.53821   0.43892   0.74999   0.00000  Uiso   1.00
O1063  O     0.48076   0.50001   0.67319   0.00000  Uiso   1.00
O1064  O     0.55720   0.50000   0.67319   0.00000  Uiso   1.00
Zn1065 Zn    0.44896   0.50001   0.75000   0.00000  Uiso   1.00
Zn1066 Zn    0.55104   0.49999   0.75000   0.00000  Uiso   1.00
C1067  C     0.58723   0.36888   0.75014   0.00000  Uiso   1.00
C1068  C     0.63072   0.37761   0.70898   0.00000  Uiso   1.00
C1069  C     0.33752   0.38861   0.72202   0.00000  Uiso   1.00
C1070  C     0.33435   0.39109   0.77606   0.00000  Uiso   1.00
C1071  C     0.62484   0.38135   0.81701   0.00000  Uiso   1.00
C1072  C     0.58457   0.37056   0.80424   0.00000  Uiso   1.00
H1073  H     0.63364   0.37526   0.66701   0.00000  Uiso   1.00
H1074  H     0.37104   0.39522   0.69021   0.00000  Uiso   1.00
H1075  H     0.36512   0.40002   0.78641   0.00000  Uiso   1.00
H1076  H     0.62316   0.38126   0.85859   0.00000  Uiso   1.00
H1077  H     0.55172   0.36243   0.83633   0.00000  Uiso   1.00
C1078  C     0.42897   0.62731   0.70805   0.00000  Uiso   1.00
C1079  C     0.44032   0.61043   0.65625   0.00000  Uiso   1.00
C1080  C     0.40513   0.59057   0.64155   0.00000  Uiso   1.00
C1081  C     0.35887   0.58685   0.67874   0.00000  Uiso   1.00
C1082  C     0.34746   0.60355   0.73048   0.00000  Uiso   1.00
C1083  C     0.38229   0.62415   0.74500   0.00000  Uiso   1.00
H1084  H     0.47640   0.61251   0.62749   0.00000  Uiso   1.00
H1085  H     0.41380   0.57777   0.60155   0.00000  Uiso   1.00
H1086  H     0.66550   0.57047   0.66748   0.00000  Uiso   1.00
H1087  H     0.64519   0.60011   0.75973   0.00000  Uiso   1.00
H1088  H     0.37332   0.63658   0.78530   0.00000  Uiso   1.00
O1089  O     0.64609   0.47322   0.66142   0.00000  Uiso   1.00
H1090  H     0.34307   0.46468   0.63309   0.00000  Uiso   1.00
O1091  O     0.59239   0.62399   0.70714   0.00000  Uiso   1.00
H1092  H     0.59190   0.60303   0.67995   0.00000  Uiso   1.00
C1093  C     0.83553   0.57946   0.74177   0.00000  Uiso   1.00
C1094  C     0.81080   0.49005   0.99214   0.00000  Uiso   1.00
C1095  C     0.82189   0.47993   0.93738   0.00000  Uiso   1.00
C1096  C     0.84779   0.48706   0.51464   0.00000  Uiso   1.00
C1097  C     0.89260   0.46845   0.98521   0.00000  Uiso   1.00
C1098  C     0.90019   0.45315   0.93391   0.00000  Uiso   1.00
C1099  C     0.86498   0.45798   0.91062   0.00000  Uiso   1.00
C1100  C     0.84182   0.50305   0.56525   0.00000  Uiso   1.00
C1101  C     0.92009   0.47732   0.56091   0.00000  Uiso   1.00
C1102  C     0.78990   0.49282   0.91073   0.00000  Uiso   1.00
C1103  C     0.88192   0.64399   0.72358   0.00000  Uiso   1.00
C1104  C     0.80684   0.49737   0.85195   0.00000  Uiso   1.00
C1105  C     0.87959   0.35227   0.73713   0.00000  Uiso   1.00
C1106  C     0.83736   0.37512   0.74128   0.00000  Uiso   1.00
C1107  C     0.79963   0.35573   0.73044   0.00000  Uiso   1.00
C1108  C     0.80022   0.64645   0.72392   0.00000  Uiso   1.00
C1109  C     0.83948   0.62344   0.72766   0.00000  Uiso   1.00
C1110  C     0.98948   0.48686   0.70569   0.00000  Uiso   1.00
C1111  C     0.70420   0.48705   0.70592   0.00000  Uiso   1.00
C1112  C     0.67705   0.51252   0.79431   0.00000  Uiso   1.00
C1113  C     0.96263   0.51262   0.79426   0.00000  Uiso   1.00
C1114  C     0.83401   0.41964   0.74921   0.00000  Uiso   1.00
C1115  C     0.85990   0.50017   0.64800   0.00000  Uiso   1.00
C1116  C     0.92884   0.46457   0.50808   0.00000  Uiso   1.00
C1117  C     0.87584   0.49552   0.58988   0.00000  Uiso   1.00
C1118  C     0.74335   0.50620   0.94085   0.00000  Uiso   1.00
C1119  C     0.72968   0.50954   0.99654   0.00000  Uiso   1.00
C1120  C     0.76322   0.50259   0.52206   0.00000  Uiso   1.00
H1121  H     0.94684   0.47132   0.57961   0.00000  Uiso   1.00
H1122  H     0.76974   0.37354   0.72670   0.00000  Uiso   1.00
H1123  H     0.73323   0.47652   0.67086   0.00000  Uiso   1.00
H1124  H     0.68417   0.52283   0.82973   0.00000  Uiso   1.00
H1125  H     0.93404   0.52317   0.82971   0.00000  Uiso   1.00
H1126  H     0.93377   0.43812   0.91152   0.00000  Uiso   1.00
H1127  H     0.96306   0.45017   0.98597   0.00000  Uiso   1.00
H1128  H     0.80996   0.52043   0.58730   0.00000  Uiso   1.00
H1129  H     0.71791   0.51509   0.92125   0.00000  Uiso   1.00
H1130  H     0.75063   0.50616   0.56528   0.00000  Uiso   1.00
H1131  H     0.69352   0.51928   0.51981   0.00000  Uiso   1.00
H1132  H     0.87189   0.44402   0.87156   0.00000  Uiso   1.00
N1133  N     0.71426   0.50001   0.75001   0.00000  Uiso   1.00
N1134  N     0.95239   0.49998   0.75000   0.00000  Uiso   1.00
O1135  O     0.79512   0.56108   0.75000   0.00000  Uiso   1.00
O1136  O     0.87157   0.56107   0.75000   0.00000  Uiso   1.00
O1137  O     0.77613   0.50000   0.82681   0.00000  Uiso   1.00
O1138  O     0.85258   0.49999   0.82681   0.00000  Uiso   1.00
O1139  O     0.79510   0.43893   0.74999   0.00000  Uiso   1.00
O1140  O     0.87154   0.43892   0.74999   0.00000  Uiso   1.00
O1141  O     0.81409   0.50001   0.67319   0.00000  Uiso   1.00
O1142  O     0.89053   0.50000   0.67319   0.00000  Uiso   1.00
Zn1143 Zn    0.78229   0.50001   0.75000   0.00000  Uiso   1.00
Zn1144 Zn    0.88438   0.49999   0.75000   0.00000  Uiso   1.00
C1145  C     0.92056   0.36888   0.75014   0.00000  Uiso   1.00
C1146  C     0.96405   0.37761   0.70898   0.00000  Uiso   1.00
C1147  C     0.67085   0.38861   0.72202   0.00000  Uiso   1.00
C1148  C     0.66768   0.39109   0.77606   0.00000  Uiso   1.00
C1149  C     0.95818   0.38135   0.81701   0.00000  Uiso   1.00
C1150  C     0.91791   0.37056   0.80424   0.00000  Uiso   1.00
H1151  H     0.96697   0.37526   0.66701   0.00000  Uiso   1.00
H1152  H     0.70437   0.39522   0.69021   0.00000  Uiso   1.00
H1153  H     0.69846   0.40002   0.78641   0.00000  Uiso   1.00
H1154  H     0.95649   0.38126   0.85859   0.00000  Uiso   1.00
H1155  H     0.88505   0.36243   0.83633   0.00000  Uiso   1.00
C1156  C     0.76230   0.62731   0.70805   0.00000  Uiso   1.00
C1157  C     0.77365   0.61043   0.65625   0.00000  Uiso   1.00
C1158  C     0.73846   0.59057   0.64155   0.00000  Uiso   1.00
C1159  C     0.69220   0.58685   0.67874   0.00000  Uiso   1.00
C1160  C     0.68080   0.60355   0.73048   0.00000  Uiso   1.00
C1161  C     0.71562   0.62415   0.74500   0.00000  Uiso   1.00
H1162  H     0.80973   0.61251   0.62749   0.00000  Uiso   1.00
H1163  H     0.74713   0.57777   0.60155   0.00000  Uiso   1.00
H1164  H     0.99883   0.57047   0.66748   0.00000  Uiso   1.00
H1165  H     0.97852   0.60011   0.75973   0.00000  Uiso   1.00
H1166  H     0.70665   0.63658   0.78530   0.00000  Uiso   1.00
O1167  O     0.97942   0.47322   0.66142   0.00000  Uiso   1.00
H1168  H     0.67640   0.46468   0.63309   0.00000  Uiso   1.00
O1169  O     0.92572   0.62399   0.70714   0.00000  Uiso   1.00
H1170  H     0.92524   0.60303   0.67995   0.00000  Uiso   1.00
C1171  C     0.16886   0.91280   0.74177   0.00000  Uiso   1.00
C1172  C     0.14413   0.82338   0.99214   0.00000  Uiso   1.00
C1173  C     0.15522   0.81327   0.93738   0.00000  Uiso   1.00
C1174  C     0.18112   0.82039   0.51464   0.00000  Uiso   1.00
C1175  C     0.22593   0.80179   0.98521   0.00000  Uiso   1.00
C1176  C     0.23352   0.78649   0.93391   0.00000  Uiso   1.00
C1177  C     0.19831   0.79131   0.91062   0.00000  Uiso   1.00
C1178  C     0.17516   0.83639   0.56525   0.00000  Uiso   1.00
C1179  C     0.25343   0.81065   0.56091   0.00000  Uiso   1.00
C1180  C     0.12324   0.82615   0.91073   0.00000  Uiso   1.00
C1181  C     0.21525   0.97732   0.72358   0.00000  Uiso   1.00
C1182  C     0.14017   0.83070   0.85195   0.00000  Uiso   1.00
C1183  C     0.21292   0.68560   0.73713   0.00000  Uiso   1.00
C1184  C     0.17069   0.70846   0.74128   0.00000  Uiso   1.00
C1185  C     0.13296   0.68906   0.73044   0.00000  Uiso   1.00
C1186  C     0.13355   0.97978   0.72392   0.00000  Uiso   1.00
C1187  C     0.17281   0.95677   0.72766   0.00000  Uiso   1.00
C1188  C     0.32281   0.82019   0.70569   0.00000  Uiso   1.00
C1189  C     0.03753   0.82039   0.70592   0.00000  Uiso   1.00
C1190  C     0.01039   0.84585   0.79431   0.00000  Uiso   1.00
C1191  C     0.29596   0.84595   0.79426   0.00000  Uiso   1.00
C1192  C     0.16735   0.75298   0.74921   0.00000  Uiso   1.00
C1193  C     0.19323   0.83350   0.64800   0.00000  Uiso   1.00
C1194  C     0.26218   0.79791   0.50808   0.00000  Uiso   1.00
C1195  C     0.20917   0.82886   0.58988   0.00000  Uiso   1.00
C1196  C     0.07668   0.83953   0.94085   0.00000  Uiso   1.00
C1197  C     0.06302   0.84288   0.99654   0.00000  Uiso   1.00
C1198  C     0.09655   0.83593   0.52206   0.00000  Uiso   1.00
H1199  H     0.28018   0.80465   0.57961   0.00000  Uiso   1.00
H1200  H     0.10307   0.70688   0.72670   0.00000  Uiso   1.00
H1201  H     0.06657   0.80985   0.67086   0.00000  Uiso   1.00
H1202  H     0.01751   0.85616   0.82973   0.00000  Uiso   1.00
H1203  H     0.26737   0.85650   0.82971   0.00000  Uiso   1.00
H1204  H     0.26711   0.77145   0.91152   0.00000  Uiso   1.00
H1205  H     0.29639   0.78350   0.98597   0.00000  Uiso   1.00
H1206  H     0.14329   0.85376   0.58730   0.00000  Uiso   1.00
H1207  H     0.05125   0.84842   0.92125   0.00000  Uiso   1.00
H1208  H     0.08397   0.83950   0.56528   0.00000  Uiso   1.00
H1209  H     0.02686   0.85261   0.51981   0.00000  Uiso   1.00
H1210  H     0.20522   0.77736   0.87156   0.00000  Uiso   1.00
N1211  N     0.04760   0.83334   0.75001   0.00000  Uiso   1.00
N1212  N     0.28573   0.83331   0.75000   0.00000  Uiso   1.00
O1213  O     0.12846   0.89442   0.75000   0.00000  Uiso   1.00
O1214  O     0.20490   0.89441   0.75000   0.00000  Uiso   1.00
O1215  O     0.10947   0.83333   0.82681   0.00000  Uiso   1.00
O1216  O     0.18591   0.83332   0.82681   0.00000  Uiso   1.00
O1217  O     0.12843   0.77226   0.74999   0.00000  Uiso   1.00
O1218  O     0.20488   0.77225   0.74999   0.00000  Uiso   1.00
O1219  O     0.14742   0.83335   0.67319   0.00000  Uiso   1.00
O1220  O     0.22387   0.83334   0.67319   0.00000  Uiso   1.00
Zn1221 Zn    0.11562   0.83334   0.75000   0.00000  Uiso   1.00
Zn1222 Zn    0.21771   0.83333   0.75000   0.00000  Uiso   1.00
C1223  C     0.25389   0.70221   0.75014   0.00000  Uiso   1.00
C1224  C     0.29738   0.71094   0.70898   0.00000  Uiso   1.00
C1225  C     0.00418   0.72195   0.72202   0.00000  Uiso   1.00
C1226  C     0.00101   0.72442   0.77606   0.00000  Uiso   1.00
C1227  C     0.29151   0.71468   0.81701   0.00000  Uiso   1.00
C1228  C     0.25124   0.70389   0.80424   0.00000  Uiso   1.00
H1229  H     0.30031   0.70859   0.66701   0.00000  Uiso   1.00
H1230  H     0.03771   0.72856   0.69021   0.00000  Uiso   1.00
H1231  H     0.03179   0.73335   0.78641   0.00000  Uiso   1.00
H1232  H     0.28983   0.71459   0.85859   0.00000  Uiso   1.00
H1233  H     0.21839   0.69577   0.83633   0.00000  Uiso   1.00
C1234  C     0.09563   0.96064   0.70805   0.00000  Uiso   1.00
C1235  C     0.10698   0.94376   0.65625   0.00000  Uiso   1.00
C1236  C     0.07180   0.92391   0.64155   0.00000  Uiso   1.00
C1237  C     0.02553   0.92018   0.67874   0.00000  Uiso   1.00
C1238  C     0.01413   0.93688   0.73048   0.00000  Uiso   1.00
C1239  C     0.04895   0.95748   0.74500   0.00000  Uiso   1.00
H1240  H     0.14307   0.94584   0.62749   0.00000  Uiso   1.00
H1241  H     0.08047   0.91111   0.60155   0.00000  Uiso   1.00
H1242  H     0.33216   0.90381   0.66748   0.00000  Uiso   1.00
H1243  H     0.31186   0.93344   0.75973   0.00000  Uiso   1.00
H1244  H     0.03998   0.96992   0.78530   0.00000  Uiso   1.00
O1245  O     0.31275   0.80656   0.66142   0.00000  Uiso   1.00
H1246  H     0.00973   0.79801   0.63309   0.00000  Uiso   1.00
O1247  O     0.25905   0.95732   0.70714   0.00000  Uiso   1.00
H1248  H     0.25857   0.93637   0.67995   0.00000  Uiso   1.00
C1249  C     0.50220   0.91280   0.74177   0.00000  Uiso   1.00
C1250  C     0.47747   0.82338   0.99214   0.00000  Uiso   1.00
C1251  C     0.48856   0.81327   0.93738   0.00000  Uiso   1.00
C1252  C     0.51446   0.82039   0.51464   0.00000  Uiso   1.00
C1253  C     0.55926   0.80179   0.98521   0.00000  Uiso   1.00
C1254  C     0.56686   0.78649   0.93391   0.00000  Uiso   1.00
C1255  C     0.53165   0.79131   0.91062   0.00000  Uiso   1.00
C1256  C     0.50849   0.83639   0.56525   0.00000  Uiso   1.00
C1257  C     0.58676   0.81065   0.56091   0.00000  Uiso   1.00
C1258  C     0.45657   0.82615   0.91073   0.00000  Uiso   1.00
C1259  C     0.54859   0.97732   0.72358   0.00000  Uiso   1.00
C1260  C     0.47351   0.83070   0.85195   0.00000  Uiso   1.00
C1261  C     0.54625   0.68560   0.73713   0.00000  Uiso   1.00
C1262  C     0.50402   0.70846   0.74128   0.00000  Uiso   1.00
C1263  C     0.46629   0.68906   0.73044   0.00000  Uiso   1.00
C1264  C     0.46689   0.97978   0.72392   0.00000  Uiso   1.00
C1265  C     0.50615   0.95677   0.72766   0.00000  Uiso   1.00
C1266  C     0.65615   0.82019   0.70569   0.00000  Uiso   1.00
C1267  C     0.37086   0.82039   0.70592   0.00000  Uiso   1.00
C1268  C     0.34372   0.84585   0.79431   0.00000  Uiso   1.00
C1269  C     0.62929   0.84595   0.79426   0.00000  Uiso   1.00
C1270  C     0.50068   0.75298   0.74921   0.00000  Uiso   1.00
C1271  C     0.52656   0.83350   0.64800   0.00000  Uiso   1.00
C1272  C     0.59551   0.79791   0.50808   0.00000  Uiso   1.00
C1273  C     0.54250   0.82886   0.58988   0.00000  Uiso   1.00
C1274  C     0.41002   0.83953   0.94085   0.00000  Uiso   1.00
C1275  C     0.39635   0.84288   0.99654   0.00000  Uiso   1.00
C1276  C     0.42988   0.83593   0.52206   0.00000  Uiso   1.00
H1277  H     0.61351   0.80465   0.57961   0.00000  Uiso   1.00
H1278  H     0.43640   0.70688   0.72670   0.00000  Uiso   1.00
H1279  H     0.39990   0.80985   0.67086   0.00000  Uiso   1.00
H1280  H     0.35084   0.85616   0.82973   0.00000  Uiso   1.00
H1281  H     0.60070   0.85650   0.82971   0.00000  Uiso   1.00
H1282  H     0.60044   0.77145   0.91152   0.00000  Uiso   1.00
H1283  H     0.62972   0.78350   0.98597   0.00000  Uiso   1.00
H1284  H     0.47663   0.85376   0.58730   0.00000  Uiso   1.00
H1285  H     0.38458   0.84842   0.92125   0.00000  Uiso   1.00
H1286  H     0.41730   0.83950   0.56528   0.00000  Uiso   1.00
H1287  H     0.36019   0.85261   0.51981   0.00000  Uiso   1.00
H1288  H     0.53856   0.77736   0.87156   0.00000  Uiso   1.00
N1289  N     0.38093   0.83334   0.75001   0.00000  Uiso   1.00
N1290  N     0.61906   0.83331   0.75000   0.00000  Uiso   1.00
O1291  O     0.46179   0.89442   0.75000   0.00000  Uiso   1.00
O1292  O     0.53823   0.89441   0.75000   0.00000  Uiso   1.00
O1293  O     0.44280   0.83333   0.82681   0.00000  Uiso   1.00
O1294  O     0.51924   0.83332   0.82681   0.00000  Uiso   1.00
O1295  O     0.46177   0.77226   0.74999   0.00000  Uiso   1.00
O1296  O     0.53821   0.77225   0.74999   0.00000  Uiso   1.00
O1297  O     0.48076   0.83335   0.67319   0.00000  Uiso   1.00
O1298  O     0.55720   0.83334   0.67319   0.00000  Uiso   1.00
Zn1299 Zn    0.44896   0.83334   0.75000   0.00000  Uiso   1.00
Zn1300 Zn    0.55104   0.83333   0.75000   0.00000  Uiso   1.00
C1301  C     0.58723   0.70221   0.75014   0.00000  Uiso   1.00
C1302  C     0.63072   0.71094   0.70898   0.00000  Uiso   1.00
C1303  C     0.33752   0.72195   0.72202   0.00000  Uiso   1.00
C1304  C     0.33435   0.72442   0.77606   0.00000  Uiso   1.00
C1305  C     0.62484   0.71468   0.81701   0.00000  Uiso   1.00
C1306  C     0.58457   0.70389   0.80424   0.00000  Uiso   1.00
H1307  H     0.63364   0.70859   0.66701   0.00000  Uiso   1.00
H1308  H     0.37104   0.72856   0.69021   0.00000  Uiso   1.00
H1309  H     0.36512   0.73335   0.78641   0.00000  Uiso   1.00
H1310  H     0.62316   0.71459   0.85859   0.00000  Uiso   1.00
H1311  H     0.55172   0.69577   0.83633   0.00000  Uiso   1.00
C1312  C     0.42897   0.96064   0.70805   0.00000  Uiso   1.00
C1313  C     0.44032   0.94376   0.65625   0.00000  Uiso   1.00
C1314  C     0.40513   0.92391   0.64155   0.00000  Uiso   1.00
C1315  C     0.35887   0.92018   0.67874   0.00000  Uiso   1.00
C1316  C     0.34746   0.93688   0.73048   0.00000  Uiso   1.00
C1317  C     0.38229   0.95748   0.74500   0.00000  Uiso   1.00
H1318  H     0.47640   0.94584   0.62749   0.00000  Uiso   1.00
H1319  H     0.41380   0.91111   0.60155   0.00000  Uiso   1.00
H1320  H     0.66550   0.90381   0.66748   0.00000  Uiso   1.00
H1321  H     0.64519   0.93344   0.75973   0.00000  Uiso   1.00
H1322  H     0.37332   0.96992   0.78530   0.00000  Uiso   1.00
O1323  O     0.64609   0.80656   0.66142   0.00000  Uiso   1.00
H1324  H     0.34307   0.79801   0.63309   0.00000  Uiso   1.00
O1325  O     0.59239   0.95732   0.70714   0.00000  Uiso   1.00
H1326  H     0.59190   0.93637   0.67995   0.00000  Uiso   1.00
C1327  C     0.83553   0.91280   0.74177   0.00000  Uiso   1.00
C1328  C     0.81080   0.82338   0.99214   0.00000  Uiso   1.00
C1329  C     0.82189   0.81327   0.93738   0.00000  Uiso   1.00
C1330  C     0.84779   0.82039   0.51464   0.00000  Uiso   1.00
C1331  C     0.89260   0.80179   0.98521   0.00000  Uiso   1.00
C1332  C     0.90019   0.78649   0.93391   0.00000  Uiso   1.00
C1333  C     0.86498   0.79131   0.91062   0.00000  Uiso   1.00
C1334  C     0.84182   0.83639   0.56525   0.00000  Uiso   1.00
C1335  C     0.92009   0.81065   0.56091   0.00000  Uiso   1.00
C1336  C     0.78990   0.82615   0.91073   0.00000  Uiso   1.00
C1337  C     0.88192   0.97732   0.72358   0.00000  Uiso   1.00
C1338  C     0.80684   0.83070   0.85195   0.00000  Uiso   1.00
C1339  C     0.87959   0.68560   0.73713   0.00000  Uiso   1.00
C1340  C     0.83736   0.70846   0.74128   0.00000  Uiso   1.00
C1341  C     0.79963   0.68906   0.73044   0.00000  Uiso   1.00
C1342  C     0.80022   0.97978   0.72392   0.00000  Uiso   1.00
C1343  C     0.83948   0.95677   0.72766   0.00000  Uiso   1.00
C1344  C     0.98948   0.82019   0.70569   0.00000  Uiso   1.00
C1345  C     0.70420   0.82039   0.70592   0.00000  Uiso   1.00
C1346  C     0.67705   0.84585   0.79431   0.00000  Uiso   1.00
C1347  C     0.96263   0.84595   0.79426   0.00000  Uiso   1.00
C1348  C     0.83401   0.75298   0.74921   0.00000  Uiso   1.00
C1349  C     0.85990   0.83350   0.64800   0.00000  Uiso   1.00
C1350  C     0.92884   0.79791   0.50808   0.00000  Uiso   1.00
C1351  C     0.87584   0.82886   0.58988   0.00000  Uiso   1.00
C1352  C     0.74335   0.83953   0.94085   0.00000  Uiso   1.00
C1353  C     0.72968   0.84288   0.99654   0.00000  Uiso   1.00
C1354  C     0.76322   0.83593   0.52206   0.00000  Uiso   1.00
H1355  H     0.94684   0.80465   0.57961   0.00000  Uiso   1.00
H1356  H     0.76974   0.70688   0.72670   0.00000  Uiso   1.00
H1357  H     0.73323   0.80985   0.67086   0.00000  Uiso   1.00
H1358  H     0.68417   0.85616   0.82973   0.00000  Uiso   1.00
H1359  H     0.93404   0.85650   0.82971   0.00000  Uiso   1.00
H1360  H     0.93377   0.77145   0.91152   0.00000  Uiso   1.00
H1361  H     0.96306   0.78350   0.98597   0.00000  Uiso   1.00
H1362  H     0.80996   0.85376   0.58730   0.00000  Uiso   1.00
H1363  H     0.71791   0.84842   0.92125   0.00000  Uiso   1.00
H1364  H     0.75063   0.83950   0.56528   0.00000  Uiso   1.00
H1365  H     0.69352   0.85261   0.51981   0.00000  Uiso   1.00
H1366  H     0.87189   0.77736   0.87156   0.00000  Uiso   1.00
N1367  N     0.71426   0.83334   0.75001   0.00000  Uiso   1.00
N1368  N     0.95239   0.83331   0.75000   0.00000  Uiso   1.00
O1369  O     0.79512   0.89442   0.75000   0.00000  Uiso   1.00
O1370  O     0.87157   0.89441   0.75000   0.00000  Uiso   1.00
O1371  O     0.77613   0.83333   0.82681   0.00000  Uiso   1.00
O1372  O     0.85258   0.83332   0.82681   0.00000  Uiso   1.00
O1373  O     0.79510   0.77226   0.74999   0.00000  Uiso   1.00
O1374  O     0.87154   0.77225   0.74999   0.00000  Uiso   1.00
O1375  O     0.81409   0.83335   0.67319   0.00000  Uiso   1.00
O1376  O     0.89053   0.83334   0.67319   0.00000  Uiso   1.00
Zn1377 Zn    0.78229   0.83334   0.75000   0.00000  Uiso   1.00
Zn1378 Zn    0.88438   0.83333   0.75000   0.00000  Uiso   1.00
C1379  C     0.92056   0.70221   0.75014   0.00000  Uiso   1.00
C1380  C     0.96405   0.71094   0.70898   0.00000  Uiso   1.00
C1381  C     0.67085   0.72195   0.72202   0.00000  Uiso   1.00
C1382  C     0.66768   0.72442   0.77606   0.00000  Uiso   1.00
C1383  C     0.95818   0.71468   0.81701   0.00000  Uiso   1.00
C1384  C     0.91791   0.70389   0.80424   0.00000  Uiso   1.00
H1385  H     0.96697   0.70859   0.66701   0.00000  Uiso   1.00
H1386  H     0.70437   0.72856   0.69021   0.00000  Uiso   1.00
H1387  H     0.69846   0.73335   0.78641   0.00000  Uiso   1.00
H1388  H     0.95649   0.71459   0.85859   0.00000  Uiso   1.00
H1389  H     0.88505   0.69577   0.83633   0.00000  Uiso   1.00
C1390  C     0.76230   0.96064   0.70805   0.00000  Uiso   1.00
C1391  C     0.77365   0.94376   0.65625   0.00000  Uiso   1.00
C1392  C     0.73846   0.92391   0.64155   0.00000  Uiso   1.00
C1393  C     0.69220   0.92018   0.67874   0.00000  Uiso   1.00
C1394  C     0.68080   0.93688   0.73048   0.00000  Uiso   1.00
C1395  C     0.71562   0.95748   0.74500   0.00000  Uiso   1.00
H1396  H     0.80973   0.94584   0.62749   0.00000  Uiso   1.00
H1397  H     0.74713   0.91111   0.60155   0.00000  Uiso   1.00
H1398  H     0.99883   0.90381   0.66748   0.00000  Uiso   1.00
H1399  H     0.97852   0.93344   0.75973   0.00000  Uiso   1.00
H1400  H     0.70665   0.96992   0.78530   0.00000  Uiso   1.00
O1401  O     0.97942   0.80656   0.66142   0.00000  Uiso   1.00
H1402  H     0.67640   0.79801   0.63309   0.00000  Uiso   1.00
O1403  O     0.92572   0.95732   0.70714   0.00000  Uiso   1.00
H1404  H     0.92524   0.93637   0.67995   0.00000  Uiso   1.00
loop_
_geom_bond_atom_site_label_1
_geom_bond_atom_site_label_2
_geom_bond_distance
_geom_bond_site_symmetry_2
_ccdc_geom_bond_type
C1     O43     1.292   .     A
C1     O44     1.294   .     A
C1     C17     1.450   .     S
C2     C3      1.408   .     A
C2     C706    1.416   .     S
C2     C730    1.418   .     S
C3     C7      1.415   .     A
C3     C10     1.414   .     A
C4     C8      1.388   .     A
C4     C704    1.416   1_554 S
C4     C707    1.419   1_554 S
C5     C6      1.388   .     A
C5     C706    1.419   .     S
C5     C726    1.404   .     S
C6     H34     1.080   .     S
C6     C7      1.386   .     A
C7     H40     1.080   .     S
C8     H36     1.078   .     S
C8     C25     1.390   .     A
C9     C25     1.399   .     A
C9     H29     1.081   .     S
C9     C24     1.392   .     A
C10    C12     1.463   .     S
C10    C26     1.403   .     A
C11    O77     1.375   .     S
C11    C17     1.400   .     A
C11    C247    1.380   .     S
C12    O46     1.295   .     A
C12    O45     1.297   .     A
C13    C53     1.478   .     S
C13    C14     1.415   .     A
C13    C479    1.380   1_545 S
C14    C15     1.401   .     A
C14    C22     1.442   .     S
C15    H30     1.080   .     S
C15    C484    1.378   1_545 S
C16    C17     1.402   .     A
C16    C64     1.471   .     S
C16    C249    1.378   .     S
C18    O75     1.376   .     S
C18    N42     1.370   .     A
C18    C97     1.428   .     S
C19    H31     1.081   .     S
C19    N41     1.365   .     A
C19    C174    1.428   1_455 S
C20    N41     1.366   .     A
C20    H32     1.081   .     S
C20    C177    1.417   1_455 S
C21    H33     1.081   .     S
C21    N42     1.369   .     A
C21    C98     1.417   .     S
C22    O48     1.287   .     A
C22    O47     1.296   .     A
C23    O49     1.294   .     A
C23    O50     1.295   .     A
C23    C25     1.450   .     S
C24    C707    1.404   1_554 S
C24    H737    1.084   1_554 S
C26    C27     1.389   .     A
C26    H37     1.083   .     S
C27    C730    1.392   .     S
C27    H741    1.083   .     S
C28    H38     1.078   .     S
C28    C704    1.418   1_554 S
C28    C729    1.392   1_554 S
H35    C726    1.084   .     S
H39    C729    1.083   1_554 S
N41    Zn51    2.018   .     S
N42    Zn52    2.018   .     S
O43    Zn51    2.000   .     S
O44    Zn52    1.990   .     S
O45    Zn51    1.970   .     S
O46    Zn52    1.920   .     S
O47    Zn51    1.990   .     S
O48    Zn52    2.000   .     S
O49    Zn51    1.920   .     S
O50    Zn52    1.970   .     S
C53    C54     1.404   .     A
C53    C58     1.402   .     A
C54    H59     1.083   .     S
C54    C133    1.398   .     S
C55    C56     1.398   .     A
C55    H60     1.082   .     S
C55    C210    1.398   1_455 S
C56    H61     1.081   .     S
C56    C213    1.395   1_455 S
C57    H62     1.080   .     S
C57    C58     1.396   .     A
C57    C134    1.395   .     S
C58    H63     1.083   .     S
C64    C69     1.400   .     A
C64    C65     1.404   .     A
C65    H70     1.083   .     S
C65    C66     1.395   .     A
C66    H71     1.081   .     S
C66    C67     1.395   .     A
C67    C68     1.400   .     A
C67    H228    1.080   1_455 S
C68    C69     1.394   .     A
C68    H229    1.081   1_455 S
C69    H74     1.083   .     S
H72    C145    1.080   .     S
H73    C146    1.081   .     S
O75    H154    0.992   .     S
H76    O231    0.992   1_455 S
O77    H78     0.992   .     S
C79    O121    1.292   .     A
C79    O122    1.294   .     A
C79    C95     1.450   .     S
C80    C81     1.408   .     A
C80    C784    1.416   .     S
C80    C808    1.418   .     S
C81    C85     1.415   .     A
C81    C88     1.414   .     A
C82    C86     1.388   .     A
C82    C782    1.416   1_554 S
C82    C785    1.419   1_554 S
C83    C84     1.388   .     A
C83    C784    1.419   .     S
C83    C804    1.404   .     S
C84    H112    1.080   .     S
C84    C85     1.386   .     A
C85    H118    1.080   .     S
C86    H114    1.078   .     S
C86    C103    1.390   .     A
C87    C103    1.399   .     A
C87    H107    1.081   .     S
C87    C102    1.392   .     A
C88    C90     1.463   .     S
C88    C104    1.403   .     A
C89    O155    1.375   .     S
C89    C95     1.400   .     A
C89    C325    1.380   .     S
C90    O124    1.295   .     A
C90    O123    1.297   .     A
C91    C131    1.478   .     S
C91    C92     1.415   .     A
C91    C557    1.380   1_545 S
C92    C93     1.401   .     A
C92    C100    1.442   .     S
C93    H108    1.080   .     S
C93    C562    1.378   1_545 S
C94    C95     1.402   .     A
C94    C142    1.471   .     S
C94    C327    1.378   .     S
C96    O153    1.376   .     S
C96    N120    1.370   .     A
C96    C175    1.428   .     S
C97    H109    1.081   .     S
C97    N119    1.365   .     A
C98    N119    1.366   .     A
C98    H110    1.081   .     S
C99    H111    1.081   .     S
C99    N120    1.369   .     A
C99    C176    1.417   .     S
C100   O126    1.287   .     A
C100   O125    1.296   .     A
C101   O127    1.294   .     A
C101   O128    1.295   .     A
C101   C103    1.450   .     S
C102   C785    1.404   1_554 S
C102   H815    1.084   1_554 S
C104   C105    1.389   .     A
C104   H115    1.083   .     S
C105   C808    1.392   .     S
C105   H819    1.083   .     S
C106   H116    1.078   .     S
C106   C782    1.418   1_554 S
C106   C807    1.392   1_554 S
H113   C804    1.084   .     S
H117   C807    1.083   1_554 S
N119   Zn129   2.018   .     S
N120   Zn130   2.018   .     S
O121   Zn129   2.000   .     S
O122   Zn130   1.990   .     S
O123   Zn129   1.970   .     S
O124   Zn130   1.920   .     S
O125   Zn129   1.990   .     S
O126   Zn130   2.000   .     S
O127   Zn129   1.920   .     S
O128   Zn130   1.970   .     S
C131   C132    1.404   .     A
C131   C136    1.402   .     A
C132   H137    1.083   .     S
C132   C211    1.398   .     S
C133   C134    1.398   .     A
C133   H138    1.082   .     S
C134   H139    1.081   .     S
C135   H140    1.080   .     S
C135   C136    1.396   .     A
C135   C212    1.395   .     S
C136   H141    1.083   .     S
C142   C147    1.400   .     A
C142   C143    1.404   .     A
C143   H148    1.083   .     S
C143   C144    1.395   .     A
C144   H149    1.081   .     S
C144   C145    1.395   .     A
C145   C146    1.400   .     A
C146   C147    1.394   .     A
C147   H152    1.083   .     S
H150   C223    1.080   .     S
H151   C224    1.081   .     S
O153   H232    0.992   .     S
O155   H156    0.992   .     S
C157   O199    1.292   .     A
C157   O200    1.294   .     A
C157   C173    1.450   .     S
C158   C159    1.408   .     A
C158   C862    1.416   .     S
C158   C886    1.418   .     S
C159   C163    1.415   .     A
C159   C166    1.414   .     A
C160   C164    1.388   .     A
C160   C860    1.416   1_554 S
C160   C863    1.419   1_554 S
C161   C162    1.388   .     A
C161   C862    1.419   .     S
C161   C882    1.404   .     S
C162   H190    1.080   .     S
C162   C163    1.386   .     A
C163   H196    1.080   .     S
C164   H192    1.078   .     S
C164   C181    1.390   .     A
C165   C181    1.399   .     A
C165   H185    1.081   .     S
C165   C180    1.392   .     A
C166   C168    1.463   .     S
C166   C182    1.403   .     A
C167   O233    1.375   .     S
C167   C173    1.400   .     A
C167   C403    1.380   .     S
C168   O202    1.295   .     A
C168   O201    1.297   .     A
C169   C209    1.478   .     S
C169   C170    1.415   .     A
C169   C635    1.380   1_545 S
C170   C171    1.401   .     A
C170   C178    1.442   .     S
C171   H186    1.080   .     S
C171   C640    1.378   1_545 S
C172   C173    1.402   .     A
C172   C220    1.471   .     S
C172   C405    1.378   .     S
C174   O231    1.376   .     S
C174   N198    1.370   .     A
C174   C19     1.428   1_655 S
C175   H187    1.081   .     S
C175   N197    1.365   .     A
C176   N197    1.366   .     A
C176   H188    1.081   .     S
C177   H189    1.081   .     S
C177   N198    1.369   .     A
C177   C20     1.417   1_655 S
C178   O204    1.287   .     A
C178   O203    1.296   .     A
C179   O205    1.294   .     A
C179   O206    1.295   .     A
C179   C181    1.450   .     S
C180   C863    1.404   1_554 S
C180   H893    1.084   1_554 S
C182   C183    1.389   .     A
C182   H193    1.083   .     S
C183   C886    1.392   .     S
C183   H897    1.083   .     S
C184   H194    1.078   .     S
C184   C860    1.418   1_554 S
C184   C885    1.392   1_554 S
H191   C882    1.084   .     S
H195   C885    1.083   1_554 S
N197   Zn207   2.018   .     S
N198   Zn208   2.018   .     S
O199   Zn207   2.000   .     S
O200   Zn208   1.990   .     S
O201   Zn207   1.970   .     S
O202   Zn208   1.920   .     S
O203   Zn207   1.990   .     S
O204   Zn208   2.000   .     S
O205   Zn207   1.920   .     S
O206   Zn208   1.970   .     S
C209   C210    1.404   .     A
C209   C214    1.402   .     A
C210   H215    1.083   .     S
C210   C55     1.398   1_655 S
C211   C212    1.398   .     A
C211   H216    1.082   .     S
C212   H217    1.081   .     S
C213   H218    1.080   .     S
C213   C214    1.396   .     A
C213   C56     1.395   1_655 S
C214   H219    1.083   .     S
C220   C225    1.400   .     A
C220   C221    1.404   .     A
C221   H226    1.083   .     S
C221   C222    1.395   .     A
C222   H227    1.081   .     S
C222   C223    1.395   .     A
C223   C224    1.400   .     A
C224   C225    1.394   .     A
C225   H230    1.083   .     S
H228   C67     1.080   1_655 S
H229   C68     1.081   1_655 S
O231   H76     0.992   1_655 S
O233   H234    0.992   .     S
C235   O277    1.292   .     A
C235   O278    1.294   .     A
C235   C251    1.450   .     S
C236   C237    1.408   .     A
C236   C940    1.416   .     S
C236   C964    1.418   .     S
C237   C241    1.415   .     A
C237   C244    1.414   .     A
C238   C242    1.388   .     A
C238   C938    1.416   1_554 S
C238   C941    1.419   1_554 S
C239   C240    1.388   .     A
C239   C940    1.419   .     S
C239   C960    1.404   .     S
C240   H268    1.080   .     S
C240   C241    1.386   .     A
C241   H274    1.080   .     S
C242   H270    1.078   .     S
C242   C259    1.390   .     A
C243   C259    1.399   .     A
C243   H263    1.081   .     S
C243   C258    1.392   .     A
C244   C246    1.463   .     S
C244   C260    1.403   .     A
C245   O311    1.375   .     S
C245   C251    1.400   .     A
C245   C481    1.380   .     S
C246   O280    1.295   .     A
C246   O279    1.297   .     A
C247   C287    1.478   .     S
C247   C248    1.415   .     A
C248   C249    1.401   .     A
C248   C256    1.442   .     S
C249   H264    1.080   .     S
C250   C251    1.402   .     A
C250   C298    1.471   .     S
C250   C483    1.378   .     S
C252   O309    1.376   .     S
C252   N276    1.370   .     A
C252   C331    1.428   .     S
C253   H265    1.081   .     S
C253   N275    1.365   .     A
C253   C408    1.428   1_455 S
C254   N275    1.366   .     A
C254   H266    1.081   .     S
C254   C411    1.417   1_455 S
C255   H267    1.081   .     S
C255   N276    1.369   .     A
C255   C332    1.417   .     S
C256   O282    1.287   .     A
C256   O281    1.296   .     A
C257   O283    1.294   .     A
C257   O284    1.295   .     A
C257   C259    1.450   .     S
C258   C941    1.404   1_554 S
C258   H971    1.084   1_554 S
C260   C261    1.389   .     A
C260   H271    1.083   .     S
C261   C964    1.392   .     S
C261   H975    1.083   .     S
C262   H272    1.078   .     S
C262   C938    1.418   1_554 S
C262   C963    1.392   1_554 S
H269   C960    1.084   .     S
H273   C963    1.083   1_554 S
N275   Zn285   2.018   .     S
N276   Zn286   2.018   .     S
O277   Zn285   2.000   .     S
O278   Zn286   1.990   .     S
O279   Zn285   1.970   .     S
O280   Zn286   1.920   .     S
O281   Zn285   1.990   .     S
O282   Zn286   2.000   .     S
O283   Zn285   1.920   .     S
O284   Zn286   1.970   .     S
C287   C288    1.404   .     A
C287   C292    1.402   .     A
C288   H293    1.083   .     S
C288   C367    1.398   .     S
C289   C290    1.398   .     A
C289   H294    1.082   .     S
C289   C444    1.398   1_455 S
C290   H295    1.081   .     S
C290   C447    1.395   1_455 S
C291   H296    1.080   .     S
C291   C292    1.396   .     A
C291   C368    1.395   .     S
C292   H297    1.083   .     S
C298   C303    1.400   .     A
C298   C299    1.404   .     A
C299   H304    1.083   .     S
C299   C300    1.395   .     A
C300   H305    1.081   .     S
C300   C301    1.395   .     A
C301   C302    1.400   .     A
C301   H462    1.080   1_455 S
C302   C303    1.394   .     A
C302   H463    1.081   1_455 S
C303   H308    1.083   .     S
H306   C379    1.080   .     S
H307   C380    1.081   .     S
O309   H388    0.992   .     S
H310   O465    0.992   1_455 S
O311   H312    0.992   .     S
C313   O355    1.292   .     A
C313   O356    1.294   .     A
C313   C329    1.450   .     S
C314   C315    1.408   .     A
C314   C1018   1.416   .     S
C314   C1042   1.418   .     S
C315   C319    1.415   .     A
C315   C322    1.414   .     A
C316   C320    1.388   .     A
C316   C1016   1.416   1_554 S
C316   C1019   1.419   1_554 S
C317   C318    1.388   .     A
C317   C1018   1.419   .     S
C317   C1038   1.404   .     S
C318   H346    1.080   .     S
C318   C319    1.386   .     A
C319   H352    1.080   .     S
C320   H348    1.078   .     S
C320   C337    1.390   .     A
C321   C337    1.399   .     A
C321   H341    1.081   .     S
C321   C336    1.392   .     A
C322   C324    1.463   .     S
C322   C338    1.403   .     A
C323   O389    1.375   .     S
C323   C329    1.400   .     A
C323   C559    1.380   .     S
C324   O358    1.295   .     A
C324   O357    1.297   .     A
C325   C365    1.478   .     S
C325   C326    1.415   .     A
C326   C327    1.401   .     A
C326   C334    1.442   .     S
C327   H342    1.080   .     S
C328   C329    1.402   .     A
C328   C376    1.471   .     S
C328   C561    1.378   .     S
C330   O387    1.376   .     S
C330   N354    1.370   .     A
C330   C409    1.428   .     S
C331   H343    1.081   .     S
C331   N353    1.365   .     A
C332   N353    1.366   .     A
C332   H344    1.081   .     S
C333   H345    1.081   .     S
C333   N354    1.369   .     A
C333   C410    1.417   .     S
C334   O360    1.287   .     A
C334   O359    1.296   .     A
C335   O361    1.294   .     A
C335   O362    1.295   .     A
C335   C337    1.450   .     S
C336   C1019   1.404   1_554 S
C336   H1049   1.084   1_554 S
C338   C339    1.389   .     A
C338   H349    1.083   .     S
C339   C1042   1.392   .     S
C339   H1053   1.083   .     S
C340   H350    1.078   .     S
C340   C1016   1.418   1_554 S
C340   C1041   1.392   1_554 S
H347   C1038   1.084   .     S
H351   C1041   1.083   1_554 S
N353   Zn363   2.018   .     S
N354   Zn364   2.018   .     S
O355   Zn363   2.000   .     S
O356   Zn364   1.990   .     S
O357   Zn363   1.970   .     S
O358   Zn364   1.920   .     S
O359   Zn363   1.990   .     S
O360   Zn364   2.000   .     S
O361   Zn363   1.920   .     S
O362   Zn364   1.970   .     S
C365   C366    1.404   .     A
C365   C370    1.402   .     A
C366   H371    1.083   .     S
C366   C445    1.398   .     S
C367   C368    1.398   .     A
C367   H372    1.082   .     S
C368   H373    1.081   .     S
C369   H374    1.080   .     S
C369   C370    1.396   .     A
C369   C446    1.395   .     S
C370   H375    1.083   .     S
C376   C381    1.400   .     A
C376   C377    1.404   .     A
C377   H382    1.083   .     S
C377   C378    1.395   .     A
C378   H383    1.081   .     S
C378   C379    1.395   .     A
C379   C380    1.400   .     A
C380   C381    1.394   .     A
C381   H386    1.083   .     S
H384   C457    1.080   .     S
H385   C458    1.081   .     S
O387   H466    0.992   .     S
O389   H390    0.992   .     S
C391   O433    1.292   .     A
C391   O434    1.294   .     A
C391   C407    1.450   .     S
C392   C393    1.408   .     A
C392   C1096   1.416   .     S
C392   C1120   1.418   .     S
C393   C397    1.415   .     A
C393   C400    1.414   .     A
C394   C398    1.388   .     A
C394   C1094   1.416   1_554 S
C394   C1097   1.419   1_554 S
C395   C396    1.388   .     A
C395   C1096   1.419   .     S
C395   C1116   1.404   .     S
C396   H424    1.080   .     S
C396   C397    1.386   .     A
C397   H430    1.080   .     S
C398   H426    1.078   .     S
C398   C415    1.390   .     A
C399   C415    1.399   .     A
C399   H419    1.081   .     S
C399   C414    1.392   .     A
C400   C402    1.463   .     S
C400   C416    1.403   .     A
C401   O467    1.375   .     S
C401   C407    1.400   .     A
C401   C637    1.380   .     S
C402   O436    1.295   .     A
C402   O435    1.297   .     A
C403   C443    1.478   .     S
C403   C404    1.415   .     A
C404   C405    1.401   .     A
C404   C412    1.442   .     S
C405   H420    1.080   .     S
C406   C407    1.402   .     A
C406   C454    1.471   .     S
C406   C639    1.378   .     S
C408   O465    1.376   .     S
C408   N432    1.370   .     A
C408   C253    1.428   1_655 S
C409   H421    1.081   .     S
C409   N431    1.365   .     A
C410   N431    1.366   .     A
C410   H422    1.081   .     S
C411   H423    1.081   .     S
C411   N432    1.369   .     A
C411   C254    1.417   1_655 S
C412   O438    1.287   .     A
C412   O437    1.296   .     A
C413   O439    1.294   .     A
C413   O440    1.295   .     A
C413   C415    1.450   .     S
C414   C1097   1.404   1_554 S
C414   H1127   1.084   1_554 S
C416   C417    1.389   .     A
C416   H427    1.083   .     S
C417   C1120   1.392   .     S
C417   H1131   1.083   .     S
C418   H428    1.078   .     S
C418   C1094   1.418   1_554 S
C418   C1119   1.392   1_554 S
H425   C1116   1.084   .     S
H429   C1119   1.083   1_554 S
N431   Zn441   2.018   .     S
N432   Zn442   2.018   .     S
O433   Zn441   2.000   .     S
O434   Zn442   1.990   .     S
O435   Zn441   1.970   .     S
O436   Zn442   1.920   .     S
O437   Zn441   1.990   .     S
O438   Zn442   2.000   .     S
O439   Zn441   1.920   .     S
O440   Zn442   1.970   .     S
C443   C444    1.404   .     A
C443   C448    1.402   .     A
C444   H449    1.083   .     S
C444   C289    1.398   1_655 S
C445   C446    1.398   .     A
C445   H450    1.082   .     S
C446   H451    1.081   .     S
C447   H452    1.080   .     S
C447   C448    1.396   .     A
C447   C290    1.395   1_655 S
C448   H453    1.083   .     S
C454   C459    1.400   .     A
C454   C455    1.404   .     A
C455   H460    1.083   .     S
C455   C456    1.395   .     A
C456   H461    1.081   .     S
C456   C457    1.395   .     A
C457   C458    1.400   .     A
C458   C459    1.394   .     A
C459   H464    1.083   .     S
H462   C301    1.080   1_655 S
H463   C302    1.081   1_655 S
O465   H310    0.992   1_655 S
O467   H468    0.992   .     S
C469   O511    1.292   .     A
C469   O512    1.294   .     A
C469   C485    1.450   .     S
C470   C471    1.408   .     A
C470   C1174   1.416   .     S
C470   C1198   1.418   .     S
C471   C475    1.415   .     A
C471   C478    1.414   .     A
C472   C476    1.388   .     A
C472   C1172   1.416   1_554 S
C472   C1175   1.419   1_554 S
C473   C474    1.388   .     A
C473   C1174   1.419   .     S
C473   C1194   1.404   .     S
C474   H502    1.080   .     S
C474   C475    1.386   .     A
C475   H508    1.080   .     S
C476   H504    1.078   .     S
C476   C493    1.390   .     A
C477   C493    1.399   .     A
C477   H497    1.081   .     S
C477   C492    1.392   .     A
C478   C480    1.463   .     S
C478   C494    1.403   .     A
C479   O545    1.375   .     S
C479   C485    1.400   .     A
C479   C13     1.380   1_565 S
C480   O514    1.295   .     A
C480   O513    1.297   .     A
C481   C521    1.478   .     S
C481   C482    1.415   .     A
C482   C483    1.401   .     A
C482   C490    1.442   .     S
C483   H498    1.080   .     S
C484   C485    1.402   .     A
C484   C532    1.471   .     S
C484   C15     1.378   1_565 S
C486   O543    1.376   .     S
C486   N510    1.370   .     A
C486   C565    1.428   .     S
C487   H499    1.081   .     S
C487   N509    1.365   .     A
C487   C642    1.428   1_455 S
C488   N509    1.366   .     A
C488   H500    1.081   .     S
C488   C645    1.417   1_455 S
C489   H501    1.081   .     S
C489   N510    1.369   .     A
C489   C566    1.417   .     S
C490   O516    1.287   .     A
C490   O515    1.296   .     A
C491   O517    1.294   .     A
C491   O518    1.295   .     A
C491   C493    1.450   .     S
C492   C1175   1.404   1_554 S
C492   H1205   1.084   1_554 S
C494   C495    1.389   .     A
C494   H505    1.083   .     S
C495   C1198   1.392   .     S
C495   H1209   1.083   .     S
C496   H506    1.078   .     S
C496   C1172   1.418   1_554 S
C496   C1197   1.392   1_554 S
H503   C1194   1.084   .     S
H507   C1197   1.083   1_554 S
N509   Zn519   2.018   .     S
N510   Zn520   2.018   .     S
O511   Zn519   2.000   .     S
O512   Zn520   1.990   .     S
O513   Zn519   1.970   .     S
O514   Zn520   1.920   .     S
O515   Zn519   1.990   .     S
O516   Zn520   2.000   .     S
O517   Zn519   1.920   .     S
O518   Zn520   1.970   .     S
C521   C522    1.404   .     A
C521   C526    1.402   .     A
C522   H527    1.083   .     S
C522   C601    1.398   .     S
C523   C524    1.398   .     A
C523   H528    1.082   .     S
C523   C678    1.398   1_455 S
C524   H529    1.081   .     S
C524   C681    1.395   1_455 S
C525   H530    1.080   .     S
C525   C526    1.396   .     A
C525   C602    1.395   .     S
C526   H531    1.083   .     S
C532   C537    1.400   .     A
C532   C533    1.404   .     A
C533   H538    1.083   .     S
C533   C534    1.395   .     A
C534   H539    1.081   .     S
C534   C535    1.395   .     A
C535   C536    1.400   .     A
C535   H696    1.080   1_455 S
C536   C537    1.394   .     A
C536   H697    1.081   1_455 S
C537   H542    1.083   .     S
H540   C613    1.080   .     S
H541   C614    1.081   .     S
O543   H622    0.992   .     S
H544   O699    0.992   1_455 S
O545   H546    0.992   .     S
C547   O589    1.292   .     A
C547   O590    1.294   .     A
C547   C563    1.450   .     S
C548   C549    1.408   .     A
C548   C1252   1.416   .     S
C548   C1276   1.418   .     S
C549   C553    1.415   .     A
C549   C556    1.414   .     A
C550   C554    1.388   .     A
C550   C1250   1.416   1_554 S
C550   C1253   1.419   1_554 S
C551   C552    1.388   .     A
C551   C1252   1.419   .     S
C551   C1272   1.404   .     S
C552   H580    1.080   .     S
C552   C553    1.386   .     A
C553   H586    1.080   .     S
C554   H582    1.078   .     S
C554   C571    1.390   .     A
C555   C571    1.399   .     A
C555   H575    1.081   .     S
C555   C570    1.392   .     A
C556   C558    1.463   .     S
C556   C572    1.403   .     A
C557   O623    1.375   .     S
C557   C563    1.400   .     A
C557   C91     1.380   1_565 S
C558   O592    1.295   .     A
C558   O591    1.297   .     A
C559   C599    1.478   .     S
C559   C560    1.415   .     A
C560   C561    1.401   .     A
C560   C568    1.442   .     S
C561   H576    1.080   .     S
C562   C563    1.402   .     A
C562   C610    1.471   .     S
C562   C93     1.378   1_565 S
C564   O621    1.376   .     S
C564   N588    1.370   .     A
C564   C643    1.428   .     S
C565   H577    1.081   .     S
C565   N587    1.365   .     A
C566   N587    1.366   .     A
C566   H578    1.081   .     S
C567   H579    1.081   .     S
C567   N588    1.369   .     A
C567   C644    1.417   .     S
C568   O594    1.287   .     A
C568   O593    1.296   .     A
C569   O595    1.294   .     A
C569   O596    1.295   .     A
C569   C571    1.450   .     S
C570   C1253   1.404   1_554 S
C570   H1283   1.084   1_554 S
C572   C573    1.389   .     A
C572   H583    1.083   .     S
C573   C1276   1.392   .     S
C573   H1287   1.083   .     S
C574   H584    1.078   .     S
C574   C1250   1.418   1_554 S
C574   C1275   1.392   1_554 S
H581   C1272   1.084   .     S
H585   C1275   1.083   1_554 S
N587   Zn597   2.018   .     S
N588   Zn598   2.018   .     S
O589   Zn597   2.000   .     S
O590   Zn598   1.990   .     S
O591   Zn597   1.970   .     S
O592   Zn598   1.920   .     S
O593   Zn597   1.990   .     S
O594   Zn598   2.000   .     S
O595   Zn597   1.920   .     S
O596   Zn598   1.970   .     S
C599   C600    1.404   .     A
C599   C604    1.402   .     A
C600   H605    1.083   .     S
C600   C679    1.398   .     S
C601   C602    1.398   .     A
C601   H606    1.082   .     S
C602   H607    1.081   .     S
C603   H608    1.080   .     S
C603   C604    1.396   .     A
C603   C680    1.395   .     S
C604   H609    1.083   .     S
C610   C615    1.400   .     A
C610   C611    1.404   .     A
C611   H616    1.083   .     S
C611   C612    1.395   .     A
C612   H617    1.081   .     S
C612   C613    1.395   .     A
C613   C614    1.400   .     A
C614   C615    1.394   .     A
C615   H620    1.083   .     S
H618   C691    1.080   .     S
H619   C692    1.081   .     S
O621   H700    0.992   .     S
O623   H624    0.992   .     S
C625   O667    1.292   .     A
C625   O668    1.294   .     A
C625   C641    1.450   .     S
C626   C627    1.408   .     A
C626   C1330   1.416   .     S
C626   C1354   1.418   .     S
C627   C631    1.415   .     A
C627   C634    1.414   .     A
C628   C632    1.388   .     A
C628   C1328   1.416   1_554 S
C628   C1331   1.419   1_554 S
C629   C630    1.388   .     A
C629   C1330   1.419   .     S
C629   C1350   1.404   .     S
C630   H658    1.080   .     S
C630   C631    1.386   .     A
C631   H664    1.080   .     S
C632   H660    1.078   .     S
C632   C649    1.390   .     A
C633   C649    1.399   .     A
C633   H653    1.081   .     S
C633   C648    1.392   .     A
C634   C636    1.463   .     S
C634   C650    1.403   .     A
C635   O701    1.375   .     S
C635   C641    1.400   .     A
C635   C169    1.380   1_565 S
C636   O670    1.295   .     A
C636   O669    1.297   .     A
C637   C677    1.478   .     S
C637   C638    1.415   .     A
C638   C639    1.401   .     A
C638   C646    1.442   .     S
C639   H654    1.080   .     S
C640   C641    1.402   .     A
C640   C688    1.471   .     S
C640   C171    1.378   1_565 S
C642   O699    1.376   .     S
C642   N666    1.370   .     A
C642   C487    1.428   1_655 S
C643   H655    1.081   .     S
C643   N665    1.365   .     A
C644   N665    1.366   .     A
C644   H656    1.081   .     S
C645   H657    1.081   .     S
C645   N666    1.369   .     A
C645   C488    1.417   1_655 S
C646   O672    1.287   .     A
C646   O671    1.296   .     A
C647   O673    1.294   .     A
C647   O674    1.295   .     A
C647   C649    1.450   .     S
C648   C1331   1.404   1_554 S
C648   H1361   1.084   1_554 S
C650   C651    1.389   .     A
C650   H661    1.083   .     S
C651   C1354   1.392   .     S
C651   H1365   1.083   .     S
C652   H662    1.078   .     S
C652   C1328   1.418   1_554 S
C652   C1353   1.392   1_554 S
H659   C1350   1.084   .     S
H663   C1353   1.083   1_554 S
N665   Zn675   2.018   .     S
N666   Zn676   2.018   .     S
O667   Zn675   2.000   .     S
O668   Zn676   1.990   .     S
O669   Zn675   1.970   .     S
O670   Zn676   1.920   .     S
O671   Zn675   1.990   .     S
O672   Zn676   2.000   .     S
O673   Zn675   1.920   .     S
O674   Zn676   1.970   .     S
C677   C678    1.404   .     A
C677   C682    1.402   .     A
C678   H683    1.083   .     S
C678   C523    1.398   1_655 S
C679   C680    1.398   .     A
C679   H684    1.082   .     S
C680   H685    1.081   .     S
C681   H686    1.080   .     S
C681   C682    1.396   .     A
C681   C524    1.395   1_655 S
C682   H687    1.083   .     S
C688   C693    1.400   .     A
C688   C689    1.404   .     A
C689   H694    1.083   .     S
C689   C690    1.395   .     A
C690   H695    1.081   .     S
C690   C691    1.395   .     A
C691   C692    1.400   .     A
C692   C693    1.394   .     A
C693   H698    1.083   .     S
H696   C535    1.080   1_655 S
H697   C536    1.081   1_655 S
O699   H544    0.992   1_655 S
O701   H702    0.992   .     S
C703   O745    1.292   .     A
C703   O746    1.294   .     A
C703   C719    1.450   .     S
C704   C705    1.408   .     A
C704   C4      1.416   1_556 S
C704   C28     1.418   1_556 S
C705   C709    1.415   .     A
C705   C712    1.414   .     A
C706   C710    1.388   .     A
C707   C708    1.388   .     A
C707   C4      1.419   1_556 S
C707   C24     1.404   1_556 S
C708   H736    1.080   .     S
C708   C709    1.386   .     A
C709   H742    1.080   .     S
C710   H738    1.078   .     S
C710   C727    1.390   .     A
C711   C727    1.399   .     A
C711   H731    1.081   .     S
C711   C726    1.392   .     A
C712   C714    1.463   .     S
C712   C728    1.403   .     A
C713   O779    1.375   .     S
C713   C719    1.400   .     A
C713   C949    1.380   .     S
C714   O748    1.295   .     A
C714   O747    1.297   .     A
C715   C755    1.478   .     S
C715   C716    1.415   .     A
C715   C1181   1.380   1_545 S
C716   C717    1.401   .     A
C716   C724    1.442   .     S
C717   H732    1.080   .     S
C717   C1186   1.378   1_545 S
C718   C719    1.402   .     A
C718   C766    1.471   .     S
C718   C951    1.378   .     S
C720   O777    1.376   .     S
C720   N744    1.370   .     A
C720   C799    1.428   .     S
C721   H733    1.081   .     S
C721   N743    1.365   .     A
C721   C876    1.428   1_455 S
C722   N743    1.366   .     A
C722   H734    1.081   .     S
C722   C879    1.417   1_455 S
C723   H735    1.081   .     S
C723   N744    1.369   .     A
C723   C800    1.417   .     S
C724   O750    1.287   .     A
C724   O749    1.296   .     A
C725   O751    1.294   .     A
C725   O752    1.295   .     A
C725   C727    1.450   .     S
C728   C729    1.389   .     A
C728   H739    1.083   .     S
C729   C28     1.392   1_556 S
C729   H39     1.083   1_556 S
C730   H740    1.078   .     S
H737   C24     1.084   1_556 S
N743   Zn753   2.018   .     S
N744   Zn754   2.018   .     S
O745   Zn753   2.000   .     S
O746   Zn754   1.990   .     S
O747   Zn753   1.970   .     S
O748   Zn754   1.920   .     S
O749   Zn753   1.990   .     S
O750   Zn754   2.000   .     S
O751   Zn753   1.920   .     S
O752   Zn754   1.970   .     S
C755   C756    1.404   .     A
C755   C760    1.402   .     A
C756   H761    1.083   .     S
C756   C835    1.398   .     S
C757   C758    1.398   .     A
C757   H762    1.082   .     S
C757   C912    1.398   1_455 S
C758   H763    1.081   .     S
C758   C915    1.395   1_455 S
C759   H764    1.080   .     S
C759   C760    1.396   .     A
C759   C836    1.395   .     S
C760   H765    1.083   .     S
C766   C771    1.400   .     A
C766   C767    1.404   .     A
C767   H772    1.083   .     S
C767   C768    1.395   .     A
C768   H773    1.081   .     S
C768   C769    1.395   .     A
C769   C770    1.400   .     A
C769   H930    1.080   1_455 S
C770   C771    1.394   .     A
C770   H931    1.081   1_455 S
C771   H776    1.083   .     S
H774   C847    1.080   .     S
H775   C848    1.081   .     S
O777   H856    0.992   .     S
H778   O933    0.992   1_455 S
O779   H780    0.992   .     S
C781   O823    1.292   .     A
C781   O824    1.294   .     A
C781   C797    1.450   .     S
C782   C783    1.408   .     A
C782   C82     1.416   1_556 S
C782   C106    1.418   1_556 S
C783   C787    1.415   .     A
C783   C790    1.414   .     A
C784   C788    1.388   .     A
C785   C786    1.388   .     A
C785   C82     1.419   1_556 S
C785   C102    1.404   1_556 S
C786   H814    1.080   .     S
C786   C787    1.386   .     A
C787   H820    1.080   .     S
C788   H816    1.078   .     S
C788   C805    1.390   .     A
C789   C805    1.399   .     A
C789   H809    1.081   .     S
C789   C804    1.392   .     A
C790   C792    1.463   .     S
C790   C806    1.403   .     A
C791   O857    1.375   .     S
C791   C797    1.400   .     A
C791   C1027   1.380   .     S
C792   O826    1.295   .     A
C792   O825    1.297   .     A
C793   C833    1.478   .     S
C793   C794    1.415   .     A
C793   C1259   1.380   1_545 S
C794   C795    1.401   .     A
C794   C802    1.442   .     S
C795   H810    1.080   .     S
C795   C1264   1.378   1_545 S
C796   C797    1.402   .     A
C796   C844    1.471   .     S
C796   C1029   1.378   .     S
C798   O855    1.376   .     S
C798   N822    1.370   .     A
C798   C877    1.428   .     S
C799   H811    1.081   .     S
C799   N821    1.365   .     A
C800   N821    1.366   .     A
C800   H812    1.081   .     S
C801   H813    1.081   .     S
C801   N822    1.369   .     A
C801   C878    1.417   .     S
C802   O828    1.287   .     A
C802   O827    1.296   .     A
C803   O829    1.294   .     A
C803   O830    1.295   .     A
C803   C805    1.450   .     S
C806   C807    1.389   .     A
C806   H817    1.083   .     S
C807   C106    1.392   1_556 S
C807   H117    1.083   1_556 S
C808   H818    1.078   .     S
H815   C102    1.084   1_556 S
N821   Zn831   2.018   .     S
N822   Zn832   2.018   .     S
O823   Zn831   2.000   .     S
O824   Zn832   1.990   .     S
O825   Zn831   1.970   .     S
O826   Zn832   1.920   .     S
O827   Zn831   1.990   .     S
O828   Zn832   2.000   .     S
O829   Zn831   1.920   .     S
O830   Zn832   1.970   .     S
C833   C834    1.404   .     A
C833   C838    1.402   .     A
C834   H839    1.083   .     S
C834   C913    1.398   .     S
C835   C836    1.398   .     A
C835   H840    1.082   .     S
C836   H841    1.081   .     S
C837   H842    1.080   .     S
C837   C838    1.396   .     A
C837   C914    1.395   .     S
C838   H843    1.083   .     S
C844   C849    1.400   .     A
C844   C845    1.404   .     A
C845   H850    1.083   .     S
C845   C846    1.395   .     A
C846   H851    1.081   .     S
C846   C847    1.395   .     A
C847   C848    1.400   .     A
C848   C849    1.394   .     A
C849   H854    1.083   .     S
H852   C925    1.080   .     S
H853   C926    1.081   .     S
O855   H934    0.992   .     S
O857   H858    0.992   .     S
C859   O901    1.292   .     A
C859   O902    1.294   .     A
C859   C875    1.450   .     S
C860   C861    1.408   .     A
C860   C160    1.416   1_556 S
C860   C184    1.418   1_556 S
C861   C865    1.415   .     A
C861   C868    1.414   .     A
C862   C866    1.388   .     A
C863   C864    1.388   .     A
C863   C160    1.419   1_556 S
C863   C180    1.404   1_556 S
C864   H892    1.080   .     S
C864   C865    1.386   .     A
C865   H898    1.080   .     S
C866   H894    1.078   .     S
C866   C883    1.390   .     A
C867   C883    1.399   .     A
C867   H887    1.081   .     S
C867   C882    1.392   .     A
C868   C870    1.463   .     S
C868   C884    1.403   .     A
C869   O935    1.375   .     S
C869   C875    1.400   .     A
C869   C1105   1.380   .     S
C870   O904    1.295   .     A
C870   O903    1.297   .     A
C871   C911    1.478   .     S
C871   C872    1.415   .     A
C871   C1337   1.380   1_545 S
C872   C873    1.401   .     A
C872   C880    1.442   .     S
C873   H888    1.080   .     S
C873   C1342   1.378   1_545 S
C874   C875    1.402   .     A
C874   C922    1.471   .     S
C874   C1107   1.378   .     S
C876   O933    1.376   .     S
C876   N900    1.370   .     A
C876   C721    1.428   1_655 S
C877   H889    1.081   .     S
C877   N899    1.365   .     A
C878   N899    1.366   .     A
C878   H890    1.081   .     S
C879   H891    1.081   .     S
C879   N900    1.369   .     A
C879   C722    1.417   1_655 S
C880   O906    1.287   .     A
C880   O905    1.296   .     A
C881   O907    1.294   .     A
C881   O908    1.295   .     A
C881   C883    1.450   .     S
C884   C885    1.389   .     A
C884   H895    1.083   .     S
C885   C184    1.392   1_556 S
C885   H195    1.083   1_556 S
C886   H896    1.078   .     S
H893   C180    1.084   1_556 S
N899   Zn909   2.018   .     S
N900   Zn910   2.018   .     S
O901   Zn909   2.000   .     S
O902   Zn910   1.990   .     S
O903   Zn909   1.970   .     S
O904   Zn910   1.920   .     S
O905   Zn909   1.990   .     S
O906   Zn910   2.000   .     S
O907   Zn909   1.920   .     S
O908   Zn910   1.970   .     S
C911   C912    1.404   .     A
C911   C916    1.402   .     A
C912   H917    1.083   .     S
C912   C757    1.398   1_655 S
C913   C914    1.398   .     A
C913   H918    1.082   .     S
C914   H919    1.081   .     S
C915   H920    1.080   .     S
C915   C916    1.396   .     A
C915   C758    1.395   1_655 S
C916   H921    1.083   .     S
C922   C927    1.400   .     A
C922   C923    1.404   .     A
C923   H928    1.083   .     S
C923   C924    1.395   .     A
C924   H929    1.081   .     S
C924   C925    1.395   .     A
C925   C926    1.400   .     A
C926   C927    1.394   .     A
C927   H932    1.083   .     S
H930   C769    1.080   1_655 S
H931   C770    1.081   1_655 S
O933   H778    0.992   1_655 S
O935   H936    0.992   .     S
C937   O979    1.292   .     A
C937   O980    1.294   .     A
C937   C953    1.450   .     S
C938   C939    1.408   .     A
C938   C238    1.416   1_556 S
C938   C262    1.418   1_556 S
C939   C943    1.415   .     A
C939   C946    1.414   .     A
C940   C944    1.388   .     A
C941   C942    1.388   .     A
C941   C238    1.419   1_556 S
C941   C258    1.404   1_556 S
C942   H970    1.080   .     S
C942   C943    1.386   .     A
C943   H976    1.080   .     S
C944   H972    1.078   .     S
C944   C961    1.390   .     A
C945   C961    1.399   .     A
C945   H965    1.081   .     S
C945   C960    1.392   .     A
C946   C948    1.463   .     S
C946   C962    1.403   .     A
C947   O1013   1.375   .     S
C947   C953    1.400   .     A
C947   C1183   1.380   .     S
C948   O982    1.295   .     A
C948   O981    1.297   .     A
C949   C989    1.478   .     S
C949   C950    1.415   .     A
C950   C951    1.401   .     A
C950   C958    1.442   .     S
C951   H966    1.080   .     S
C952   C953    1.402   .     A
C952   C1000   1.471   .     S
C952   C1185   1.378   .     S
C954   O1011   1.376   .     S
C954   N978    1.370   .     A
C954   C1033   1.428   .     S
C955   H967    1.081   .     S
C955   N977    1.365   .     A
C955   C1110   1.428   1_455 S
C956   N977    1.366   .     A
C956   H968    1.081   .     S
C956   C1113   1.417   1_455 S
C957   H969    1.081   .     S
C957   N978    1.369   .     A
C957   C1034   1.417   .     S
C958   O984    1.287   .     A
C958   O983    1.296   .     A
C959   O985    1.294   .     A
C959   O986    1.295   .     A
C959   C961    1.450   .     S
C962   C963    1.389   .     A
C962   H973    1.083   .     S
C963   C262    1.392   1_556 S
C963   H273    1.083   1_556 S
C964   H974    1.078   .     S
H971   C258    1.084   1_556 S
N977   Zn987   2.018   .     S
N978   Zn988   2.018   .     S
O979   Zn987   2.000   .     S
O980   Zn988   1.990   .     S
O981   Zn987   1.970   .     S
O982   Zn988   1.920   .     S
O983   Zn987   1.990   .     S
O984   Zn988   2.000   .     S
O985   Zn987   1.920   .     S
O986   Zn988   1.970   .     S
C989   C990    1.404   .     A
C989   C994    1.402   .     A
C990   H995    1.083   .     S
C990   C1069   1.398   .     S
C991   C992    1.398   .     A
C991   H996    1.082   .     S
C991   C1146   1.398   1_455 S
C992   H997    1.081   .     S
C992   C1149   1.395   1_455 S
C993   H998    1.080   .     S
C993   C994    1.396   .     A
C993   C1070   1.395   .     S
C994   H999    1.083   .     S
C1000  C1005   1.400   .     A
C1000  C1001   1.404   .     A
C1001  H1006   1.083   .     S
C1001  C1002   1.395   .     A
C1002  H1007   1.081   .     S
C1002  C1003   1.395   .     A
C1003  C1004   1.400   .     A
C1003  H1164   1.080   1_455 S
C1004  C1005   1.394   .     A
C1004  H1165   1.081   1_455 S
C1005  H1010   1.083   .     S
H1008  C1081   1.080   .     S
H1009  C1082   1.081   .     S
O1011  H1090   0.992   .     S
H1012  O1167   0.992   1_455 S
O1013  H1014   0.992   .     S
C1015  O1057   1.292   .     A
C1015  O1058   1.294   .     A
C1015  C1031   1.450   .     S
C1016  C1017   1.408   .     A
C1016  C316    1.416   1_556 S
C1016  C340    1.418   1_556 S
C1017  C1021   1.415   .     A
C1017  C1024   1.414   .     A
C1018  C1022   1.388   .     A
C1019  C1020   1.388   .     A
C1019  C316    1.419   1_556 S
C1019  C336    1.404   1_556 S
C1020  H1048   1.080   .     S
C1020  C1021   1.386   .     A
C1021  H1054   1.080   .     S
C1022  H1050   1.078   .     S
C1022  C1039   1.390   .     A
C1023  C1039   1.399   .     A
C1023  H1043   1.081   .     S
C1023  C1038   1.392   .     A
C1024  C1026   1.463   .     S
C1024  C1040   1.403   .     A
C1025  O1091   1.375   .     S
C1025  C1031   1.400   .     A
C1025  C1261   1.380   .     S
C1026  O1060   1.295   .     A
C1026  O1059   1.297   .     A
C1027  C1067   1.478   .     S
C1027  C1028   1.415   .     A
C1028  C1029   1.401   .     A
C1028  C1036   1.442   .     S
C1029  H1044   1.080   .     S
C1030  C1031   1.402   .     A
C1030  C1078   1.471   .     S
C1030  C1263   1.378   .     S
C1032  O1089   1.376   .     S
C1032  N1056   1.370   .     A
C1032  C1111   1.428   .     S
C1033  H1045   1.081   .     S
C1033  N1055   1.365   .     A
C1034  N1055   1.366   .     A
C1034  H1046   1.081   .     S
C1035  H1047   1.081   .     S
C1035  N1056   1.369   .     A
C1035  C1112   1.417   .     S
C1036  O1062   1.287   .     A
C1036  O1061   1.296   .     A
C1037  O1063   1.294   .     A
C1037  O1064   1.295   .     A
C1037  C1039   1.450   .     S
C1040  C1041   1.389   .     A
C1040  H1051   1.083   .     S
C1041  C340    1.392   1_556 S
C1041  H351    1.083   1_556 S
C1042  H1052   1.078   .     S
H1049  C336    1.084   1_556 S
N1055  Zn1065  2.018   .     S
N1056  Zn1066  2.018   .     S
O1057  Zn1065  2.000   .     S
O1058  Zn1066  1.990   .     S
O1059  Zn1065  1.970   .     S
O1060  Zn1066  1.920   .     S
O1061  Zn1065  1.990   .     S
O1062  Zn1066  2.000   .     S
O1063  Zn1065  1.920   .     S
O1064  Zn1066  1.970   .     S
C1067  C1068   1.404   .     A
C1067  C1072   1.402   .     A
C1068  H1073   1.083   .     S
C1068  C1147   1.398   .     S
C1069  C1070   1.398   .     A
C1069  H1074   1.082   .     S
C1070  H1075   1.081   .     S
C1071  H1076   1.080   .     S
C1071  C1072   1.396   .     A
C1071  C1148   1.395   .     S
C1072  H1077   1.083   .     S
C1078  C1083   1.400   .     A
C1078  C1079   1.404   .     A
C1079  H1084   1.083   .     S
C1079  C1080   1.395   .     A
C1080  H1085   1.081   .     S
C1080  C1081   1.395   .     A
C1081  C1082   1.400   .     A
C1082  C1083   1.394   .     A
C1083  H1088   1.083   .     S
H1086  C1159   1.080   .     S
H1087  C1160   1.081   .     S
O1089  H1168   0.992   .     S
O1091  H1092   0.992   .     S
C1093  O1135   1.292   .     A
C1093  O1136   1.294   .     A
C1093  C1109   1.450   .     S
C1094  C1095   1.408   .     A
C1094  C394    1.416   1_556 S
C1094  C418    1.418   1_556 S
C1095  C1099   1.415   .     A
C1095  C1102   1.414   .     A
C1096  C1100   1.388   .     A
C1097  C1098   1.388   .     A
C1097  C394    1.419   1_556 S
C1097  C414    1.404   1_556 S
C1098  H1126   1.080   .     S
C1098  C1099   1.386   .     A
C1099  H1132   1.080   .     S
C1100  H1128   1.078   .     S
C1100  C1117   1.390   .     A
C1101  C1117   1.399   .     A
C1101  H1121   1.081   .     S
C1101  C1116   1.392   .     A
C1102  C1104   1.463   .     S
C1102  C1118   1.403   .     A
C1103  O1169   1.375   .     S
C1103  C1109   1.400   .     A
C1103  C1339   1.380   .     S
C1104  O1138   1.295   .     A
C1104  O1137   1.297   .     A
C1105  C1145   1.478   .     S
C1105  C1106   1.415   .     A
C1106  C1107   1.401   .     A
C1106  C1114   1.442   .     S
C1107  H1122   1.080   .     S
C1108  C1109   1.402   .     A
C1108  C1156   1.471   .     S
C1108  C1341   1.378   .     S
C1110  O1167   1.376   .     S
C1110  N1134   1.370   .     A
C1110  C955    1.428   1_655 S
C1111  H1123   1.081   .     S
C1111  N1133   1.365   .     A
C1112  N1133   1.366   .     A
C1112  H1124   1.081   .     S
C1113  H1125   1.081   .     S
C1113  N1134   1.369   .     A
C1113  C956    1.417   1_655 S
C1114  O1140   1.287   .     A
C1114  O1139   1.296   .     A
C1115  O1141   1.294   .     A
C1115  O1142   1.295   .     A
C1115  C1117   1.450   .     S
C1118  C1119   1.389   .     A
C1118  H1129   1.083   .     S
C1119  C418    1.392   1_556 S
C1119  H429    1.083   1_556 S
C1120  H1130   1.078   .     S
H1127  C414    1.084   1_556 S
N1133  Zn1143  2.018   .     S
N1134  Zn1144  2.018   .     S
O1135  Zn1143  2.000   .     S
O1136  Zn1144  1.990   .     S
O1137  Zn1143  1.970   .     S
O1138  Zn1144  1.920   .     S
O1139  Zn1143  1.990   .     S
O1140  Zn1144  2.000   .     S
O1141  Zn1143  1.920   .     S
O1142  Zn1144  1.970   .     S
C1145  C1146   1.404   .     A
C1145  C1150   1.402   .     A
C1146  H1151   1.083   .     S
C1146  C991    1.398   1_655 S
C1147  C1148   1.398   .     A
C1147  H1152   1.082   .     S
C1148  H1153   1.081   .     S
C1149  H1154   1.080   .     S
C1149  C1150   1.396   .     A
C1149  C992    1.395   1_655 S
C1150  H1155   1.083   .     S
C1156  C1161   1.400   .     A
C1156  C1157   1.404   .     A
C1157  H1162   1.083   .     S
C1157  C1158   1.395   .     A
C1158  H1163   1.081   .     S
C1158  C1159   1.395   .     A
C1159  C1160   1.400   .     A
C1160  C1161   1.394   .     A
C1161  H1166   1.083   .     S
H1164  C1003   1.080   1_655 S
H1165  C1004   1.081   1_655 S
O1167  H1012   0.992   1_655 S
O1169  H1170   0.992   .     S
C1171  O1213   1.292   .     A
C1171  O1214   1.294   .     A
C1171  C1187   1.450   .     S
C1172  C1173   1.408   .     A
C1172  C472    1.416   1_556 S
C1172  C496    1.418   1_556 S
C1173  C1177   1.415   .     A
C1173  C1180   1.414   .     A
C1174  C1178   1.388   .     A
C1175  C1176   1.388   .     A
C1175  C472    1.419   1_556 S
C1175  C492    1.404   1_556 S
C1176  H1204   1.080   .     S
C1176  C1177   1.386   .     A
C1177  H1210   1.080   .     S
C1178  H1206   1.078   .     S
C1178  C1195   1.390   .     A
C1179  C1195   1.399   .     A
C1179  H1199   1.081   .     S
C1179  C1194   1.392   .     A
C1180  C1182   1.463   .     S
C1180  C1196   1.403   .     A
C1181  O1247   1.375   .     S
C1181  C1187   1.400   .     A
C1181  C715    1.380   1_565 S
C1182  O1216   1.295   .     A
C1182  O1215   1.297   .     A
C1183  C1223   1.478   .     S
C1183  C1184   1.415   .     A
C1184  C1185   1.401   .     A
C1184  C1192   1.442   .     S
C1185  H1200   1.080   .     S
C1186  C1187   1.402   .     A
C1186  C1234   1.471   .     S
C1186  C717    1.378   1_565 S
C1188  O1245   1.376   .     S
C1188  N1212   1.370   .     A
C1188  C1267   1.428   .     S
C1189  H1201   1.081   .     S
C1189  N1211   1.365   .     A
C1189  C1344   1.428   1_455 S
C1190  N1211   1.366   .     A
C1190  H1202   1.081   .     S
C1190  C1347   1.417   1_455 S
C1191  H1203   1.081   .     S
C1191  N1212   1.369   .     A
C1191  C1268   1.417   .     S
C1192  O1218   1.287   .     A
C1192  O1217   1.296   .     A
C1193  O1219   1.294   .     A
C1193  O1220   1.295   .     A
C1193  C1195   1.450   .     S
C1196  C1197   1.389   .     A
C1196  H1207   1.083   .     S
C1197  C496    1.392   1_556 S
C1197  H507    1.083   1_556 S
C1198  H1208   1.078   .     S
H1205  C492    1.084   1_556 S
N1211  Zn1221  2.018   .     S
N1212  Zn1222  2.018   .     S
O1213  Zn1221  2.000   .     S
O1214  Zn1222  1.990   .     S
O1215  Zn1221  1.970   .     S
O1216  Zn1222  1.920   .     S
O1217  Zn1221  1.990   .     S
O1218  Zn1222  2.000   .     S
O1219  Zn1221  1.920   .     S
O1220  Zn1222  1.970   .     S
C1223  C1224   1.404   .     A
C1223  C1228   1.402   .     A
C1224  H1229   1.083   .     S
C1224  C1303   1.398   .     S
C1225  C1226   1.398   .     A
C1225  H1230   1.082   .     S
C1225  C1380   1.398   1_455 S
C1226  H1231   1.081   .     S
C1226  C1383   1.395   1_455 S
C1227  H1232   1.080   .     S
C1227  C1228   1.396   .     A
C1227  C1304   1.395   .     S
C1228  H1233   1.083   .     S
C1234  C1239   1.400   .     A
C1234  C1235   1.404   .     A
C1235  H1240   1.083   .     S
C1235  C1236   1.395   .     A
C1236  H1241   1.081   .     S
C1236  C1237   1.395   .     A
C1237  C1238   1.400   .     A
C1237  H1398   1.080   1_455 S
C1238  C1239   1.394   .     A
C1238  H1399   1.081   1_455 S
C1239  H1244   1.083   .     S
H1242  C1315   1.080   .     S
H1243  C1316   1.081   .     S
O1245  H1324   0.992   .     S
H1246  O1401   0.992   1_455 S
O1247  H1248   0.992   .     S
C1249  O1291   1.292   .     A
C1249  O1292   1.294   .     A
C1249  C1265   1.450   .     S
C1250  C1251   1.408   .     A
C1250  C550    1.416   1_556 S
C1250  C574    1.418   1_556 S
C1251  C1255   1.415   .     A
C1251  C1258   1.414   .     A
C1252  C1256   1.388   .     A
C1253  C1254   1.388   .     A
C1253  C550    1.419   1_556 S
C1253  C570    1.404   1_556 S
C1254  H1282   1.080   .     S
C1254  C1255   1.386   .     A
C1255  H1288   1.080   .     S
C1256  H1284   1.078   .     S
C1256  C1273   1.390   .     A
C1257  C1273   1.399   .     A
C1257  H1277   1.081   .     S
C1257  C1272   1.392   .     A
C1258  C1260   1.463   .     S
C1258  C1274   1.403   .     A
C1259  O1325   1.375   .     S
C1259  C1265   1.400   .     A
C1259  C793    1.380   1_565 S
C1260  O1294   1.295   .     A
C1260  O1293   1.297   .     A
C1261  C1301   1.478   .     S
C1261  C1262   1.415   .     A
C1262  C1263   1.401   .     A
C1262  C1270   1.442   .     S
C1263  H1278   1.080   .     S
C1264  C1265   1.402   .     A
C1264  C1312   1.471   .     S
C1264  C795    1.378   1_565 S
C1266  O1323   1.376   .     S
C1266  N1290   1.370   .     A
C1266  C1345   1.428   .     S
C1267  H1279   1.081   .     S
C1267  N1289   1.365   .     A
C1268  N1289   1.366   .     A
C1268  H1280   1.081   .     S
C1269  H1281   1.081   .     S
C1269  N1290   1.369   .     A
C1269  C1346   1.417   .     S
C1270  O1296   1.287   .     A
C1270  O1295   1.296   .     A
C1271  O1297   1.294   .     A
C1271  O1298   1.295   .     A
C1271  C1273   1.450   .     S
C1274  C1275   1.389   .     A
C1274  H1285   1.083   .     S
C1275  C574    1.392   1_556 S
C1275  H585    1.083   1_556 S
C1276  H1286   1.078   .     S
H1283  C570    1.084   1_556 S
N1289  Zn1299  2.018   .     S
N1290  Zn1300  2.018   .     S
O1291  Zn1299  2.000   .     S
O1292  Zn1300  1.990   .     S
O1293  Zn1299  1.970   .     S
O1294  Zn1300  1.920   .     S
O1295  Zn1299  1.990   .     S
O1296  Zn1300  2.000   .     S
O1297  Zn1299  1.920   .     S
O1298  Zn1300  1.970   .     S
C1301  C1302   1.404   .     A
C1301  C1306   1.402   .     A
C1302  H1307   1.083   .     S
C1302  C1381   1.398   .     S
C1303  C1304   1.398   .     A
C1303  H1308   1.082   .     S
C1304  H1309   1.081   .     S
C1305  H1310   1.080   .     S
C1305  C1306   1.396   .     A
C1305  C1382   1.395   .     S
C1306  H1311   1.083   .     S
C1312  C1317   1.400   .     A
C1312  C1313   1.404   .     A
C1313  H1318   1.083   .     S
C1313  C1314   1.395   .     A
C1314  H1319   1.081   .     S
C1314  C1315   1.395   .     A
C1315  C1316   1.400   .     A
C1316  C1317   1.394   .     A
C1317  H1322   1.083   .     S
H1320  C1393   1.080   .     S
H1321  C1394   1.081   .     S
O1323  H1402   0.992   .     S
O1325  H1326   0.992   .     S
C1327  O1369   1.292   .     A
C1327  O1370   1.294   .     A
C1327  C1343   1.450   .     S
C1328  C1329   1.408   .     A
C1328  C628    1.416   1_556 S
C1328  C652    1.418   1_556 S
C1329  C1333   1.415   .     A
C1329  C1336   1.414   .     A
C1330  C1334   1.388   .     A
C1331  C1332   1.388   .     A
C1331  C628    1.419   1_556 S
C1331  C648    1.404   1_556 S
C1332  H1360   1.080   .     S
C1332  C1333   1.386   .     A
C1333  H1366   1.080   .     S
C1334  H1362   1.078   .     S
C1334  C1351   1.390   .     A
C1335  C1351   1.399   .     A
C1335  H1355   1.081   .     S
C1335  C1350   1.392   .     A
C1336  C1338   1.463   .     S
C1336  C1352   1.403   .     A
C1337  O1403   1.375   .     S
C1337  C1343   1.400   .     A
C1337  C871    1.380   1_565 S
C1338  O1372   1.295   .     A
C1338  O1371   1.297   .     A
C1339  C1379   1.478   .     S
C1339  C1340   1.415   .     A
C1340  C1341   1.401   .     A
C1340  C1348   1.442   .     S
C1341  H1356   1.080   .     S
C1342  C1343   1.402   .     A
C1342  C1390   1.471   .     S
C1342  C873    1.378   1_565 S
C1344  O1401   1.376   .     S
C1344  N1368   1.370   .     A
C1344  C1189   1.428   1_655 S
C1345  H1357   1.081   .     S
C1345  N1367   1.365   .     A
C1346  N1367   1.366   .     A
C1346  H1358   1.081   .     S
C1347  H1359   1.081   .     S
C1347  N1368   1.369   .     A
C1347  C1190   1.417   1_655 S
C1348  O1374   1.287   .     A
C1348  O1373   1.296   .     A
C1349  O1375   1.294   .     A
C1349  O1376   1.295   .     A
C1349  C1351   1.450   .     S
C1352  C1353   1.389   .     A
C1352  H1363   1.083   .     S
C1353  C652    1.392   1_556 S
C1353  H663    1.083   1_556 S
C1354  H1364   1.078   .     S
H1361  C648    1.084   1_556 S
N1367  Zn1377  2.018   .     S
N1368  Zn1378  2.018   .     S
O1369  Zn1377  2.000   .     S
O1370  Zn1378  1.990   .     S
O1371  Zn1377  1.970   .     S
O1372  Zn1378  1.920   .     S
O1373  Zn1377  1.990   .     S
O1374  Zn1378  2.000   .     S
O1375  Zn1377  1.920   .     S
O1376  Zn1378  1.970   .     S
C1379  C1380   1.404   .     A
C1379  C1384   1.402   .     A
C1380  H1385   1.083   .     S
C1380  C1225   1.398   1_655 S
C1381  C1382   1.398   .     A
C1381  H1386   1.082   .     S
C1382  H1387   1.081   .     S
C1383  H1388   1.080   .     S
C1383  C1384   1.396   .     A
C1383  C1226   1.395   1_655 S
C1384  H1389   1.083   .     S
C1390  C1395   1.400   .     A
C1390  C1391   1.404   .     A
C1391  H1396   1.083   .     S
C1391  C1392   1.395   .     A
C1392  H1397   1.081   .     S
C1392  C1393   1.395   .     A
C1393  C1394   1.400   .     A
C1394  C1395   1.394   .     A
C1395  H1400   1.083   .     S
H1398  C1237   1.080   1_655 S
H1399  C1238   1.081   1_655 S
O1401  H1246   0.992   1_655 S
O1403  H1404   0.992   .     S
