data_str_m3_o2_o10_pcu_sym.96
_audit_creation_date              2020-01-03
_audit_creation_method            'Materials Studio'
_symmetry_space_group_name_H-M    'P1'
_symmetry_Int_Tables_number       1
_symmetry_cell_setting            triclinic
loop_
_symmetry_equiv_pos_as_xyz
  x,y,z
_cell_length_a                    25.7460
_cell_length_b                    29.5593
_cell_length_c                    28.3099
_cell_angle_alpha                 91.1908
_cell_angle_beta                  97.5037
_cell_angle_gamma                 89.5998
loop_
_atom_site_label
_atom_site_type_symbol
_atom_site_fract_x
_atom_site_fract_y
_atom_site_fract_z
_atom_site_U_iso_or_equiv
_atom_site_adp_type
_atom_site_occupancy
C1     C     0.16486   0.16343   0.24930   0.00000  Uiso   1.00
C2     C     0.16900   0.20918   0.44709   0.00000  Uiso   1.00
C3     C     0.16753   0.25001   0.02694   0.00000  Uiso   1.00
C4     C     0.16790   0.25015   0.47358   0.00000  Uiso   1.00
C5     C     0.06727   0.24898   0.23811   0.00000  Uiso   1.00
C6     C     0.26605   0.25143   0.26196   0.00000  Uiso   1.00
C7     C     0.01355   0.23975   0.23427   0.00000  Uiso   1.00
C8     C     0.31985   0.26077   0.26611   0.00000  Uiso   1.00
C9     C     0.11326   0.05222   0.28189   0.00000  Uiso   1.00
C10    C     0.10829   0.44731   0.21172   0.00000  Uiso   1.00
C11    C     0.12712   0.09761   0.28316   0.00000  Uiso   1.00
C12    C     0.16611   0.33658   0.25049   0.00000  Uiso   1.00
C13    C     0.12299   0.40221   0.21199   0.00000  Uiso   1.00
C14    C     0.15265   0.11556   0.24694   0.00000  Uiso   1.00
C15    C     0.15596   0.38473   0.25075   0.00000  Uiso   1.00
C16    C     0.16246   0.08837   0.20769   0.00000  Uiso   1.00
C17    C     0.17431   0.41216   0.29067   0.00000  Uiso   1.00
C18    C     0.15113   0.04248   0.20784   0.00000  Uiso   1.00
C19    C     0.16144   0.45826   0.28879   0.00000  Uiso   1.00
C20    C     0.12772   0.02437   0.24505   0.00000  Uiso   1.00
C21    C     0.12921   0.47567   0.24971   0.00000  Uiso   1.00
C22    C     0.33027   0.19625   0.20937   0.00000  Uiso   1.00
C23    C     0.12693   0.22801   0.04648   0.00000  Uiso   1.00
C24    C     0.32817   0.19171   0.15971   0.00000  Uiso   1.00
C25    C     0.31720   0.14965   0.13721   0.00000  Uiso   1.00
C26    C     0.30867   0.11197   0.16409   0.00000  Uiso   1.00
C27    C     0.31024   0.11628   0.21343   0.00000  Uiso   1.00
C28    C     0.32111   0.15820   0.23610   0.00000  Uiso   1.00
C29    C     0.00456   0.30204   0.29487   0.00000  Uiso   1.00
C30    C     0.02085   0.34062   0.27258   0.00000  Uiso   1.00
C31    C     0.03518   0.37987   0.29940   0.00000  Uiso   1.00
C32    C     0.03314   0.38103   0.34841   0.00000  Uiso   1.00
C33    C     0.01623   0.34313   0.37071   0.00000  Uiso   1.00
C34    C     0.16628   0.29107   0.44856   0.00000  Uiso   1.00
C35    C     0.00235   0.30366   0.34422   0.00000  Uiso   1.00
C36    C     0.03989   0.04639   0.31836   0.00000  Uiso   1.00
C37    C     0.01954   0.03105   0.36344   0.00000  Uiso   1.00
C38    C     0.02657   0.47148   0.18253   0.00000  Uiso   1.00
C39    C     0.32406   0.48035   0.13654   0.00000  Uiso   1.00
C40    C     0.15734   0.10596   0.12920   0.00000  Uiso   1.00
C41    C     0.18869   0.12256   0.09109   0.00000  Uiso   1.00
C42    C     0.20551   0.41344   0.37280   0.00000  Uiso   1.00
C43    C     0.25150   0.44497   0.38836   0.00000  Uiso   1.00
C44    C     0.05591   0.17736   0.03394   0.00000  Uiso   1.00
C45    C     0.12738   0.22912   0.09698   0.00000  Uiso   1.00
C46    C     0.02538   0.15005   0.49365   0.00000  Uiso   1.00
C47    C     0.11972   0.35416   0.46432   0.00000  Uiso   1.00
C48    C     0.11904   0.39474   0.49810   0.00000  Uiso   1.00
C49    C     0.28696   0.26916   0.03125   0.00000  Uiso   1.00
C50    C     0.31684   0.29229   0.49563   0.00000  Uiso   1.00
C51    C     0.21753   0.14606   0.46982   0.00000  Uiso   1.00
C52    C     0.20876   0.09561   0.46061   0.00000  Uiso   1.00
C53    C     0.16591   0.28992   0.39853   0.00000  Uiso   1.00
C54    C     0.20580   0.27142   0.10771   0.00000  Uiso   1.00
C55    C     0.16742   0.21015   0.39711   0.00000  Uiso   1.00
C56    C     0.20732   0.27187   0.05824   0.00000  Uiso   1.00
H57    H     0.11852   0.11861   0.31303   0.00000  Uiso   1.00
H58    H     0.31504   0.14613   0.09893   0.00000  Uiso   1.00
H59    H     0.30008   0.07953   0.14660   0.00000  Uiso   1.00
H60    H     0.30299   0.08714   0.23405   0.00000  Uiso   1.00
H61    H     0.32333   0.16089   0.27453   0.00000  Uiso   1.00
H62    H     0.02187   0.34045   0.23445   0.00000  Uiso   1.00
H63    H     0.04739   0.40957   0.28221   0.00000  Uiso   1.00
H64    H     0.04433   0.41141   0.36910   0.00000  Uiso   1.00
H65    H     0.01362   0.34440   0.40851   0.00000  Uiso   1.00
H66    H     0.32303   0.27449   0.36215   0.00000  Uiso   1.00
H67    H     0.01625   0.02970   0.28721   0.00000  Uiso   1.00
H68    H     0.10771   0.38060   0.18205   0.00000  Uiso   1.00
H69    H     0.03439   0.08375   0.31633   0.00000  Uiso   1.00
H70    H     0.04253   0.04717   0.39522   0.00000  Uiso   1.00
H71    H     0.31109   0.04101   0.36255   0.00000  Uiso   1.00
H72    H     0.02297   0.49372   0.36617   0.00000  Uiso   1.00
H73    H     0.02536   0.00165   0.20649   0.00000  Uiso   1.00
H74    H     0.01112   0.44151   0.19947   0.00000  Uiso   1.00
H75    H     0.32247   0.44989   0.11275   0.00000  Uiso   1.00
H76    H     0.28389   0.48838   0.14462   0.00000  Uiso   1.00
H77    H     0.00563   0.00931   0.11794   0.00000  Uiso   1.00
H78    H     0.12375   0.12941   0.13169   0.00000  Uiso   1.00
H79    H     0.16413   0.02037   0.18064   0.00000  Uiso   1.00
H80    H     0.14213   0.07172   0.11786   0.00000  Uiso   1.00
H81    H     0.22114   0.09859   0.08664   0.00000  Uiso   1.00
H82    H     0.16316   0.12464   0.05656   0.00000  Uiso   1.00
H83    H     0.20510   0.15656   0.10112   0.00000  Uiso   1.00
H84    H     0.20814   0.38594   0.39900   0.00000  Uiso   1.00
H85    H     0.16734   0.43067   0.37561   0.00000  Uiso   1.00
H86    H     0.25693   0.46919   0.36009   0.00000  Uiso   1.00
H87    H     0.24453   0.46416   0.42110   0.00000  Uiso   1.00
H88    H     0.28803   0.42492   0.39636   0.00000  Uiso   1.00
H89    H     0.02769   0.19507   0.05436   0.00000  Uiso   1.00
H90    H     0.17883   0.48154   0.31618   0.00000  Uiso   1.00
H91    H     0.08002   0.15325   0.05707   0.00000  Uiso   1.00
H92    H     0.00030   0.12497   0.00846   0.00000  Uiso   1.00
H93    H     0.00040   0.17298   0.46969   0.00000  Uiso   1.00
H94    H     0.05287   0.13174   0.47277   0.00000  Uiso   1.00
H95    H     0.08697   0.33140   0.47028   0.00000  Uiso   1.00
H96    H     0.11372   0.36669   0.42728   0.00000  Uiso   1.00
H97    H     0.15093   0.41848   0.49278   0.00000  Uiso   1.00
H98    H     0.08085   0.41266   0.49102   0.00000  Uiso   1.00
H99    H     0.12459   0.38340   0.03559   0.00000  Uiso   1.00
H100   H     0.27390   0.23550   0.01567   0.00000  Uiso   1.00
H101   H     0.09649   0.21374   0.11337   0.00000  Uiso   1.00
H102   H     0.31379   0.26413   0.06480   0.00000  Uiso   1.00
H103   H     0.33265   0.32515   0.01066   0.00000  Uiso   1.00
H104   H     0.01647   0.27056   0.48720   0.00000  Uiso   1.00
H105   H     0.29031   0.29837   0.46214   0.00000  Uiso   1.00
H106   H     0.24047   0.15121   0.00554   0.00000  Uiso   1.00
H107   H     0.24166   0.15831   0.44269   0.00000  Uiso   1.00
H108   H     0.18662   0.08982   0.42463   0.00000  Uiso   1.00
H109   H     0.24710   0.07783   0.46241   0.00000  Uiso   1.00
H110   H     0.18626   0.08139   0.48767   0.00000  Uiso   1.00
H111   H     0.16478   0.32103   0.37933   0.00000  Uiso   1.00
H112   H     0.23592   0.28874   0.13146   0.00000  Uiso   1.00
H113   H     0.16712   0.17857   0.37719   0.00000  Uiso   1.00
H114   H     0.00199   0.22059   0.13864   0.00000  Uiso   1.00
N115   N     0.16667   0.24999   0.12624   0.00000  Uiso   1.00
N116   N     0.16667   0.25001   0.37377   0.00000  Uiso   1.00
O117   O     0.16667   0.18453   0.28974   0.00000  Uiso   1.00
O118   O     0.07801   0.46393   0.17183   0.00000  Uiso   1.00
O119   O     0.19015   0.10510   0.17320   0.00000  Uiso   1.00
O120   O     0.20957   0.39389   0.32718   0.00000  Uiso   1.00
O121   O     0.08681   0.20930   0.01420   0.00000  Uiso   1.00
O122   O     0.16847   0.33194   0.47344   0.00000  Uiso   1.00
O123   O     0.24499   0.29739   0.04071   0.00000  Uiso   1.00
O124   O     0.16851   0.16808   0.46952   0.00000  Uiso   1.00
O125   O     0.16666   0.31546   0.21026   0.00000  Uiso   1.00
O126   O     0.16667   0.18453   0.21026   0.00000  Uiso   1.00
O127   O     0.16666   0.31547   0.28974   0.00000  Uiso   1.00
O128   O     0.09058   0.25000   0.28045   0.00000  Uiso   1.00
O129   O     0.24275   0.25000   0.21956   0.00000  Uiso   1.00
O130   O     0.09058   0.24999   0.20097   0.00000  Uiso   1.00
O131   O     0.24275   0.25000   0.29904   0.00000  Uiso   1.00
O132   O     0.09306   0.03373   0.32010   0.00000  Uiso   1.00
Zn133  Zn    0.16667   0.25000   0.30307   0.00000  Uiso   1.00
Zn134  Zn    0.16667   0.24999   0.19693   0.00000  Uiso   1.00
C135   C     0.49819   0.16343   0.24930   0.00000  Uiso   1.00
C136   C     0.50234   0.20918   0.44709   0.00000  Uiso   1.00
C137   C     0.50086   0.25001   0.02694   0.00000  Uiso   1.00
C138   C     0.50124   0.25015   0.47358   0.00000  Uiso   1.00
C139   C     0.40060   0.24898   0.23811   0.00000  Uiso   1.00
C140   C     0.59939   0.25143   0.26196   0.00000  Uiso   1.00
C141   C     0.34688   0.23975   0.23427   0.00000  Uiso   1.00
C142   C     0.65318   0.26077   0.26611   0.00000  Uiso   1.00
C143   C     0.44660   0.05222   0.28189   0.00000  Uiso   1.00
C144   C     0.44163   0.44731   0.21172   0.00000  Uiso   1.00
C145   C     0.46046   0.09761   0.28316   0.00000  Uiso   1.00
C146   C     0.49944   0.33658   0.25049   0.00000  Uiso   1.00
C147   C     0.45633   0.40221   0.21199   0.00000  Uiso   1.00
C148   C     0.48598   0.11556   0.24694   0.00000  Uiso   1.00
C149   C     0.48929   0.38473   0.25075   0.00000  Uiso   1.00
C150   C     0.49579   0.08837   0.20769   0.00000  Uiso   1.00
C151   C     0.50764   0.41216   0.29067   0.00000  Uiso   1.00
C152   C     0.48446   0.04248   0.20784   0.00000  Uiso   1.00
C153   C     0.49478   0.45826   0.28879   0.00000  Uiso   1.00
C154   C     0.46105   0.02437   0.24505   0.00000  Uiso   1.00
C155   C     0.46254   0.47567   0.24971   0.00000  Uiso   1.00
C156   C     0.66361   0.19625   0.20937   0.00000  Uiso   1.00
C157   C     0.46026   0.22801   0.04648   0.00000  Uiso   1.00
C158   C     0.66150   0.19171   0.15971   0.00000  Uiso   1.00
C159   C     0.65054   0.14965   0.13721   0.00000  Uiso   1.00
C160   C     0.64201   0.11197   0.16409   0.00000  Uiso   1.00
C161   C     0.64357   0.11628   0.21343   0.00000  Uiso   1.00
C162   C     0.65444   0.15820   0.23610   0.00000  Uiso   1.00
C163   C     0.33789   0.30204   0.29487   0.00000  Uiso   1.00
C164   C     0.35419   0.34062   0.27258   0.00000  Uiso   1.00
C165   C     0.36851   0.37987   0.29940   0.00000  Uiso   1.00
C166   C     0.36647   0.38103   0.34841   0.00000  Uiso   1.00
C167   C     0.34956   0.34313   0.37071   0.00000  Uiso   1.00
C168   C     0.49962   0.29107   0.44856   0.00000  Uiso   1.00
C169   C     0.33568   0.30366   0.34422   0.00000  Uiso   1.00
C170   C     0.37323   0.04639   0.31836   0.00000  Uiso   1.00
C171   C     0.35287   0.03105   0.36344   0.00000  Uiso   1.00
C172   C     0.35990   0.47148   0.18253   0.00000  Uiso   1.00
C173   C     0.65739   0.48035   0.13654   0.00000  Uiso   1.00
C174   C     0.49067   0.10596   0.12920   0.00000  Uiso   1.00
C175   C     0.52202   0.12256   0.09109   0.00000  Uiso   1.00
C176   C     0.53884   0.41344   0.37280   0.00000  Uiso   1.00
C177   C     0.58484   0.44497   0.38836   0.00000  Uiso   1.00
C178   C     0.38924   0.17736   0.03394   0.00000  Uiso   1.00
C179   C     0.46072   0.22912   0.09698   0.00000  Uiso   1.00
C180   C     0.35871   0.15005   0.49365   0.00000  Uiso   1.00
C181   C     0.45306   0.35416   0.46432   0.00000  Uiso   1.00
C182   C     0.45238   0.39474   0.49810   0.00000  Uiso   1.00
C183   C     0.62029   0.26916   0.03125   0.00000  Uiso   1.00
C184   C     0.65017   0.29229   0.49563   0.00000  Uiso   1.00
C185   C     0.55086   0.14606   0.46982   0.00000  Uiso   1.00
C186   C     0.54209   0.09561   0.46061   0.00000  Uiso   1.00
C187   C     0.49924   0.28992   0.39853   0.00000  Uiso   1.00
C188   C     0.53913   0.27142   0.10771   0.00000  Uiso   1.00
C189   C     0.50075   0.21015   0.39711   0.00000  Uiso   1.00
C190   C     0.54065   0.27187   0.05824   0.00000  Uiso   1.00
H191   H     0.45185   0.11861   0.31303   0.00000  Uiso   1.00
H192   H     0.64837   0.14613   0.09893   0.00000  Uiso   1.00
H193   H     0.63341   0.07953   0.14660   0.00000  Uiso   1.00
H194   H     0.63632   0.08714   0.23405   0.00000  Uiso   1.00
H195   H     0.65666   0.16089   0.27453   0.00000  Uiso   1.00
H196   H     0.35521   0.34045   0.23445   0.00000  Uiso   1.00
H197   H     0.38072   0.40957   0.28221   0.00000  Uiso   1.00
H198   H     0.37766   0.41141   0.36910   0.00000  Uiso   1.00
H199   H     0.34695   0.34440   0.40851   0.00000  Uiso   1.00
H200   H     0.65636   0.27449   0.36215   0.00000  Uiso   1.00
H201   H     0.34958   0.02970   0.28721   0.00000  Uiso   1.00
H202   H     0.44104   0.38060   0.18205   0.00000  Uiso   1.00
H203   H     0.36772   0.08375   0.31633   0.00000  Uiso   1.00
H204   H     0.37586   0.04717   0.39522   0.00000  Uiso   1.00
H205   H     0.64442   0.04101   0.36255   0.00000  Uiso   1.00
H206   H     0.35630   0.49372   0.36617   0.00000  Uiso   1.00
H207   H     0.35869   0.00165   0.20649   0.00000  Uiso   1.00
H208   H     0.34445   0.44151   0.19947   0.00000  Uiso   1.00
H209   H     0.65580   0.44989   0.11275   0.00000  Uiso   1.00
H210   H     0.61722   0.48838   0.14462   0.00000  Uiso   1.00
H211   H     0.33896   0.00931   0.11794   0.00000  Uiso   1.00
H212   H     0.45708   0.12941   0.13169   0.00000  Uiso   1.00
H213   H     0.49746   0.02037   0.18064   0.00000  Uiso   1.00
H214   H     0.47547   0.07172   0.11786   0.00000  Uiso   1.00
H215   H     0.55448   0.09859   0.08664   0.00000  Uiso   1.00
H216   H     0.49649   0.12464   0.05656   0.00000  Uiso   1.00
H217   H     0.53843   0.15656   0.10112   0.00000  Uiso   1.00
H218   H     0.54148   0.38594   0.39900   0.00000  Uiso   1.00
H219   H     0.50068   0.43067   0.37561   0.00000  Uiso   1.00
H220   H     0.59027   0.46919   0.36009   0.00000  Uiso   1.00
H221   H     0.57787   0.46416   0.42110   0.00000  Uiso   1.00
H222   H     0.62136   0.42492   0.39636   0.00000  Uiso   1.00
H223   H     0.36103   0.19507   0.05436   0.00000  Uiso   1.00
H224   H     0.51217   0.48154   0.31618   0.00000  Uiso   1.00
H225   H     0.41335   0.15325   0.05707   0.00000  Uiso   1.00
H226   H     0.33363   0.12497   0.00846   0.00000  Uiso   1.00
H227   H     0.33373   0.17298   0.46969   0.00000  Uiso   1.00
H228   H     0.38621   0.13174   0.47277   0.00000  Uiso   1.00
H229   H     0.42030   0.33140   0.47028   0.00000  Uiso   1.00
H230   H     0.44705   0.36669   0.42728   0.00000  Uiso   1.00
H231   H     0.48426   0.41848   0.49278   0.00000  Uiso   1.00
H232   H     0.41418   0.41266   0.49102   0.00000  Uiso   1.00
H233   H     0.45793   0.38340   0.03559   0.00000  Uiso   1.00
H234   H     0.60724   0.23550   0.01567   0.00000  Uiso   1.00
H235   H     0.42983   0.21374   0.11337   0.00000  Uiso   1.00
H236   H     0.64712   0.26413   0.06480   0.00000  Uiso   1.00
H237   H     0.66598   0.32515   0.01066   0.00000  Uiso   1.00
H238   H     0.34980   0.27056   0.48720   0.00000  Uiso   1.00
H239   H     0.62365   0.29837   0.46214   0.00000  Uiso   1.00
H240   H     0.57381   0.15121   0.00554   0.00000  Uiso   1.00
H241   H     0.57499   0.15831   0.44269   0.00000  Uiso   1.00
H242   H     0.51996   0.08982   0.42463   0.00000  Uiso   1.00
H243   H     0.58043   0.07783   0.46241   0.00000  Uiso   1.00
H244   H     0.51959   0.08139   0.48767   0.00000  Uiso   1.00
H245   H     0.49811   0.32103   0.37933   0.00000  Uiso   1.00
H246   H     0.56925   0.28874   0.13146   0.00000  Uiso   1.00
H247   H     0.50046   0.17857   0.37719   0.00000  Uiso   1.00
H248   H     0.33532   0.22059   0.13864   0.00000  Uiso   1.00
N249   N     0.50000   0.24999   0.12624   0.00000  Uiso   1.00
N250   N     0.50000   0.25001   0.37377   0.00000  Uiso   1.00
O251   O     0.50000   0.18453   0.28974   0.00000  Uiso   1.00
O252   O     0.41134   0.46393   0.17183   0.00000  Uiso   1.00
O253   O     0.52348   0.10510   0.17320   0.00000  Uiso   1.00
O254   O     0.54290   0.39389   0.32718   0.00000  Uiso   1.00
O255   O     0.42014   0.20930   0.01420   0.00000  Uiso   1.00
O256   O     0.50181   0.33194   0.47344   0.00000  Uiso   1.00
O257   O     0.57832   0.29739   0.04071   0.00000  Uiso   1.00
O258   O     0.50184   0.16808   0.46952   0.00000  Uiso   1.00
O259   O     0.50000   0.31546   0.21026   0.00000  Uiso   1.00
O260   O     0.50000   0.18453   0.21026   0.00000  Uiso   1.00
O261   O     0.50000   0.31547   0.28974   0.00000  Uiso   1.00
O262   O     0.42392   0.25000   0.28045   0.00000  Uiso   1.00
O263   O     0.57608   0.25000   0.21956   0.00000  Uiso   1.00
O264   O     0.42392   0.24999   0.20097   0.00000  Uiso   1.00
O265   O     0.57608   0.25000   0.29904   0.00000  Uiso   1.00
O266   O     0.42639   0.03373   0.32010   0.00000  Uiso   1.00
Zn267  Zn    0.50000   0.25000   0.30307   0.00000  Uiso   1.00
Zn268  Zn    0.50000   0.24999   0.19693   0.00000  Uiso   1.00
C269   C     0.83153   0.16343   0.24930   0.00000  Uiso   1.00
C270   C     0.83567   0.20918   0.44709   0.00000  Uiso   1.00
C271   C     0.83419   0.25001   0.02694   0.00000  Uiso   1.00
C272   C     0.83457   0.25015   0.47358   0.00000  Uiso   1.00
C273   C     0.73393   0.24898   0.23811   0.00000  Uiso   1.00
C274   C     0.93272   0.25143   0.26196   0.00000  Uiso   1.00
C275   C     0.68022   0.23975   0.23427   0.00000  Uiso   1.00
C276   C     0.98651   0.26077   0.26611   0.00000  Uiso   1.00
C277   C     0.77993   0.05222   0.28189   0.00000  Uiso   1.00
C278   C     0.77496   0.44731   0.21172   0.00000  Uiso   1.00
C279   C     0.79379   0.09761   0.28316   0.00000  Uiso   1.00
C280   C     0.83278   0.33658   0.25049   0.00000  Uiso   1.00
C281   C     0.78966   0.40221   0.21199   0.00000  Uiso   1.00
C282   C     0.81932   0.11556   0.24694   0.00000  Uiso   1.00
C283   C     0.82262   0.38473   0.25075   0.00000  Uiso   1.00
C284   C     0.82913   0.08837   0.20769   0.00000  Uiso   1.00
C285   C     0.84097   0.41216   0.29067   0.00000  Uiso   1.00
C286   C     0.81780   0.04248   0.20784   0.00000  Uiso   1.00
C287   C     0.82811   0.45826   0.28879   0.00000  Uiso   1.00
C288   C     0.79439   0.02437   0.24505   0.00000  Uiso   1.00
C289   C     0.79588   0.47567   0.24971   0.00000  Uiso   1.00
C290   C     0.99694   0.19625   0.20937   0.00000  Uiso   1.00
C291   C     0.79360   0.22801   0.04648   0.00000  Uiso   1.00
C292   C     0.99483   0.19171   0.15971   0.00000  Uiso   1.00
C293   C     0.98387   0.14965   0.13721   0.00000  Uiso   1.00
C294   C     0.97534   0.11197   0.16409   0.00000  Uiso   1.00
C295   C     0.97691   0.11628   0.21343   0.00000  Uiso   1.00
C296   C     0.98778   0.15820   0.23610   0.00000  Uiso   1.00
C297   C     0.67122   0.30204   0.29487   0.00000  Uiso   1.00
C298   C     0.68752   0.34062   0.27258   0.00000  Uiso   1.00
C299   C     0.70185   0.37987   0.29940   0.00000  Uiso   1.00
C300   C     0.69980   0.38103   0.34841   0.00000  Uiso   1.00
C301   C     0.68290   0.34313   0.37071   0.00000  Uiso   1.00
C302   C     0.83295   0.29107   0.44856   0.00000  Uiso   1.00
C303   C     0.66902   0.30366   0.34422   0.00000  Uiso   1.00
C304   C     0.70656   0.04639   0.31836   0.00000  Uiso   1.00
C305   C     0.68621   0.03105   0.36344   0.00000  Uiso   1.00
C306   C     0.69324   0.47148   0.18253   0.00000  Uiso   1.00
C307   C     0.99072   0.48035   0.13654   0.00000  Uiso   1.00
C308   C     0.82401   0.10596   0.12920   0.00000  Uiso   1.00
C309   C     0.85535   0.12256   0.09109   0.00000  Uiso   1.00
C310   C     0.87217   0.41344   0.37280   0.00000  Uiso   1.00
C311   C     0.91817   0.44497   0.38836   0.00000  Uiso   1.00
C312   C     0.72258   0.17736   0.03394   0.00000  Uiso   1.00
C313   C     0.79405   0.22912   0.09698   0.00000  Uiso   1.00
C314   C     0.69204   0.15005   0.49365   0.00000  Uiso   1.00
C315   C     0.78639   0.35416   0.46432   0.00000  Uiso   1.00
C316   C     0.78571   0.39474   0.49810   0.00000  Uiso   1.00
C317   C     0.95363   0.26916   0.03125   0.00000  Uiso   1.00
C318   C     0.98351   0.29229   0.49563   0.00000  Uiso   1.00
C319   C     0.88420   0.14606   0.46982   0.00000  Uiso   1.00
C320   C     0.87543   0.09561   0.46061   0.00000  Uiso   1.00
C321   C     0.83258   0.28992   0.39853   0.00000  Uiso   1.00
C322   C     0.87247   0.27142   0.10771   0.00000  Uiso   1.00
C323   C     0.83408   0.21015   0.39711   0.00000  Uiso   1.00
C324   C     0.87399   0.27187   0.05824   0.00000  Uiso   1.00
H325   H     0.78518   0.11861   0.31303   0.00000  Uiso   1.00
H326   H     0.98170   0.14613   0.09893   0.00000  Uiso   1.00
H327   H     0.96675   0.07953   0.14660   0.00000  Uiso   1.00
H328   H     0.96966   0.08714   0.23405   0.00000  Uiso   1.00
H329   H     0.98999   0.16089   0.27453   0.00000  Uiso   1.00
H330   H     0.68854   0.34045   0.23445   0.00000  Uiso   1.00
H331   H     0.71405   0.40957   0.28221   0.00000  Uiso   1.00
H332   H     0.71099   0.41141   0.36910   0.00000  Uiso   1.00
H333   H     0.68028   0.34440   0.40851   0.00000  Uiso   1.00
H334   H     0.98969   0.27449   0.36215   0.00000  Uiso   1.00
H335   H     0.68291   0.02970   0.28721   0.00000  Uiso   1.00
H336   H     0.77438   0.38060   0.18205   0.00000  Uiso   1.00
H337   H     0.70105   0.08375   0.31633   0.00000  Uiso   1.00
H338   H     0.70920   0.04717   0.39522   0.00000  Uiso   1.00
H339   H     0.97776   0.04101   0.36255   0.00000  Uiso   1.00
H340   H     0.68964   0.49372   0.36617   0.00000  Uiso   1.00
H341   H     0.69202   0.00165   0.20649   0.00000  Uiso   1.00
H342   H     0.67779   0.44151   0.19947   0.00000  Uiso   1.00
H343   H     0.98914   0.44989   0.11275   0.00000  Uiso   1.00
H344   H     0.95056   0.48838   0.14462   0.00000  Uiso   1.00
H345   H     0.67230   0.00931   0.11794   0.00000  Uiso   1.00
H346   H     0.79041   0.12941   0.13169   0.00000  Uiso   1.00
H347   H     0.83080   0.02037   0.18064   0.00000  Uiso   1.00
H348   H     0.80880   0.07172   0.11786   0.00000  Uiso   1.00
H349   H     0.88781   0.09859   0.08664   0.00000  Uiso   1.00
H350   H     0.82983   0.12464   0.05656   0.00000  Uiso   1.00
H351   H     0.87177   0.15656   0.10112   0.00000  Uiso   1.00
H352   H     0.87481   0.38594   0.39900   0.00000  Uiso   1.00
H353   H     0.83401   0.43067   0.37561   0.00000  Uiso   1.00
H354   H     0.92360   0.46919   0.36009   0.00000  Uiso   1.00
H355   H     0.91120   0.46416   0.42110   0.00000  Uiso   1.00
H356   H     0.95469   0.42492   0.39636   0.00000  Uiso   1.00
H357   H     0.69436   0.19507   0.05436   0.00000  Uiso   1.00
H358   H     0.84550   0.48154   0.31618   0.00000  Uiso   1.00
H359   H     0.74668   0.15325   0.05707   0.00000  Uiso   1.00
H360   H     0.66697   0.12497   0.00846   0.00000  Uiso   1.00
H361   H     0.66706   0.17298   0.46969   0.00000  Uiso   1.00
H362   H     0.71954   0.13174   0.47277   0.00000  Uiso   1.00
H363   H     0.75364   0.33140   0.47028   0.00000  Uiso   1.00
H364   H     0.78038   0.36669   0.42728   0.00000  Uiso   1.00
H365   H     0.81760   0.41848   0.49278   0.00000  Uiso   1.00
H366   H     0.74752   0.41266   0.49102   0.00000  Uiso   1.00
H367   H     0.79126   0.38340   0.03559   0.00000  Uiso   1.00
H368   H     0.94057   0.23550   0.01567   0.00000  Uiso   1.00
H369   H     0.76316   0.21374   0.11337   0.00000  Uiso   1.00
H370   H     0.98046   0.26413   0.06480   0.00000  Uiso   1.00
H371   H     0.99932   0.32515   0.01066   0.00000  Uiso   1.00
H372   H     0.68313   0.27056   0.48720   0.00000  Uiso   1.00
H373   H     0.95698   0.29837   0.46214   0.00000  Uiso   1.00
H374   H     0.90714   0.15121   0.00554   0.00000  Uiso   1.00
H375   H     0.90832   0.15831   0.44269   0.00000  Uiso   1.00
H376   H     0.85329   0.08982   0.42463   0.00000  Uiso   1.00
H377   H     0.91376   0.07783   0.46241   0.00000  Uiso   1.00
H378   H     0.85292   0.08139   0.48767   0.00000  Uiso   1.00
H379   H     0.83144   0.32103   0.37933   0.00000  Uiso   1.00
H380   H     0.90259   0.28874   0.13146   0.00000  Uiso   1.00
H381   H     0.83379   0.17857   0.37719   0.00000  Uiso   1.00
H382   H     0.66866   0.22059   0.13864   0.00000  Uiso   1.00
N383   N     0.83333   0.24999   0.12624   0.00000  Uiso   1.00
N384   N     0.83333   0.25001   0.37377   0.00000  Uiso   1.00
O385   O     0.83334   0.18453   0.28974   0.00000  Uiso   1.00
O386   O     0.74468   0.46393   0.17183   0.00000  Uiso   1.00
O387   O     0.85682   0.10510   0.17320   0.00000  Uiso   1.00
O388   O     0.87623   0.39389   0.32718   0.00000  Uiso   1.00
O389   O     0.75347   0.20930   0.01420   0.00000  Uiso   1.00
O390   O     0.83514   0.33194   0.47344   0.00000  Uiso   1.00
O391   O     0.91166   0.29739   0.04071   0.00000  Uiso   1.00
O392   O     0.83518   0.16808   0.46952   0.00000  Uiso   1.00
O393   O     0.83333   0.31546   0.21026   0.00000  Uiso   1.00
O394   O     0.83334   0.18453   0.21026   0.00000  Uiso   1.00
O395   O     0.83333   0.31547   0.28974   0.00000  Uiso   1.00
O396   O     0.75725   0.25000   0.28045   0.00000  Uiso   1.00
O397   O     0.90942   0.25000   0.21956   0.00000  Uiso   1.00
O398   O     0.75725   0.24999   0.20097   0.00000  Uiso   1.00
O399   O     0.90942   0.25000   0.29904   0.00000  Uiso   1.00
O400   O     0.75972   0.03373   0.32010   0.00000  Uiso   1.00
Zn401  Zn    0.83333   0.25000   0.30307   0.00000  Uiso   1.00
Zn402  Zn    0.83333   0.24999   0.19693   0.00000  Uiso   1.00
C403   C     0.16486   0.66343   0.24930   0.00000  Uiso   1.00
C404   C     0.16900   0.70918   0.44709   0.00000  Uiso   1.00
C405   C     0.16753   0.75001   0.02694   0.00000  Uiso   1.00
C406   C     0.16790   0.75015   0.47358   0.00000  Uiso   1.00
C407   C     0.06727   0.74898   0.23811   0.00000  Uiso   1.00
C408   C     0.26605   0.75143   0.26196   0.00000  Uiso   1.00
C409   C     0.01355   0.73975   0.23427   0.00000  Uiso   1.00
C410   C     0.31985   0.76077   0.26611   0.00000  Uiso   1.00
C411   C     0.11326   0.55222   0.28189   0.00000  Uiso   1.00
C412   C     0.10829   0.94731   0.21172   0.00000  Uiso   1.00
C413   C     0.12712   0.59761   0.28316   0.00000  Uiso   1.00
C414   C     0.16611   0.83658   0.25049   0.00000  Uiso   1.00
C415   C     0.12299   0.90221   0.21199   0.00000  Uiso   1.00
C416   C     0.15265   0.61556   0.24694   0.00000  Uiso   1.00
C417   C     0.15596   0.88473   0.25075   0.00000  Uiso   1.00
C418   C     0.16246   0.58837   0.20769   0.00000  Uiso   1.00
C419   C     0.17431   0.91216   0.29067   0.00000  Uiso   1.00
C420   C     0.15113   0.54248   0.20784   0.00000  Uiso   1.00
C421   C     0.16144   0.95826   0.28879   0.00000  Uiso   1.00
C422   C     0.12772   0.52437   0.24505   0.00000  Uiso   1.00
C423   C     0.12921   0.97567   0.24971   0.00000  Uiso   1.00
C424   C     0.33027   0.69625   0.20937   0.00000  Uiso   1.00
C425   C     0.12693   0.72801   0.04648   0.00000  Uiso   1.00
C426   C     0.32817   0.69171   0.15971   0.00000  Uiso   1.00
C427   C     0.31720   0.64965   0.13721   0.00000  Uiso   1.00
C428   C     0.30867   0.61197   0.16409   0.00000  Uiso   1.00
C429   C     0.31024   0.61628   0.21343   0.00000  Uiso   1.00
C430   C     0.32111   0.65820   0.23610   0.00000  Uiso   1.00
C431   C     0.00456   0.80204   0.29487   0.00000  Uiso   1.00
C432   C     0.02085   0.84062   0.27258   0.00000  Uiso   1.00
C433   C     0.03518   0.87987   0.29940   0.00000  Uiso   1.00
C434   C     0.03314   0.88103   0.34841   0.00000  Uiso   1.00
C435   C     0.01623   0.84313   0.37071   0.00000  Uiso   1.00
C436   C     0.16628   0.79107   0.44856   0.00000  Uiso   1.00
C437   C     0.00235   0.80366   0.34422   0.00000  Uiso   1.00
C438   C     0.03989   0.54639   0.31836   0.00000  Uiso   1.00
C439   C     0.01954   0.53105   0.36344   0.00000  Uiso   1.00
C440   C     0.02657   0.97148   0.18253   0.00000  Uiso   1.00
C441   C     0.32406   0.98035   0.13654   0.00000  Uiso   1.00
C442   C     0.15734   0.60596   0.12920   0.00000  Uiso   1.00
C443   C     0.18869   0.62256   0.09109   0.00000  Uiso   1.00
C444   C     0.20551   0.91344   0.37280   0.00000  Uiso   1.00
C445   C     0.25150   0.94497   0.38836   0.00000  Uiso   1.00
C446   C     0.05591   0.67736   0.03394   0.00000  Uiso   1.00
C447   C     0.12738   0.72912   0.09698   0.00000  Uiso   1.00
C448   C     0.02538   0.65005   0.49365   0.00000  Uiso   1.00
C449   C     0.11972   0.85416   0.46432   0.00000  Uiso   1.00
C450   C     0.11904   0.89474   0.49810   0.00000  Uiso   1.00
C451   C     0.28696   0.76916   0.03125   0.00000  Uiso   1.00
C452   C     0.31684   0.79229   0.49563   0.00000  Uiso   1.00
C453   C     0.21753   0.64606   0.46982   0.00000  Uiso   1.00
C454   C     0.20876   0.59561   0.46061   0.00000  Uiso   1.00
C455   C     0.16591   0.78992   0.39853   0.00000  Uiso   1.00
C456   C     0.20580   0.77142   0.10771   0.00000  Uiso   1.00
C457   C     0.16742   0.71015   0.39711   0.00000  Uiso   1.00
C458   C     0.20732   0.77187   0.05824   0.00000  Uiso   1.00
H459   H     0.11852   0.61861   0.31303   0.00000  Uiso   1.00
H460   H     0.31504   0.64613   0.09893   0.00000  Uiso   1.00
H461   H     0.30008   0.57953   0.14660   0.00000  Uiso   1.00
H462   H     0.30299   0.58714   0.23405   0.00000  Uiso   1.00
H463   H     0.32333   0.66089   0.27453   0.00000  Uiso   1.00
H464   H     0.02187   0.84045   0.23445   0.00000  Uiso   1.00
H465   H     0.04739   0.90957   0.28221   0.00000  Uiso   1.00
H466   H     0.04433   0.91141   0.36910   0.00000  Uiso   1.00
H467   H     0.01362   0.84440   0.40851   0.00000  Uiso   1.00
H468   H     0.32303   0.77449   0.36215   0.00000  Uiso   1.00
H469   H     0.01625   0.52970   0.28721   0.00000  Uiso   1.00
H470   H     0.10771   0.88060   0.18205   0.00000  Uiso   1.00
H471   H     0.03439   0.58375   0.31633   0.00000  Uiso   1.00
H472   H     0.04253   0.54717   0.39522   0.00000  Uiso   1.00
H473   H     0.31109   0.54101   0.36255   0.00000  Uiso   1.00
H474   H     0.02297   0.99372   0.36617   0.00000  Uiso   1.00
H475   H     0.02536   0.50165   0.20649   0.00000  Uiso   1.00
H476   H     0.01112   0.94151   0.19947   0.00000  Uiso   1.00
H477   H     0.32247   0.94989   0.11275   0.00000  Uiso   1.00
H478   H     0.28389   0.98838   0.14462   0.00000  Uiso   1.00
H479   H     0.00563   0.50931   0.11794   0.00000  Uiso   1.00
H480   H     0.12375   0.62941   0.13169   0.00000  Uiso   1.00
H481   H     0.16413   0.52037   0.18064   0.00000  Uiso   1.00
H482   H     0.14213   0.57172   0.11786   0.00000  Uiso   1.00
H483   H     0.22114   0.59859   0.08664   0.00000  Uiso   1.00
H484   H     0.16316   0.62464   0.05656   0.00000  Uiso   1.00
H485   H     0.20510   0.65656   0.10112   0.00000  Uiso   1.00
H486   H     0.20814   0.88594   0.39900   0.00000  Uiso   1.00
H487   H     0.16734   0.93067   0.37561   0.00000  Uiso   1.00
H488   H     0.25693   0.96919   0.36009   0.00000  Uiso   1.00
H489   H     0.24453   0.96416   0.42110   0.00000  Uiso   1.00
H490   H     0.28803   0.92492   0.39636   0.00000  Uiso   1.00
H491   H     0.02769   0.69507   0.05436   0.00000  Uiso   1.00
H492   H     0.17883   0.98154   0.31618   0.00000  Uiso   1.00
H493   H     0.08002   0.65325   0.05707   0.00000  Uiso   1.00
H494   H     0.00030   0.62497   0.00846   0.00000  Uiso   1.00
H495   H     0.00040   0.67298   0.46969   0.00000  Uiso   1.00
H496   H     0.05287   0.63174   0.47277   0.00000  Uiso   1.00
H497   H     0.08697   0.83140   0.47028   0.00000  Uiso   1.00
H498   H     0.11372   0.86669   0.42728   0.00000  Uiso   1.00
H499   H     0.15093   0.91848   0.49278   0.00000  Uiso   1.00
H500   H     0.08085   0.91266   0.49102   0.00000  Uiso   1.00
H501   H     0.12459   0.88340   0.03559   0.00000  Uiso   1.00
H502   H     0.27390   0.73550   0.01567   0.00000  Uiso   1.00
H503   H     0.09649   0.71374   0.11337   0.00000  Uiso   1.00
H504   H     0.31379   0.76413   0.06480   0.00000  Uiso   1.00
H505   H     0.33265   0.82515   0.01066   0.00000  Uiso   1.00
H506   H     0.01647   0.77056   0.48720   0.00000  Uiso   1.00
H507   H     0.29031   0.79837   0.46214   0.00000  Uiso   1.00
H508   H     0.24047   0.65121   0.00554   0.00000  Uiso   1.00
H509   H     0.24166   0.65831   0.44269   0.00000  Uiso   1.00
H510   H     0.18662   0.58982   0.42463   0.00000  Uiso   1.00
H511   H     0.24710   0.57783   0.46241   0.00000  Uiso   1.00
H512   H     0.18626   0.58139   0.48767   0.00000  Uiso   1.00
H513   H     0.16478   0.82103   0.37933   0.00000  Uiso   1.00
H514   H     0.23592   0.78874   0.13146   0.00000  Uiso   1.00
H515   H     0.16712   0.67857   0.37719   0.00000  Uiso   1.00
H516   H     0.00199   0.72059   0.13864   0.00000  Uiso   1.00
N517   N     0.16667   0.74999   0.12624   0.00000  Uiso   1.00
N518   N     0.16667   0.75001   0.37377   0.00000  Uiso   1.00
O519   O     0.16667   0.68453   0.28974   0.00000  Uiso   1.00
O520   O     0.07801   0.96393   0.17183   0.00000  Uiso   1.00
O521   O     0.19015   0.60510   0.17320   0.00000  Uiso   1.00
O522   O     0.20957   0.89389   0.32718   0.00000  Uiso   1.00
O523   O     0.08681   0.70930   0.01420   0.00000  Uiso   1.00
O524   O     0.16847   0.83194   0.47344   0.00000  Uiso   1.00
O525   O     0.24499   0.79739   0.04071   0.00000  Uiso   1.00
O526   O     0.16851   0.66808   0.46952   0.00000  Uiso   1.00
O527   O     0.16666   0.81546   0.21026   0.00000  Uiso   1.00
O528   O     0.16667   0.68453   0.21026   0.00000  Uiso   1.00
O529   O     0.16666   0.81547   0.28974   0.00000  Uiso   1.00
O530   O     0.09058   0.75000   0.28045   0.00000  Uiso   1.00
O531   O     0.24275   0.75000   0.21956   0.00000  Uiso   1.00
O532   O     0.09058   0.74999   0.20097   0.00000  Uiso   1.00
O533   O     0.24275   0.75000   0.29904   0.00000  Uiso   1.00
O534   O     0.09306   0.53373   0.32010   0.00000  Uiso   1.00
Zn535  Zn    0.16667   0.75000   0.30307   0.00000  Uiso   1.00
Zn536  Zn    0.16667   0.74999   0.19693   0.00000  Uiso   1.00
C537   C     0.49819   0.66343   0.24930   0.00000  Uiso   1.00
C538   C     0.50234   0.70918   0.44709   0.00000  Uiso   1.00
C539   C     0.50086   0.75001   0.02694   0.00000  Uiso   1.00
C540   C     0.50124   0.75015   0.47358   0.00000  Uiso   1.00
C541   C     0.40060   0.74898   0.23811   0.00000  Uiso   1.00
C542   C     0.59939   0.75143   0.26196   0.00000  Uiso   1.00
C543   C     0.34688   0.73975   0.23427   0.00000  Uiso   1.00
C544   C     0.65318   0.76077   0.26611   0.00000  Uiso   1.00
C545   C     0.44660   0.55222   0.28189   0.00000  Uiso   1.00
C546   C     0.44163   0.94731   0.21172   0.00000  Uiso   1.00
C547   C     0.46046   0.59761   0.28316   0.00000  Uiso   1.00
C548   C     0.49944   0.83658   0.25049   0.00000  Uiso   1.00
C549   C     0.45633   0.90221   0.21199   0.00000  Uiso   1.00
C550   C     0.48598   0.61556   0.24694   0.00000  Uiso   1.00
C551   C     0.48929   0.88473   0.25075   0.00000  Uiso   1.00
C552   C     0.49579   0.58837   0.20769   0.00000  Uiso   1.00
C553   C     0.50764   0.91216   0.29067   0.00000  Uiso   1.00
C554   C     0.48446   0.54248   0.20784   0.00000  Uiso   1.00
C555   C     0.49478   0.95826   0.28879   0.00000  Uiso   1.00
C556   C     0.46105   0.52437   0.24505   0.00000  Uiso   1.00
C557   C     0.46254   0.97567   0.24971   0.00000  Uiso   1.00
C558   C     0.66361   0.69625   0.20937   0.00000  Uiso   1.00
C559   C     0.46026   0.72801   0.04648   0.00000  Uiso   1.00
C560   C     0.66150   0.69171   0.15971   0.00000  Uiso   1.00
C561   C     0.65054   0.64965   0.13721   0.00000  Uiso   1.00
C562   C     0.64201   0.61197   0.16409   0.00000  Uiso   1.00
C563   C     0.64357   0.61628   0.21343   0.00000  Uiso   1.00
C564   C     0.65444   0.65820   0.23610   0.00000  Uiso   1.00
C565   C     0.33789   0.80204   0.29487   0.00000  Uiso   1.00
C566   C     0.35419   0.84062   0.27258   0.00000  Uiso   1.00
C567   C     0.36851   0.87987   0.29940   0.00000  Uiso   1.00
C568   C     0.36647   0.88103   0.34841   0.00000  Uiso   1.00
C569   C     0.34956   0.84313   0.37071   0.00000  Uiso   1.00
C570   C     0.49962   0.79107   0.44856   0.00000  Uiso   1.00
C571   C     0.33568   0.80366   0.34422   0.00000  Uiso   1.00
C572   C     0.37323   0.54639   0.31836   0.00000  Uiso   1.00
C573   C     0.35287   0.53105   0.36344   0.00000  Uiso   1.00
C574   C     0.35990   0.97148   0.18253   0.00000  Uiso   1.00
C575   C     0.65739   0.98035   0.13654   0.00000  Uiso   1.00
C576   C     0.49067   0.60596   0.12920   0.00000  Uiso   1.00
C577   C     0.52202   0.62256   0.09109   0.00000  Uiso   1.00
C578   C     0.53884   0.91344   0.37280   0.00000  Uiso   1.00
C579   C     0.58484   0.94497   0.38836   0.00000  Uiso   1.00
C580   C     0.38924   0.67736   0.03394   0.00000  Uiso   1.00
C581   C     0.46072   0.72912   0.09698   0.00000  Uiso   1.00
C582   C     0.35871   0.65005   0.49365   0.00000  Uiso   1.00
C583   C     0.45306   0.85416   0.46432   0.00000  Uiso   1.00
C584   C     0.45238   0.89474   0.49810   0.00000  Uiso   1.00
C585   C     0.62029   0.76916   0.03125   0.00000  Uiso   1.00
C586   C     0.65017   0.79229   0.49563   0.00000  Uiso   1.00
C587   C     0.55086   0.64606   0.46982   0.00000  Uiso   1.00
C588   C     0.54209   0.59561   0.46061   0.00000  Uiso   1.00
C589   C     0.49924   0.78992   0.39853   0.00000  Uiso   1.00
C590   C     0.53913   0.77142   0.10771   0.00000  Uiso   1.00
C591   C     0.50075   0.71015   0.39711   0.00000  Uiso   1.00
C592   C     0.54065   0.77187   0.05824   0.00000  Uiso   1.00
H593   H     0.45185   0.61861   0.31303   0.00000  Uiso   1.00
H594   H     0.64837   0.64613   0.09893   0.00000  Uiso   1.00
H595   H     0.63341   0.57953   0.14660   0.00000  Uiso   1.00
H596   H     0.63632   0.58714   0.23405   0.00000  Uiso   1.00
H597   H     0.65666   0.66089   0.27453   0.00000  Uiso   1.00
H598   H     0.35521   0.84045   0.23445   0.00000  Uiso   1.00
H599   H     0.38072   0.90957   0.28221   0.00000  Uiso   1.00
H600   H     0.37766   0.91141   0.36910   0.00000  Uiso   1.00
H601   H     0.34695   0.84440   0.40851   0.00000  Uiso   1.00
H602   H     0.65636   0.77449   0.36215   0.00000  Uiso   1.00
H603   H     0.34958   0.52970   0.28721   0.00000  Uiso   1.00
H604   H     0.44104   0.88060   0.18205   0.00000  Uiso   1.00
H605   H     0.36772   0.58375   0.31633   0.00000  Uiso   1.00
H606   H     0.37586   0.54717   0.39522   0.00000  Uiso   1.00
H607   H     0.64442   0.54101   0.36255   0.00000  Uiso   1.00
H608   H     0.35630   0.99372   0.36617   0.00000  Uiso   1.00
H609   H     0.35869   0.50165   0.20649   0.00000  Uiso   1.00
H610   H     0.34445   0.94151   0.19947   0.00000  Uiso   1.00
H611   H     0.65580   0.94989   0.11275   0.00000  Uiso   1.00
H612   H     0.61722   0.98838   0.14462   0.00000  Uiso   1.00
H613   H     0.33896   0.50931   0.11794   0.00000  Uiso   1.00
H614   H     0.45708   0.62941   0.13169   0.00000  Uiso   1.00
H615   H     0.49746   0.52037   0.18064   0.00000  Uiso   1.00
H616   H     0.47547   0.57172   0.11786   0.00000  Uiso   1.00
H617   H     0.55448   0.59859   0.08664   0.00000  Uiso   1.00
H618   H     0.49649   0.62464   0.05656   0.00000  Uiso   1.00
H619   H     0.53843   0.65656   0.10112   0.00000  Uiso   1.00
H620   H     0.54148   0.88594   0.39900   0.00000  Uiso   1.00
H621   H     0.50068   0.93067   0.37561   0.00000  Uiso   1.00
H622   H     0.59027   0.96919   0.36009   0.00000  Uiso   1.00
H623   H     0.57787   0.96416   0.42110   0.00000  Uiso   1.00
H624   H     0.62136   0.92492   0.39636   0.00000  Uiso   1.00
H625   H     0.36103   0.69507   0.05436   0.00000  Uiso   1.00
H626   H     0.51217   0.98154   0.31618   0.00000  Uiso   1.00
H627   H     0.41335   0.65325   0.05707   0.00000  Uiso   1.00
H628   H     0.33363   0.62497   0.00846   0.00000  Uiso   1.00
H629   H     0.33373   0.67298   0.46969   0.00000  Uiso   1.00
H630   H     0.38621   0.63174   0.47277   0.00000  Uiso   1.00
H631   H     0.42030   0.83140   0.47028   0.00000  Uiso   1.00
H632   H     0.44705   0.86669   0.42728   0.00000  Uiso   1.00
H633   H     0.48426   0.91848   0.49278   0.00000  Uiso   1.00
H634   H     0.41418   0.91266   0.49102   0.00000  Uiso   1.00
H635   H     0.45793   0.88340   0.03559   0.00000  Uiso   1.00
H636   H     0.60724   0.73550   0.01567   0.00000  Uiso   1.00
H637   H     0.42983   0.71374   0.11337   0.00000  Uiso   1.00
H638   H     0.64712   0.76413   0.06480   0.00000  Uiso   1.00
H639   H     0.66598   0.82515   0.01066   0.00000  Uiso   1.00
H640   H     0.34980   0.77056   0.48720   0.00000  Uiso   1.00
H641   H     0.62365   0.79837   0.46214   0.00000  Uiso   1.00
H642   H     0.57381   0.65121   0.00554   0.00000  Uiso   1.00
H643   H     0.57499   0.65831   0.44269   0.00000  Uiso   1.00
H644   H     0.51996   0.58982   0.42463   0.00000  Uiso   1.00
H645   H     0.58043   0.57783   0.46241   0.00000  Uiso   1.00
H646   H     0.51959   0.58139   0.48767   0.00000  Uiso   1.00
H647   H     0.49811   0.82103   0.37933   0.00000  Uiso   1.00
H648   H     0.56925   0.78874   0.13146   0.00000  Uiso   1.00
H649   H     0.50046   0.67857   0.37719   0.00000  Uiso   1.00
H650   H     0.33532   0.72059   0.13864   0.00000  Uiso   1.00
N651   N     0.50000   0.74999   0.12624   0.00000  Uiso   1.00
N652   N     0.50000   0.75001   0.37377   0.00000  Uiso   1.00
O653   O     0.50000   0.68453   0.28974   0.00000  Uiso   1.00
O654   O     0.41134   0.96393   0.17183   0.00000  Uiso   1.00
O655   O     0.52348   0.60510   0.17320   0.00000  Uiso   1.00
O656   O     0.54290   0.89389   0.32718   0.00000  Uiso   1.00
O657   O     0.42014   0.70930   0.01420   0.00000  Uiso   1.00
O658   O     0.50181   0.83194   0.47344   0.00000  Uiso   1.00
O659   O     0.57832   0.79739   0.04071   0.00000  Uiso   1.00
O660   O     0.50184   0.66808   0.46952   0.00000  Uiso   1.00
O661   O     0.50000   0.81546   0.21026   0.00000  Uiso   1.00
O662   O     0.50000   0.68453   0.21026   0.00000  Uiso   1.00
O663   O     0.50000   0.81547   0.28974   0.00000  Uiso   1.00
O664   O     0.42392   0.75000   0.28045   0.00000  Uiso   1.00
O665   O     0.57608   0.75000   0.21956   0.00000  Uiso   1.00
O666   O     0.42392   0.74999   0.20097   0.00000  Uiso   1.00
O667   O     0.57608   0.75000   0.29904   0.00000  Uiso   1.00
O668   O     0.42639   0.53373   0.32010   0.00000  Uiso   1.00
Zn669  Zn    0.50000   0.75000   0.30307   0.00000  Uiso   1.00
Zn670  Zn    0.50000   0.74999   0.19693   0.00000  Uiso   1.00
C671   C     0.83153   0.66343   0.24930   0.00000  Uiso   1.00
C672   C     0.83567   0.70918   0.44709   0.00000  Uiso   1.00
C673   C     0.83419   0.75001   0.02694   0.00000  Uiso   1.00
C674   C     0.83457   0.75015   0.47358   0.00000  Uiso   1.00
C675   C     0.73393   0.74898   0.23811   0.00000  Uiso   1.00
C676   C     0.93272   0.75143   0.26196   0.00000  Uiso   1.00
C677   C     0.68022   0.73975   0.23427   0.00000  Uiso   1.00
C678   C     0.98651   0.76077   0.26611   0.00000  Uiso   1.00
C679   C     0.77993   0.55222   0.28189   0.00000  Uiso   1.00
C680   C     0.77496   0.94731   0.21172   0.00000  Uiso   1.00
C681   C     0.79379   0.59761   0.28316   0.00000  Uiso   1.00
C682   C     0.83278   0.83658   0.25049   0.00000  Uiso   1.00
C683   C     0.78966   0.90221   0.21199   0.00000  Uiso   1.00
C684   C     0.81932   0.61556   0.24694   0.00000  Uiso   1.00
C685   C     0.82262   0.88473   0.25075   0.00000  Uiso   1.00
C686   C     0.82913   0.58837   0.20769   0.00000  Uiso   1.00
C687   C     0.84097   0.91216   0.29067   0.00000  Uiso   1.00
C688   C     0.81780   0.54248   0.20784   0.00000  Uiso   1.00
C689   C     0.82811   0.95826   0.28879   0.00000  Uiso   1.00
C690   C     0.79439   0.52437   0.24505   0.00000  Uiso   1.00
C691   C     0.79588   0.97567   0.24971   0.00000  Uiso   1.00
C692   C     0.99694   0.69625   0.20937   0.00000  Uiso   1.00
C693   C     0.79360   0.72801   0.04648   0.00000  Uiso   1.00
C694   C     0.99483   0.69171   0.15971   0.00000  Uiso   1.00
C695   C     0.98387   0.64965   0.13721   0.00000  Uiso   1.00
C696   C     0.97534   0.61197   0.16409   0.00000  Uiso   1.00
C697   C     0.97691   0.61628   0.21343   0.00000  Uiso   1.00
C698   C     0.98778   0.65820   0.23610   0.00000  Uiso   1.00
C699   C     0.67122   0.80204   0.29487   0.00000  Uiso   1.00
C700   C     0.68752   0.84062   0.27258   0.00000  Uiso   1.00
C701   C     0.70185   0.87987   0.29940   0.00000  Uiso   1.00
C702   C     0.69980   0.88103   0.34841   0.00000  Uiso   1.00
C703   C     0.68290   0.84313   0.37071   0.00000  Uiso   1.00
C704   C     0.83295   0.79107   0.44856   0.00000  Uiso   1.00
C705   C     0.66902   0.80366   0.34422   0.00000  Uiso   1.00
C706   C     0.70656   0.54639   0.31836   0.00000  Uiso   1.00
C707   C     0.68621   0.53105   0.36344   0.00000  Uiso   1.00
C708   C     0.69324   0.97148   0.18253   0.00000  Uiso   1.00
C709   C     0.99072   0.98035   0.13654   0.00000  Uiso   1.00
C710   C     0.82401   0.60596   0.12920   0.00000  Uiso   1.00
C711   C     0.85535   0.62256   0.09109   0.00000  Uiso   1.00
C712   C     0.87217   0.91344   0.37280   0.00000  Uiso   1.00
C713   C     0.91817   0.94497   0.38836   0.00000  Uiso   1.00
C714   C     0.72258   0.67736   0.03394   0.00000  Uiso   1.00
C715   C     0.79405   0.72912   0.09698   0.00000  Uiso   1.00
C716   C     0.69204   0.65005   0.49365   0.00000  Uiso   1.00
C717   C     0.78639   0.85416   0.46432   0.00000  Uiso   1.00
C718   C     0.78571   0.89474   0.49810   0.00000  Uiso   1.00
C719   C     0.95363   0.76916   0.03125   0.00000  Uiso   1.00
C720   C     0.98351   0.79229   0.49563   0.00000  Uiso   1.00
C721   C     0.88420   0.64606   0.46982   0.00000  Uiso   1.00
C722   C     0.87543   0.59561   0.46061   0.00000  Uiso   1.00
C723   C     0.83258   0.78992   0.39853   0.00000  Uiso   1.00
C724   C     0.87247   0.77142   0.10771   0.00000  Uiso   1.00
C725   C     0.83408   0.71015   0.39711   0.00000  Uiso   1.00
C726   C     0.87399   0.77187   0.05824   0.00000  Uiso   1.00
H727   H     0.78518   0.61861   0.31303   0.00000  Uiso   1.00
H728   H     0.98170   0.64613   0.09893   0.00000  Uiso   1.00
H729   H     0.96675   0.57953   0.14660   0.00000  Uiso   1.00
H730   H     0.96966   0.58714   0.23405   0.00000  Uiso   1.00
H731   H     0.98999   0.66089   0.27453   0.00000  Uiso   1.00
H732   H     0.68854   0.84045   0.23445   0.00000  Uiso   1.00
H733   H     0.71405   0.90957   0.28221   0.00000  Uiso   1.00
H734   H     0.71099   0.91141   0.36910   0.00000  Uiso   1.00
H735   H     0.68028   0.84440   0.40851   0.00000  Uiso   1.00
H736   H     0.98969   0.77449   0.36215   0.00000  Uiso   1.00
H737   H     0.68291   0.52970   0.28721   0.00000  Uiso   1.00
H738   H     0.77438   0.88060   0.18205   0.00000  Uiso   1.00
H739   H     0.70105   0.58375   0.31633   0.00000  Uiso   1.00
H740   H     0.70920   0.54717   0.39522   0.00000  Uiso   1.00
H741   H     0.97776   0.54101   0.36255   0.00000  Uiso   1.00
H742   H     0.68964   0.99372   0.36617   0.00000  Uiso   1.00
H743   H     0.69202   0.50165   0.20649   0.00000  Uiso   1.00
H744   H     0.67779   0.94151   0.19947   0.00000  Uiso   1.00
H745   H     0.98914   0.94989   0.11275   0.00000  Uiso   1.00
H746   H     0.95056   0.98838   0.14462   0.00000  Uiso   1.00
H747   H     0.67230   0.50931   0.11794   0.00000  Uiso   1.00
H748   H     0.79041   0.62941   0.13169   0.00000  Uiso   1.00
H749   H     0.83080   0.52037   0.18064   0.00000  Uiso   1.00
H750   H     0.80880   0.57172   0.11786   0.00000  Uiso   1.00
H751   H     0.88781   0.59859   0.08664   0.00000  Uiso   1.00
H752   H     0.82983   0.62464   0.05656   0.00000  Uiso   1.00
H753   H     0.87177   0.65656   0.10112   0.00000  Uiso   1.00
H754   H     0.87481   0.88594   0.39900   0.00000  Uiso   1.00
H755   H     0.83401   0.93067   0.37561   0.00000  Uiso   1.00
H756   H     0.92360   0.96919   0.36009   0.00000  Uiso   1.00
H757   H     0.91120   0.96416   0.42110   0.00000  Uiso   1.00
H758   H     0.95469   0.92492   0.39636   0.00000  Uiso   1.00
H759   H     0.69436   0.69507   0.05436   0.00000  Uiso   1.00
H760   H     0.84550   0.98154   0.31618   0.00000  Uiso   1.00
H761   H     0.74668   0.65325   0.05707   0.00000  Uiso   1.00
H762   H     0.66697   0.62497   0.00846   0.00000  Uiso   1.00
H763   H     0.66706   0.67298   0.46969   0.00000  Uiso   1.00
H764   H     0.71954   0.63174   0.47277   0.00000  Uiso   1.00
H765   H     0.75364   0.83140   0.47028   0.00000  Uiso   1.00
H766   H     0.78038   0.86669   0.42728   0.00000  Uiso   1.00
H767   H     0.81760   0.91848   0.49278   0.00000  Uiso   1.00
H768   H     0.74752   0.91266   0.49102   0.00000  Uiso   1.00
H769   H     0.79126   0.88340   0.03559   0.00000  Uiso   1.00
H770   H     0.94057   0.73550   0.01567   0.00000  Uiso   1.00
H771   H     0.76316   0.71374   0.11337   0.00000  Uiso   1.00
H772   H     0.98046   0.76413   0.06480   0.00000  Uiso   1.00
H773   H     0.99932   0.82515   0.01066   0.00000  Uiso   1.00
H774   H     0.68313   0.77056   0.48720   0.00000  Uiso   1.00
H775   H     0.95698   0.79837   0.46214   0.00000  Uiso   1.00
H776   H     0.90714   0.65121   0.00554   0.00000  Uiso   1.00
H777   H     0.90832   0.65831   0.44269   0.00000  Uiso   1.00
H778   H     0.85329   0.58982   0.42463   0.00000  Uiso   1.00
H779   H     0.91376   0.57783   0.46241   0.00000  Uiso   1.00
H780   H     0.85292   0.58139   0.48767   0.00000  Uiso   1.00
H781   H     0.83144   0.82103   0.37933   0.00000  Uiso   1.00
H782   H     0.90259   0.78874   0.13146   0.00000  Uiso   1.00
H783   H     0.83379   0.67857   0.37719   0.00000  Uiso   1.00
H784   H     0.66866   0.72059   0.13864   0.00000  Uiso   1.00
N785   N     0.83333   0.74999   0.12624   0.00000  Uiso   1.00
N786   N     0.83333   0.75001   0.37377   0.00000  Uiso   1.00
O787   O     0.83334   0.68453   0.28974   0.00000  Uiso   1.00
O788   O     0.74468   0.96393   0.17183   0.00000  Uiso   1.00
O789   O     0.85682   0.60510   0.17320   0.00000  Uiso   1.00
O790   O     0.87623   0.89389   0.32718   0.00000  Uiso   1.00
O791   O     0.75347   0.70930   0.01420   0.00000  Uiso   1.00
O792   O     0.83514   0.83194   0.47344   0.00000  Uiso   1.00
O793   O     0.91166   0.79739   0.04071   0.00000  Uiso   1.00
O794   O     0.83518   0.66808   0.46952   0.00000  Uiso   1.00
O795   O     0.83333   0.81546   0.21026   0.00000  Uiso   1.00
O796   O     0.83334   0.68453   0.21026   0.00000  Uiso   1.00
O797   O     0.83333   0.81547   0.28974   0.00000  Uiso   1.00
O798   O     0.75725   0.75000   0.28045   0.00000  Uiso   1.00
O799   O     0.90942   0.75000   0.21956   0.00000  Uiso   1.00
O800   O     0.75725   0.74999   0.20097   0.00000  Uiso   1.00
O801   O     0.90942   0.75000   0.29904   0.00000  Uiso   1.00
O802   O     0.75972   0.53373   0.32010   0.00000  Uiso   1.00
Zn803  Zn    0.83333   0.75000   0.30307   0.00000  Uiso   1.00
Zn804  Zn    0.83333   0.74999   0.19693   0.00000  Uiso   1.00
C805   C     0.16486   0.16343   0.74930   0.00000  Uiso   1.00
C806   C     0.16900   0.20918   0.94709   0.00000  Uiso   1.00
C807   C     0.16753   0.25001   0.52694   0.00000  Uiso   1.00
C808   C     0.16790   0.25015   0.97358   0.00000  Uiso   1.00
C809   C     0.06727   0.24898   0.73811   0.00000  Uiso   1.00
C810   C     0.26605   0.25143   0.76196   0.00000  Uiso   1.00
C811   C     0.01355   0.23975   0.73427   0.00000  Uiso   1.00
C812   C     0.31985   0.26077   0.76611   0.00000  Uiso   1.00
C813   C     0.11326   0.05222   0.78189   0.00000  Uiso   1.00
C814   C     0.10829   0.44731   0.71172   0.00000  Uiso   1.00
C815   C     0.12712   0.09761   0.78316   0.00000  Uiso   1.00
C816   C     0.16611   0.33658   0.75049   0.00000  Uiso   1.00
C817   C     0.12299   0.40221   0.71199   0.00000  Uiso   1.00
C818   C     0.15265   0.11556   0.74694   0.00000  Uiso   1.00
C819   C     0.15596   0.38473   0.75075   0.00000  Uiso   1.00
C820   C     0.16246   0.08837   0.70769   0.00000  Uiso   1.00
C821   C     0.17431   0.41216   0.79067   0.00000  Uiso   1.00
C822   C     0.15113   0.04248   0.70784   0.00000  Uiso   1.00
C823   C     0.16144   0.45826   0.78879   0.00000  Uiso   1.00
C824   C     0.12772   0.02437   0.74505   0.00000  Uiso   1.00
C825   C     0.12921   0.47567   0.74971   0.00000  Uiso   1.00
C826   C     0.33027   0.19625   0.70937   0.00000  Uiso   1.00
C827   C     0.12693   0.22801   0.54648   0.00000  Uiso   1.00
C828   C     0.32817   0.19171   0.65971   0.00000  Uiso   1.00
C829   C     0.31720   0.14965   0.63721   0.00000  Uiso   1.00
C830   C     0.30867   0.11197   0.66409   0.00000  Uiso   1.00
C831   C     0.31024   0.11628   0.71343   0.00000  Uiso   1.00
C832   C     0.32111   0.15820   0.73610   0.00000  Uiso   1.00
C833   C     0.00456   0.30204   0.79487   0.00000  Uiso   1.00
C834   C     0.02085   0.34062   0.77258   0.00000  Uiso   1.00
C835   C     0.03518   0.37987   0.79940   0.00000  Uiso   1.00
C836   C     0.03314   0.38103   0.84841   0.00000  Uiso   1.00
C837   C     0.01623   0.34313   0.87071   0.00000  Uiso   1.00
C838   C     0.16628   0.29107   0.94856   0.00000  Uiso   1.00
C839   C     0.00235   0.30366   0.84422   0.00000  Uiso   1.00
C840   C     0.03989   0.04639   0.81836   0.00000  Uiso   1.00
C841   C     0.01954   0.03105   0.86344   0.00000  Uiso   1.00
C842   C     0.02657   0.47148   0.68253   0.00000  Uiso   1.00
C843   C     0.32406   0.48035   0.63654   0.00000  Uiso   1.00
C844   C     0.15734   0.10596   0.62920   0.00000  Uiso   1.00
C845   C     0.18869   0.12256   0.59109   0.00000  Uiso   1.00
C846   C     0.20551   0.41344   0.87280   0.00000  Uiso   1.00
C847   C     0.25150   0.44497   0.88836   0.00000  Uiso   1.00
C848   C     0.05591   0.17736   0.53394   0.00000  Uiso   1.00
C849   C     0.12738   0.22912   0.59698   0.00000  Uiso   1.00
C850   C     0.02538   0.15005   0.99365   0.00000  Uiso   1.00
C851   C     0.11972   0.35416   0.96432   0.00000  Uiso   1.00
C852   C     0.11904   0.39474   0.99810   0.00000  Uiso   1.00
C853   C     0.28696   0.26916   0.53125   0.00000  Uiso   1.00
C854   C     0.31684   0.29229   0.99563   0.00000  Uiso   1.00
C855   C     0.21753   0.14606   0.96982   0.00000  Uiso   1.00
C856   C     0.20876   0.09561   0.96061   0.00000  Uiso   1.00
C857   C     0.16591   0.28992   0.89853   0.00000  Uiso   1.00
C858   C     0.20580   0.27142   0.60771   0.00000  Uiso   1.00
C859   C     0.16742   0.21015   0.89711   0.00000  Uiso   1.00
C860   C     0.20732   0.27187   0.55824   0.00000  Uiso   1.00
H861   H     0.11852   0.11861   0.81303   0.00000  Uiso   1.00
H862   H     0.31504   0.14613   0.59893   0.00000  Uiso   1.00
H863   H     0.30008   0.07953   0.64660   0.00000  Uiso   1.00
H864   H     0.30299   0.08714   0.73405   0.00000  Uiso   1.00
H865   H     0.32333   0.16089   0.77453   0.00000  Uiso   1.00
H866   H     0.02187   0.34045   0.73445   0.00000  Uiso   1.00
H867   H     0.04739   0.40957   0.78221   0.00000  Uiso   1.00
H868   H     0.04433   0.41141   0.86910   0.00000  Uiso   1.00
H869   H     0.01362   0.34440   0.90851   0.00000  Uiso   1.00
H870   H     0.32303   0.27449   0.86215   0.00000  Uiso   1.00
H871   H     0.01625   0.02970   0.78721   0.00000  Uiso   1.00
H872   H     0.10771   0.38060   0.68205   0.00000  Uiso   1.00
H873   H     0.03439   0.08375   0.81633   0.00000  Uiso   1.00
H874   H     0.04253   0.04717   0.89522   0.00000  Uiso   1.00
H875   H     0.31109   0.04101   0.86255   0.00000  Uiso   1.00
H876   H     0.02297   0.49372   0.86617   0.00000  Uiso   1.00
H877   H     0.02536   0.00165   0.70649   0.00000  Uiso   1.00
H878   H     0.01112   0.44151   0.69947   0.00000  Uiso   1.00
H879   H     0.32247   0.44989   0.61275   0.00000  Uiso   1.00
H880   H     0.28389   0.48838   0.64462   0.00000  Uiso   1.00
H881   H     0.00563   0.00931   0.61794   0.00000  Uiso   1.00
H882   H     0.12375   0.12941   0.63169   0.00000  Uiso   1.00
H883   H     0.16413   0.02037   0.68064   0.00000  Uiso   1.00
H884   H     0.14213   0.07172   0.61786   0.00000  Uiso   1.00
H885   H     0.22114   0.09859   0.58664   0.00000  Uiso   1.00
H886   H     0.16316   0.12464   0.55656   0.00000  Uiso   1.00
H887   H     0.20510   0.15656   0.60112   0.00000  Uiso   1.00
H888   H     0.20814   0.38594   0.89900   0.00000  Uiso   1.00
H889   H     0.16734   0.43067   0.87561   0.00000  Uiso   1.00
H890   H     0.25693   0.46919   0.86009   0.00000  Uiso   1.00
H891   H     0.24453   0.46416   0.92110   0.00000  Uiso   1.00
H892   H     0.28803   0.42492   0.89636   0.00000  Uiso   1.00
H893   H     0.02769   0.19507   0.55436   0.00000  Uiso   1.00
H894   H     0.17883   0.48154   0.81618   0.00000  Uiso   1.00
H895   H     0.08002   0.15325   0.55707   0.00000  Uiso   1.00
H896   H     0.00030   0.12497   0.50846   0.00000  Uiso   1.00
H897   H     0.00040   0.17298   0.96969   0.00000  Uiso   1.00
H898   H     0.05287   0.13174   0.97277   0.00000  Uiso   1.00
H899   H     0.08697   0.33140   0.97028   0.00000  Uiso   1.00
H900   H     0.11372   0.36669   0.92728   0.00000  Uiso   1.00
H901   H     0.15093   0.41848   0.99278   0.00000  Uiso   1.00
H902   H     0.08085   0.41266   0.99102   0.00000  Uiso   1.00
H903   H     0.12459   0.38340   0.53559   0.00000  Uiso   1.00
H904   H     0.27390   0.23550   0.51567   0.00000  Uiso   1.00
H905   H     0.09649   0.21374   0.61337   0.00000  Uiso   1.00
H906   H     0.31379   0.26413   0.56480   0.00000  Uiso   1.00
H907   H     0.33265   0.32515   0.51066   0.00000  Uiso   1.00
H908   H     0.01647   0.27056   0.98720   0.00000  Uiso   1.00
H909   H     0.29031   0.29837   0.96214   0.00000  Uiso   1.00
H910   H     0.24047   0.15121   0.50554   0.00000  Uiso   1.00
H911   H     0.24166   0.15831   0.94269   0.00000  Uiso   1.00
H912   H     0.18662   0.08982   0.92463   0.00000  Uiso   1.00
H913   H     0.24710   0.07783   0.96241   0.00000  Uiso   1.00
H914   H     0.18626   0.08139   0.98767   0.00000  Uiso   1.00
H915   H     0.16478   0.32103   0.87933   0.00000  Uiso   1.00
H916   H     0.23592   0.28874   0.63146   0.00000  Uiso   1.00
H917   H     0.16712   0.17857   0.87719   0.00000  Uiso   1.00
H918   H     0.00199   0.22059   0.63864   0.00000  Uiso   1.00
N919   N     0.16667   0.24999   0.62624   0.00000  Uiso   1.00
N920   N     0.16667   0.25001   0.87377   0.00000  Uiso   1.00
O921   O     0.16667   0.18453   0.78974   0.00000  Uiso   1.00
O922   O     0.07801   0.46393   0.67183   0.00000  Uiso   1.00
O923   O     0.19015   0.10510   0.67320   0.00000  Uiso   1.00
O924   O     0.20957   0.39389   0.82718   0.00000  Uiso   1.00
O925   O     0.08681   0.20930   0.51420   0.00000  Uiso   1.00
O926   O     0.16847   0.33194   0.97344   0.00000  Uiso   1.00
O927   O     0.24499   0.29739   0.54071   0.00000  Uiso   1.00
O928   O     0.16851   0.16808   0.96952   0.00000  Uiso   1.00
O929   O     0.16666   0.31546   0.71026   0.00000  Uiso   1.00
O930   O     0.16667   0.18453   0.71026   0.00000  Uiso   1.00
O931   O     0.16666   0.31547   0.78974   0.00000  Uiso   1.00
O932   O     0.09058   0.25000   0.78045   0.00000  Uiso   1.00
O933   O     0.24275   0.25000   0.71956   0.00000  Uiso   1.00
O934   O     0.09058   0.24999   0.70097   0.00000  Uiso   1.00
O935   O     0.24275   0.25000   0.79904   0.00000  Uiso   1.00
O936   O     0.09306   0.03373   0.82010   0.00000  Uiso   1.00
Zn937  Zn    0.16667   0.25000   0.80307   0.00000  Uiso   1.00
Zn938  Zn    0.16667   0.24999   0.69693   0.00000  Uiso   1.00
C939   C     0.49819   0.16343   0.74930   0.00000  Uiso   1.00
C940   C     0.50234   0.20918   0.94709   0.00000  Uiso   1.00
C941   C     0.50086   0.25001   0.52694   0.00000  Uiso   1.00
C942   C     0.50124   0.25015   0.97358   0.00000  Uiso   1.00
C943   C     0.40060   0.24898   0.73811   0.00000  Uiso   1.00
C944   C     0.59939   0.25143   0.76196   0.00000  Uiso   1.00
C945   C     0.34688   0.23975   0.73427   0.00000  Uiso   1.00
C946   C     0.65318   0.26077   0.76611   0.00000  Uiso   1.00
C947   C     0.44660   0.05222   0.78189   0.00000  Uiso   1.00
C948   C     0.44163   0.44731   0.71172   0.00000  Uiso   1.00
C949   C     0.46046   0.09761   0.78316   0.00000  Uiso   1.00
C950   C     0.49944   0.33658   0.75049   0.00000  Uiso   1.00
C951   C     0.45633   0.40221   0.71199   0.00000  Uiso   1.00
C952   C     0.48598   0.11556   0.74694   0.00000  Uiso   1.00
C953   C     0.48929   0.38473   0.75075   0.00000  Uiso   1.00
C954   C     0.49579   0.08837   0.70769   0.00000  Uiso   1.00
C955   C     0.50764   0.41216   0.79067   0.00000  Uiso   1.00
C956   C     0.48446   0.04248   0.70784   0.00000  Uiso   1.00
C957   C     0.49478   0.45826   0.78879   0.00000  Uiso   1.00
C958   C     0.46105   0.02437   0.74505   0.00000  Uiso   1.00
C959   C     0.46254   0.47567   0.74971   0.00000  Uiso   1.00
C960   C     0.66361   0.19625   0.70937   0.00000  Uiso   1.00
C961   C     0.46026   0.22801   0.54648   0.00000  Uiso   1.00
C962   C     0.66150   0.19171   0.65971   0.00000  Uiso   1.00
C963   C     0.65054   0.14965   0.63721   0.00000  Uiso   1.00
C964   C     0.64201   0.11197   0.66409   0.00000  Uiso   1.00
C965   C     0.64357   0.11628   0.71343   0.00000  Uiso   1.00
C966   C     0.65444   0.15820   0.73610   0.00000  Uiso   1.00
C967   C     0.33789   0.30204   0.79487   0.00000  Uiso   1.00
C968   C     0.35419   0.34062   0.77258   0.00000  Uiso   1.00
C969   C     0.36851   0.37987   0.79940   0.00000  Uiso   1.00
C970   C     0.36647   0.38103   0.84841   0.00000  Uiso   1.00
C971   C     0.34956   0.34313   0.87071   0.00000  Uiso   1.00
C972   C     0.49962   0.29107   0.94856   0.00000  Uiso   1.00
C973   C     0.33568   0.30366   0.84422   0.00000  Uiso   1.00
C974   C     0.37323   0.04639   0.81836   0.00000  Uiso   1.00
C975   C     0.35287   0.03105   0.86344   0.00000  Uiso   1.00
C976   C     0.35990   0.47148   0.68253   0.00000  Uiso   1.00
C977   C     0.65739   0.48035   0.63654   0.00000  Uiso   1.00
C978   C     0.49067   0.10596   0.62920   0.00000  Uiso   1.00
C979   C     0.52202   0.12256   0.59109   0.00000  Uiso   1.00
C980   C     0.53884   0.41344   0.87280   0.00000  Uiso   1.00
C981   C     0.58484   0.44497   0.88836   0.00000  Uiso   1.00
C982   C     0.38924   0.17736   0.53394   0.00000  Uiso   1.00
C983   C     0.46072   0.22912   0.59698   0.00000  Uiso   1.00
C984   C     0.35871   0.15005   0.99365   0.00000  Uiso   1.00
C985   C     0.45306   0.35416   0.96432   0.00000  Uiso   1.00
C986   C     0.45238   0.39474   0.99810   0.00000  Uiso   1.00
C987   C     0.62029   0.26916   0.53125   0.00000  Uiso   1.00
C988   C     0.65017   0.29229   0.99563   0.00000  Uiso   1.00
C989   C     0.55086   0.14606   0.96982   0.00000  Uiso   1.00
C990   C     0.54209   0.09561   0.96061   0.00000  Uiso   1.00
C991   C     0.49924   0.28992   0.89853   0.00000  Uiso   1.00
C992   C     0.53913   0.27142   0.60771   0.00000  Uiso   1.00
C993   C     0.50075   0.21015   0.89711   0.00000  Uiso   1.00
C994   C     0.54065   0.27187   0.55824   0.00000  Uiso   1.00
H995   H     0.45185   0.11861   0.81303   0.00000  Uiso   1.00
H996   H     0.64837   0.14613   0.59893   0.00000  Uiso   1.00
H997   H     0.63341   0.07953   0.64660   0.00000  Uiso   1.00
H998   H     0.63632   0.08714   0.73405   0.00000  Uiso   1.00
H999   H     0.65666   0.16089   0.77453   0.00000  Uiso   1.00
H1000  H     0.35521   0.34045   0.73445   0.00000  Uiso   1.00
H1001  H     0.38072   0.40957   0.78221   0.00000  Uiso   1.00
H1002  H     0.37766   0.41141   0.86910   0.00000  Uiso   1.00
H1003  H     0.34695   0.34440   0.90851   0.00000  Uiso   1.00
H1004  H     0.65636   0.27449   0.86215   0.00000  Uiso   1.00
H1005  H     0.34958   0.02970   0.78721   0.00000  Uiso   1.00
H1006  H     0.44104   0.38060   0.68205   0.00000  Uiso   1.00
H1007  H     0.36772   0.08375   0.81633   0.00000  Uiso   1.00
H1008  H     0.37586   0.04717   0.89522   0.00000  Uiso   1.00
H1009  H     0.64442   0.04101   0.86255   0.00000  Uiso   1.00
H1010  H     0.35630   0.49372   0.86617   0.00000  Uiso   1.00
H1011  H     0.35869   0.00165   0.70649   0.00000  Uiso   1.00
H1012  H     0.34445   0.44151   0.69947   0.00000  Uiso   1.00
H1013  H     0.65580   0.44989   0.61275   0.00000  Uiso   1.00
H1014  H     0.61722   0.48838   0.64462   0.00000  Uiso   1.00
H1015  H     0.33896   0.00931   0.61794   0.00000  Uiso   1.00
H1016  H     0.45708   0.12941   0.63169   0.00000  Uiso   1.00
H1017  H     0.49746   0.02037   0.68064   0.00000  Uiso   1.00
H1018  H     0.47547   0.07172   0.61786   0.00000  Uiso   1.00
H1019  H     0.55448   0.09859   0.58664   0.00000  Uiso   1.00
H1020  H     0.49649   0.12464   0.55656   0.00000  Uiso   1.00
H1021  H     0.53843   0.15656   0.60112   0.00000  Uiso   1.00
H1022  H     0.54148   0.38594   0.89900   0.00000  Uiso   1.00
H1023  H     0.50068   0.43067   0.87561   0.00000  Uiso   1.00
H1024  H     0.59027   0.46919   0.86009   0.00000  Uiso   1.00
H1025  H     0.57787   0.46416   0.92110   0.00000  Uiso   1.00
H1026  H     0.62136   0.42492   0.89636   0.00000  Uiso   1.00
H1027  H     0.36103   0.19507   0.55436   0.00000  Uiso   1.00
H1028  H     0.51217   0.48154   0.81618   0.00000  Uiso   1.00
H1029  H     0.41335   0.15325   0.55707   0.00000  Uiso   1.00
H1030  H     0.33363   0.12497   0.50846   0.00000  Uiso   1.00
H1031  H     0.33373   0.17298   0.96969   0.00000  Uiso   1.00
H1032  H     0.38621   0.13174   0.97277   0.00000  Uiso   1.00
H1033  H     0.42030   0.33140   0.97028   0.00000  Uiso   1.00
H1034  H     0.44705   0.36669   0.92728   0.00000  Uiso   1.00
H1035  H     0.48426   0.41848   0.99278   0.00000  Uiso   1.00
H1036  H     0.41418   0.41266   0.99102   0.00000  Uiso   1.00
H1037  H     0.45793   0.38340   0.53559   0.00000  Uiso   1.00
H1038  H     0.60724   0.23550   0.51567   0.00000  Uiso   1.00
H1039  H     0.42983   0.21374   0.61337   0.00000  Uiso   1.00
H1040  H     0.64712   0.26413   0.56480   0.00000  Uiso   1.00
H1041  H     0.66598   0.32515   0.51066   0.00000  Uiso   1.00
H1042  H     0.34980   0.27056   0.98720   0.00000  Uiso   1.00
H1043  H     0.62365   0.29837   0.96214   0.00000  Uiso   1.00
H1044  H     0.57381   0.15121   0.50554   0.00000  Uiso   1.00
H1045  H     0.57499   0.15831   0.94269   0.00000  Uiso   1.00
H1046  H     0.51996   0.08982   0.92463   0.00000  Uiso   1.00
H1047  H     0.58043   0.07783   0.96241   0.00000  Uiso   1.00
H1048  H     0.51959   0.08139   0.98767   0.00000  Uiso   1.00
H1049  H     0.49811   0.32103   0.87933   0.00000  Uiso   1.00
H1050  H     0.56925   0.28874   0.63146   0.00000  Uiso   1.00
H1051  H     0.50046   0.17857   0.87719   0.00000  Uiso   1.00
H1052  H     0.33532   0.22059   0.63864   0.00000  Uiso   1.00
N1053  N     0.50000   0.24999   0.62624   0.00000  Uiso   1.00
N1054  N     0.50000   0.25001   0.87377   0.00000  Uiso   1.00
O1055  O     0.50000   0.18453   0.78974   0.00000  Uiso   1.00
O1056  O     0.41134   0.46393   0.67183   0.00000  Uiso   1.00
O1057  O     0.52348   0.10510   0.67320   0.00000  Uiso   1.00
O1058  O     0.54290   0.39389   0.82718   0.00000  Uiso   1.00
O1059  O     0.42014   0.20930   0.51420   0.00000  Uiso   1.00
O1060  O     0.50181   0.33194   0.97344   0.00000  Uiso   1.00
O1061  O     0.57832   0.29739   0.54071   0.00000  Uiso   1.00
O1062  O     0.50184   0.16808   0.96952   0.00000  Uiso   1.00
O1063  O     0.50000   0.31546   0.71026   0.00000  Uiso   1.00
O1064  O     0.50000   0.18453   0.71026   0.00000  Uiso   1.00
O1065  O     0.50000   0.31547   0.78974   0.00000  Uiso   1.00
O1066  O     0.42392   0.25000   0.78045   0.00000  Uiso   1.00
O1067  O     0.57608   0.25000   0.71956   0.00000  Uiso   1.00
O1068  O     0.42392   0.24999   0.70097   0.00000  Uiso   1.00
O1069  O     0.57608   0.25000   0.79904   0.00000  Uiso   1.00
O1070  O     0.42639   0.03373   0.82010   0.00000  Uiso   1.00
Zn1071 Zn    0.50000   0.25000   0.80307   0.00000  Uiso   1.00
Zn1072 Zn    0.50000   0.24999   0.69693   0.00000  Uiso   1.00
C1073  C     0.83153   0.16343   0.74930   0.00000  Uiso   1.00
C1074  C     0.83567   0.20918   0.94709   0.00000  Uiso   1.00
C1075  C     0.83419   0.25001   0.52694   0.00000  Uiso   1.00
C1076  C     0.83457   0.25015   0.97358   0.00000  Uiso   1.00
C1077  C     0.73393   0.24898   0.73811   0.00000  Uiso   1.00
C1078  C     0.93272   0.25143   0.76196   0.00000  Uiso   1.00
C1079  C     0.68022   0.23975   0.73427   0.00000  Uiso   1.00
C1080  C     0.98651   0.26077   0.76611   0.00000  Uiso   1.00
C1081  C     0.77993   0.05222   0.78189   0.00000  Uiso   1.00
C1082  C     0.77496   0.44731   0.71172   0.00000  Uiso   1.00
C1083  C     0.79379   0.09761   0.78316   0.00000  Uiso   1.00
C1084  C     0.83278   0.33658   0.75049   0.00000  Uiso   1.00
C1085  C     0.78966   0.40221   0.71199   0.00000  Uiso   1.00
C1086  C     0.81932   0.11556   0.74694   0.00000  Uiso   1.00
C1087  C     0.82262   0.38473   0.75075   0.00000  Uiso   1.00
C1088  C     0.82913   0.08837   0.70769   0.00000  Uiso   1.00
C1089  C     0.84097   0.41216   0.79067   0.00000  Uiso   1.00
C1090  C     0.81780   0.04248   0.70784   0.00000  Uiso   1.00
C1091  C     0.82811   0.45826   0.78879   0.00000  Uiso   1.00
C1092  C     0.79439   0.02437   0.74505   0.00000  Uiso   1.00
C1093  C     0.79588   0.47567   0.74971   0.00000  Uiso   1.00
C1094  C     0.99694   0.19625   0.70937   0.00000  Uiso   1.00
C1095  C     0.79360   0.22801   0.54648   0.00000  Uiso   1.00
C1096  C     0.99483   0.19171   0.65971   0.00000  Uiso   1.00
C1097  C     0.98387   0.14965   0.63721   0.00000  Uiso   1.00
C1098  C     0.97534   0.11197   0.66409   0.00000  Uiso   1.00
C1099  C     0.97691   0.11628   0.71343   0.00000  Uiso   1.00
C1100  C     0.98778   0.15820   0.73610   0.00000  Uiso   1.00
C1101  C     0.67122   0.30204   0.79487   0.00000  Uiso   1.00
C1102  C     0.68752   0.34062   0.77258   0.00000  Uiso   1.00
C1103  C     0.70185   0.37987   0.79940   0.00000  Uiso   1.00
C1104  C     0.69980   0.38103   0.84841   0.00000  Uiso   1.00
C1105  C     0.68290   0.34313   0.87071   0.00000  Uiso   1.00
C1106  C     0.83295   0.29107   0.94856   0.00000  Uiso   1.00
C1107  C     0.66902   0.30366   0.84422   0.00000  Uiso   1.00
C1108  C     0.70656   0.04639   0.81836   0.00000  Uiso   1.00
C1109  C     0.68621   0.03105   0.86344   0.00000  Uiso   1.00
C1110  C     0.69324   0.47148   0.68253   0.00000  Uiso   1.00
C1111  C     0.99072   0.48035   0.63654   0.00000  Uiso   1.00
C1112  C     0.82401   0.10596   0.62920   0.00000  Uiso   1.00
C1113  C     0.85535   0.12256   0.59109   0.00000  Uiso   1.00
C1114  C     0.87217   0.41344   0.87280   0.00000  Uiso   1.00
C1115  C     0.91817   0.44497   0.88836   0.00000  Uiso   1.00
C1116  C     0.72258   0.17736   0.53394   0.00000  Uiso   1.00
C1117  C     0.79405   0.22912   0.59698   0.00000  Uiso   1.00
C1118  C     0.69204   0.15005   0.99365   0.00000  Uiso   1.00
C1119  C     0.78639   0.35416   0.96432   0.00000  Uiso   1.00
C1120  C     0.78571   0.39474   0.99810   0.00000  Uiso   1.00
C1121  C     0.95363   0.26916   0.53125   0.00000  Uiso   1.00
C1122  C     0.98351   0.29229   0.99563   0.00000  Uiso   1.00
C1123  C     0.88420   0.14606   0.96982   0.00000  Uiso   1.00
C1124  C     0.87543   0.09561   0.96061   0.00000  Uiso   1.00
C1125  C     0.83258   0.28992   0.89853   0.00000  Uiso   1.00
C1126  C     0.87247   0.27142   0.60771   0.00000  Uiso   1.00
C1127  C     0.83408   0.21015   0.89711   0.00000  Uiso   1.00
C1128  C     0.87399   0.27187   0.55824   0.00000  Uiso   1.00
H1129  H     0.78518   0.11861   0.81303   0.00000  Uiso   1.00
H1130  H     0.98170   0.14613   0.59893   0.00000  Uiso   1.00
H1131  H     0.96675   0.07953   0.64660   0.00000  Uiso   1.00
H1132  H     0.96966   0.08714   0.73405   0.00000  Uiso   1.00
H1133  H     0.98999   0.16089   0.77453   0.00000  Uiso   1.00
H1134  H     0.68854   0.34045   0.73445   0.00000  Uiso   1.00
H1135  H     0.71405   0.40957   0.78221   0.00000  Uiso   1.00
H1136  H     0.71099   0.41141   0.86910   0.00000  Uiso   1.00
H1137  H     0.68028   0.34440   0.90851   0.00000  Uiso   1.00
H1138  H     0.98969   0.27449   0.86215   0.00000  Uiso   1.00
H1139  H     0.68291   0.02970   0.78721   0.00000  Uiso   1.00
H1140  H     0.77438   0.38060   0.68205   0.00000  Uiso   1.00
H1141  H     0.70105   0.08375   0.81633   0.00000  Uiso   1.00
H1142  H     0.70920   0.04717   0.89522   0.00000  Uiso   1.00
H1143  H     0.97776   0.04101   0.86255   0.00000  Uiso   1.00
H1144  H     0.68964   0.49372   0.86617   0.00000  Uiso   1.00
H1145  H     0.69202   0.00165   0.70649   0.00000  Uiso   1.00
H1146  H     0.67779   0.44151   0.69947   0.00000  Uiso   1.00
H1147  H     0.98914   0.44989   0.61275   0.00000  Uiso   1.00
H1148  H     0.95056   0.48838   0.64462   0.00000  Uiso   1.00
H1149  H     0.67230   0.00931   0.61794   0.00000  Uiso   1.00
H1150  H     0.79041   0.12941   0.63169   0.00000  Uiso   1.00
H1151  H     0.83080   0.02037   0.68064   0.00000  Uiso   1.00
H1152  H     0.80880   0.07172   0.61786   0.00000  Uiso   1.00
H1153  H     0.88781   0.09859   0.58664   0.00000  Uiso   1.00
H1154  H     0.82983   0.12464   0.55656   0.00000  Uiso   1.00
H1155  H     0.87177   0.15656   0.60112   0.00000  Uiso   1.00
H1156  H     0.87481   0.38594   0.89900   0.00000  Uiso   1.00
H1157  H     0.83401   0.43067   0.87561   0.00000  Uiso   1.00
H1158  H     0.92360   0.46919   0.86009   0.00000  Uiso   1.00
H1159  H     0.91120   0.46416   0.92110   0.00000  Uiso   1.00
H1160  H     0.95469   0.42492   0.89636   0.00000  Uiso   1.00
H1161  H     0.69436   0.19507   0.55436   0.00000  Uiso   1.00
H1162  H     0.84550   0.48154   0.81618   0.00000  Uiso   1.00
H1163  H     0.74668   0.15325   0.55707   0.00000  Uiso   1.00
H1164  H     0.66697   0.12497   0.50846   0.00000  Uiso   1.00
H1165  H     0.66706   0.17298   0.96969   0.00000  Uiso   1.00
H1166  H     0.71954   0.13174   0.97277   0.00000  Uiso   1.00
H1167  H     0.75364   0.33140   0.97028   0.00000  Uiso   1.00
H1168  H     0.78038   0.36669   0.92728   0.00000  Uiso   1.00
H1169  H     0.81760   0.41848   0.99278   0.00000  Uiso   1.00
H1170  H     0.74752   0.41266   0.99102   0.00000  Uiso   1.00
H1171  H     0.79126   0.38340   0.53559   0.00000  Uiso   1.00
H1172  H     0.94057   0.23550   0.51567   0.00000  Uiso   1.00
H1173  H     0.76316   0.21374   0.61337   0.00000  Uiso   1.00
H1174  H     0.98046   0.26413   0.56480   0.00000  Uiso   1.00
H1175  H     0.99932   0.32515   0.51066   0.00000  Uiso   1.00
H1176  H     0.68313   0.27056   0.98720   0.00000  Uiso   1.00
H1177  H     0.95698   0.29837   0.96214   0.00000  Uiso   1.00
H1178  H     0.90714   0.15121   0.50554   0.00000  Uiso   1.00
H1179  H     0.90832   0.15831   0.94269   0.00000  Uiso   1.00
H1180  H     0.85329   0.08982   0.92463   0.00000  Uiso   1.00
H1181  H     0.91376   0.07783   0.96241   0.00000  Uiso   1.00
H1182  H     0.85292   0.08139   0.98767   0.00000  Uiso   1.00
H1183  H     0.83144   0.32103   0.87933   0.00000  Uiso   1.00
H1184  H     0.90259   0.28874   0.63146   0.00000  Uiso   1.00
H1185  H     0.83379   0.17857   0.87719   0.00000  Uiso   1.00
H1186  H     0.66866   0.22059   0.63864   0.00000  Uiso   1.00
N1187  N     0.83333   0.24999   0.62624   0.00000  Uiso   1.00
N1188  N     0.83333   0.25001   0.87377   0.00000  Uiso   1.00
O1189  O     0.83334   0.18453   0.78974   0.00000  Uiso   1.00
O1190  O     0.74468   0.46393   0.67183   0.00000  Uiso   1.00
O1191  O     0.85682   0.10510   0.67320   0.00000  Uiso   1.00
O1192  O     0.87623   0.39389   0.82718   0.00000  Uiso   1.00
O1193  O     0.75347   0.20930   0.51420   0.00000  Uiso   1.00
O1194  O     0.83514   0.33194   0.97344   0.00000  Uiso   1.00
O1195  O     0.91166   0.29739   0.54071   0.00000  Uiso   1.00
O1196  O     0.83518   0.16808   0.96952   0.00000  Uiso   1.00
O1197  O     0.83333   0.31546   0.71026   0.00000  Uiso   1.00
O1198  O     0.83334   0.18453   0.71026   0.00000  Uiso   1.00
O1199  O     0.83333   0.31547   0.78974   0.00000  Uiso   1.00
O1200  O     0.75725   0.25000   0.78045   0.00000  Uiso   1.00
O1201  O     0.90942   0.25000   0.71956   0.00000  Uiso   1.00
O1202  O     0.75725   0.24999   0.70097   0.00000  Uiso   1.00
O1203  O     0.90942   0.25000   0.79904   0.00000  Uiso   1.00
O1204  O     0.75972   0.03373   0.82010   0.00000  Uiso   1.00
Zn1205 Zn    0.83333   0.25000   0.80307   0.00000  Uiso   1.00
Zn1206 Zn    0.83333   0.24999   0.69693   0.00000  Uiso   1.00
C1207  C     0.16486   0.66343   0.74930   0.00000  Uiso   1.00
C1208  C     0.16900   0.70918   0.94709   0.00000  Uiso   1.00
C1209  C     0.16753   0.75001   0.52694   0.00000  Uiso   1.00
C1210  C     0.16790   0.75015   0.97358   0.00000  Uiso   1.00
C1211  C     0.06727   0.74898   0.73811   0.00000  Uiso   1.00
C1212  C     0.26605   0.75143   0.76196   0.00000  Uiso   1.00
C1213  C     0.01355   0.73975   0.73427   0.00000  Uiso   1.00
C1214  C     0.31985   0.76077   0.76611   0.00000  Uiso   1.00
C1215  C     0.11326   0.55222   0.78189   0.00000  Uiso   1.00
C1216  C     0.10829   0.94731   0.71172   0.00000  Uiso   1.00
C1217  C     0.12712   0.59761   0.78316   0.00000  Uiso   1.00
C1218  C     0.16611   0.83658   0.75049   0.00000  Uiso   1.00
C1219  C     0.12299   0.90221   0.71199   0.00000  Uiso   1.00
C1220  C     0.15265   0.61556   0.74694   0.00000  Uiso   1.00
C1221  C     0.15596   0.88473   0.75075   0.00000  Uiso   1.00
C1222  C     0.16246   0.58837   0.70769   0.00000  Uiso   1.00
C1223  C     0.17431   0.91216   0.79067   0.00000  Uiso   1.00
C1224  C     0.15113   0.54248   0.70784   0.00000  Uiso   1.00
C1225  C     0.16144   0.95826   0.78879   0.00000  Uiso   1.00
C1226  C     0.12772   0.52437   0.74505   0.00000  Uiso   1.00
C1227  C     0.12921   0.97567   0.74971   0.00000  Uiso   1.00
C1228  C     0.33027   0.69625   0.70937   0.00000  Uiso   1.00
C1229  C     0.12693   0.72801   0.54648   0.00000  Uiso   1.00
C1230  C     0.32817   0.69171   0.65971   0.00000  Uiso   1.00
C1231  C     0.31720   0.64965   0.63721   0.00000  Uiso   1.00
C1232  C     0.30867   0.61197   0.66409   0.00000  Uiso   1.00
C1233  C     0.31024   0.61628   0.71343   0.00000  Uiso   1.00
C1234  C     0.32111   0.65820   0.73610   0.00000  Uiso   1.00
C1235  C     0.00456   0.80204   0.79487   0.00000  Uiso   1.00
C1236  C     0.02085   0.84062   0.77258   0.00000  Uiso   1.00
C1237  C     0.03518   0.87987   0.79940   0.00000  Uiso   1.00
C1238  C     0.03314   0.88103   0.84841   0.00000  Uiso   1.00
C1239  C     0.01623   0.84313   0.87071   0.00000  Uiso   1.00
C1240  C     0.16628   0.79107   0.94856   0.00000  Uiso   1.00
C1241  C     0.00235   0.80366   0.84422   0.00000  Uiso   1.00
C1242  C     0.03989   0.54639   0.81836   0.00000  Uiso   1.00
C1243  C     0.01954   0.53105   0.86344   0.00000  Uiso   1.00
C1244  C     0.02657   0.97148   0.68253   0.00000  Uiso   1.00
C1245  C     0.32406   0.98035   0.63654   0.00000  Uiso   1.00
C1246  C     0.15734   0.60596   0.62920   0.00000  Uiso   1.00
C1247  C     0.18869   0.62256   0.59109   0.00000  Uiso   1.00
C1248  C     0.20551   0.91344   0.87280   0.00000  Uiso   1.00
C1249  C     0.25150   0.94497   0.88836   0.00000  Uiso   1.00
C1250  C     0.05591   0.67736   0.53394   0.00000  Uiso   1.00
C1251  C     0.12738   0.72912   0.59698   0.00000  Uiso   1.00
C1252  C     0.02538   0.65005   0.99365   0.00000  Uiso   1.00
C1253  C     0.11972   0.85416   0.96432   0.00000  Uiso   1.00
C1254  C     0.11904   0.89474   0.99810   0.00000  Uiso   1.00
C1255  C     0.28696   0.76916   0.53125   0.00000  Uiso   1.00
C1256  C     0.31684   0.79229   0.99563   0.00000  Uiso   1.00
C1257  C     0.21753   0.64606   0.96982   0.00000  Uiso   1.00
C1258  C     0.20876   0.59561   0.96061   0.00000  Uiso   1.00
C1259  C     0.16591   0.78992   0.89853   0.00000  Uiso   1.00
C1260  C     0.20580   0.77142   0.60771   0.00000  Uiso   1.00
C1261  C     0.16742   0.71015   0.89711   0.00000  Uiso   1.00
C1262  C     0.20732   0.77187   0.55824   0.00000  Uiso   1.00
H1263  H     0.11852   0.61861   0.81303   0.00000  Uiso   1.00
H1264  H     0.31504   0.64613   0.59893   0.00000  Uiso   1.00
H1265  H     0.30008   0.57953   0.64660   0.00000  Uiso   1.00
H1266  H     0.30299   0.58714   0.73405   0.00000  Uiso   1.00
H1267  H     0.32333   0.66089   0.77453   0.00000  Uiso   1.00
H1268  H     0.02187   0.84045   0.73445   0.00000  Uiso   1.00
H1269  H     0.04739   0.90957   0.78221   0.00000  Uiso   1.00
H1270  H     0.04433   0.91141   0.86910   0.00000  Uiso   1.00
H1271  H     0.01362   0.84440   0.90851   0.00000  Uiso   1.00
H1272  H     0.32303   0.77449   0.86215   0.00000  Uiso   1.00
H1273  H     0.01625   0.52970   0.78721   0.00000  Uiso   1.00
H1274  H     0.10771   0.88060   0.68205   0.00000  Uiso   1.00
H1275  H     0.03439   0.58375   0.81633   0.00000  Uiso   1.00
H1276  H     0.04253   0.54717   0.89522   0.00000  Uiso   1.00
H1277  H     0.31109   0.54101   0.86255   0.00000  Uiso   1.00
H1278  H     0.02297   0.99372   0.86617   0.00000  Uiso   1.00
H1279  H     0.02536   0.50165   0.70649   0.00000  Uiso   1.00
H1280  H     0.01112   0.94151   0.69947   0.00000  Uiso   1.00
H1281  H     0.32247   0.94989   0.61275   0.00000  Uiso   1.00
H1282  H     0.28389   0.98838   0.64462   0.00000  Uiso   1.00
H1283  H     0.00563   0.50931   0.61794   0.00000  Uiso   1.00
H1284  H     0.12375   0.62941   0.63169   0.00000  Uiso   1.00
H1285  H     0.16413   0.52037   0.68064   0.00000  Uiso   1.00
H1286  H     0.14213   0.57172   0.61786   0.00000  Uiso   1.00
H1287  H     0.22114   0.59859   0.58664   0.00000  Uiso   1.00
H1288  H     0.16316   0.62464   0.55656   0.00000  Uiso   1.00
H1289  H     0.20510   0.65656   0.60112   0.00000  Uiso   1.00
H1290  H     0.20814   0.88594   0.89900   0.00000  Uiso   1.00
H1291  H     0.16734   0.93067   0.87561   0.00000  Uiso   1.00
H1292  H     0.25693   0.96919   0.86009   0.00000  Uiso   1.00
H1293  H     0.24453   0.96416   0.92110   0.00000  Uiso   1.00
H1294  H     0.28803   0.92492   0.89636   0.00000  Uiso   1.00
H1295  H     0.02769   0.69507   0.55436   0.00000  Uiso   1.00
H1296  H     0.17883   0.98154   0.81618   0.00000  Uiso   1.00
H1297  H     0.08002   0.65325   0.55707   0.00000  Uiso   1.00
H1298  H     0.00030   0.62497   0.50846   0.00000  Uiso   1.00
H1299  H     0.00040   0.67298   0.96969   0.00000  Uiso   1.00
H1300  H     0.05287   0.63174   0.97277   0.00000  Uiso   1.00
H1301  H     0.08697   0.83140   0.97028   0.00000  Uiso   1.00
H1302  H     0.11372   0.86669   0.92728   0.00000  Uiso   1.00
H1303  H     0.15093   0.91848   0.99278   0.00000  Uiso   1.00
H1304  H     0.08085   0.91266   0.99102   0.00000  Uiso   1.00
H1305  H     0.12459   0.88340   0.53559   0.00000  Uiso   1.00
H1306  H     0.27390   0.73550   0.51567   0.00000  Uiso   1.00
H1307  H     0.09649   0.71374   0.61337   0.00000  Uiso   1.00
H1308  H     0.31379   0.76413   0.56480   0.00000  Uiso   1.00
H1309  H     0.33265   0.82515   0.51066   0.00000  Uiso   1.00
H1310  H     0.01647   0.77056   0.98720   0.00000  Uiso   1.00
H1311  H     0.29031   0.79837   0.96214   0.00000  Uiso   1.00
H1312  H     0.24047   0.65121   0.50554   0.00000  Uiso   1.00
H1313  H     0.24166   0.65831   0.94269   0.00000  Uiso   1.00
H1314  H     0.18662   0.58982   0.92463   0.00000  Uiso   1.00
H1315  H     0.24710   0.57783   0.96241   0.00000  Uiso   1.00
H1316  H     0.18626   0.58139   0.98767   0.00000  Uiso   1.00
H1317  H     0.16478   0.82103   0.87933   0.00000  Uiso   1.00
H1318  H     0.23592   0.78874   0.63146   0.00000  Uiso   1.00
H1319  H     0.16712   0.67857   0.87719   0.00000  Uiso   1.00
H1320  H     0.00199   0.72059   0.63864   0.00000  Uiso   1.00
N1321  N     0.16667   0.74999   0.62624   0.00000  Uiso   1.00
N1322  N     0.16667   0.75001   0.87377   0.00000  Uiso   1.00
O1323  O     0.16667   0.68453   0.78974   0.00000  Uiso   1.00
O1324  O     0.07801   0.96393   0.67183   0.00000  Uiso   1.00
O1325  O     0.19015   0.60510   0.67320   0.00000  Uiso   1.00
O1326  O     0.20957   0.89389   0.82718   0.00000  Uiso   1.00
O1327  O     0.08681   0.70930   0.51420   0.00000  Uiso   1.00
O1328  O     0.16847   0.83194   0.97344   0.00000  Uiso   1.00
O1329  O     0.24499   0.79739   0.54071   0.00000  Uiso   1.00
O1330  O     0.16851   0.66808   0.96952   0.00000  Uiso   1.00
O1331  O     0.16666   0.81546   0.71026   0.00000  Uiso   1.00
O1332  O     0.16667   0.68453   0.71026   0.00000  Uiso   1.00
O1333  O     0.16666   0.81547   0.78974   0.00000  Uiso   1.00
O1334  O     0.09058   0.75000   0.78045   0.00000  Uiso   1.00
O1335  O     0.24275   0.75000   0.71956   0.00000  Uiso   1.00
O1336  O     0.09058   0.74999   0.70097   0.00000  Uiso   1.00
O1337  O     0.24275   0.75000   0.79904   0.00000  Uiso   1.00
O1338  O     0.09306   0.53373   0.82010   0.00000  Uiso   1.00
Zn1339 Zn    0.16667   0.75000   0.80307   0.00000  Uiso   1.00
Zn1340 Zn    0.16667   0.74999   0.69693   0.00000  Uiso   1.00
C1341  C     0.49819   0.66343   0.74930   0.00000  Uiso   1.00
C1342  C     0.50234   0.70918   0.94709   0.00000  Uiso   1.00
C1343  C     0.50086   0.75001   0.52694   0.00000  Uiso   1.00
C1344  C     0.50124   0.75015   0.97358   0.00000  Uiso   1.00
C1345  C     0.40060   0.74898   0.73811   0.00000  Uiso   1.00
C1346  C     0.59939   0.75143   0.76196   0.00000  Uiso   1.00
C1347  C     0.34688   0.73975   0.73427   0.00000  Uiso   1.00
C1348  C     0.65318   0.76077   0.76611   0.00000  Uiso   1.00
C1349  C     0.44660   0.55222   0.78189   0.00000  Uiso   1.00
C1350  C     0.44163   0.94731   0.71172   0.00000  Uiso   1.00
C1351  C     0.46046   0.59761   0.78316   0.00000  Uiso   1.00
C1352  C     0.49944   0.83658   0.75049   0.00000  Uiso   1.00
C1353  C     0.45633   0.90221   0.71199   0.00000  Uiso   1.00
C1354  C     0.48598   0.61556   0.74694   0.00000  Uiso   1.00
C1355  C     0.48929   0.88473   0.75075   0.00000  Uiso   1.00
C1356  C     0.49579   0.58837   0.70769   0.00000  Uiso   1.00
C1357  C     0.50764   0.91216   0.79067   0.00000  Uiso   1.00
C1358  C     0.48446   0.54248   0.70784   0.00000  Uiso   1.00
C1359  C     0.49478   0.95826   0.78879   0.00000  Uiso   1.00
C1360  C     0.46105   0.52437   0.74505   0.00000  Uiso   1.00
C1361  C     0.46254   0.97567   0.74971   0.00000  Uiso   1.00
C1362  C     0.66361   0.69625   0.70937   0.00000  Uiso   1.00
C1363  C     0.46026   0.72801   0.54648   0.00000  Uiso   1.00
C1364  C     0.66150   0.69171   0.65971   0.00000  Uiso   1.00
C1365  C     0.65054   0.64965   0.63721   0.00000  Uiso   1.00
C1366  C     0.64201   0.61197   0.66409   0.00000  Uiso   1.00
C1367  C     0.64357   0.61628   0.71343   0.00000  Uiso   1.00
C1368  C     0.65444   0.65820   0.73610   0.00000  Uiso   1.00
C1369  C     0.33789   0.80204   0.79487   0.00000  Uiso   1.00
C1370  C     0.35419   0.84062   0.77258   0.00000  Uiso   1.00
C1371  C     0.36851   0.87987   0.79940   0.00000  Uiso   1.00
C1372  C     0.36647   0.88103   0.84841   0.00000  Uiso   1.00
C1373  C     0.34956   0.84313   0.87071   0.00000  Uiso   1.00
C1374  C     0.49962   0.79107   0.94856   0.00000  Uiso   1.00
C1375  C     0.33568   0.80366   0.84422   0.00000  Uiso   1.00
C1376  C     0.37323   0.54639   0.81836   0.00000  Uiso   1.00
C1377  C     0.35287   0.53105   0.86344   0.00000  Uiso   1.00
C1378  C     0.35990   0.97148   0.68253   0.00000  Uiso   1.00
C1379  C     0.65739   0.98035   0.63654   0.00000  Uiso   1.00
C1380  C     0.49067   0.60596   0.62920   0.00000  Uiso   1.00
C1381  C     0.52202   0.62256   0.59109   0.00000  Uiso   1.00
C1382  C     0.53884   0.91344   0.87280   0.00000  Uiso   1.00
C1383  C     0.58484   0.94497   0.88836   0.00000  Uiso   1.00
C1384  C     0.38924   0.67736   0.53394   0.00000  Uiso   1.00
C1385  C     0.46072   0.72912   0.59698   0.00000  Uiso   1.00
C1386  C     0.35871   0.65005   0.99365   0.00000  Uiso   1.00
C1387  C     0.45306   0.85416   0.96432   0.00000  Uiso   1.00
C1388  C     0.45238   0.89474   0.99810   0.00000  Uiso   1.00
C1389  C     0.62029   0.76916   0.53125   0.00000  Uiso   1.00
C1390  C     0.65017   0.79229   0.99563   0.00000  Uiso   1.00
C1391  C     0.55086   0.64606   0.96982   0.00000  Uiso   1.00
C1392  C     0.54209   0.59561   0.96061   0.00000  Uiso   1.00
C1393  C     0.49924   0.78992   0.89853   0.00000  Uiso   1.00
C1394  C     0.53913   0.77142   0.60771   0.00000  Uiso   1.00
C1395  C     0.50075   0.71015   0.89711   0.00000  Uiso   1.00
C1396  C     0.54065   0.77187   0.55824   0.00000  Uiso   1.00
H1397  H     0.45185   0.61861   0.81303   0.00000  Uiso   1.00
H1398  H     0.64837   0.64613   0.59893   0.00000  Uiso   1.00
H1399  H     0.63341   0.57953   0.64660   0.00000  Uiso   1.00
H1400  H     0.63632   0.58714   0.73405   0.00000  Uiso   1.00
H1401  H     0.65666   0.66089   0.77453   0.00000  Uiso   1.00
H1402  H     0.35521   0.84045   0.73445   0.00000  Uiso   1.00
H1403  H     0.38072   0.90957   0.78221   0.00000  Uiso   1.00
H1404  H     0.37766   0.91141   0.86910   0.00000  Uiso   1.00
H1405  H     0.34695   0.84440   0.90851   0.00000  Uiso   1.00
H1406  H     0.65636   0.77449   0.86215   0.00000  Uiso   1.00
H1407  H     0.34958   0.52970   0.78721   0.00000  Uiso   1.00
H1408  H     0.44104   0.88060   0.68205   0.00000  Uiso   1.00
H1409  H     0.36772   0.58375   0.81633   0.00000  Uiso   1.00
H1410  H     0.37586   0.54717   0.89522   0.00000  Uiso   1.00
H1411  H     0.64442   0.54101   0.86255   0.00000  Uiso   1.00
H1412  H     0.35630   0.99372   0.86617   0.00000  Uiso   1.00
H1413  H     0.35869   0.50165   0.70649   0.00000  Uiso   1.00
H1414  H     0.34445   0.94151   0.69947   0.00000  Uiso   1.00
H1415  H     0.65580   0.94989   0.61275   0.00000  Uiso   1.00
H1416  H     0.61722   0.98838   0.64462   0.00000  Uiso   1.00
H1417  H     0.33896   0.50931   0.61794   0.00000  Uiso   1.00
H1418  H     0.45708   0.62941   0.63169   0.00000  Uiso   1.00
H1419  H     0.49746   0.52037   0.68064   0.00000  Uiso   1.00
H1420  H     0.47547   0.57172   0.61786   0.00000  Uiso   1.00
H1421  H     0.55448   0.59859   0.58664   0.00000  Uiso   1.00
H1422  H     0.49649   0.62464   0.55656   0.00000  Uiso   1.00
H1423  H     0.53843   0.65656   0.60112   0.00000  Uiso   1.00
H1424  H     0.54148   0.88594   0.89900   0.00000  Uiso   1.00
H1425  H     0.50068   0.93067   0.87561   0.00000  Uiso   1.00
H1426  H     0.59027   0.96919   0.86009   0.00000  Uiso   1.00
H1427  H     0.57787   0.96416   0.92110   0.00000  Uiso   1.00
H1428  H     0.62136   0.92492   0.89636   0.00000  Uiso   1.00
H1429  H     0.36103   0.69507   0.55436   0.00000  Uiso   1.00
H1430  H     0.51217   0.98154   0.81618   0.00000  Uiso   1.00
H1431  H     0.41335   0.65325   0.55707   0.00000  Uiso   1.00
H1432  H     0.33363   0.62497   0.50846   0.00000  Uiso   1.00
H1433  H     0.33373   0.67298   0.96969   0.00000  Uiso   1.00
H1434  H     0.38621   0.63174   0.97277   0.00000  Uiso   1.00
H1435  H     0.42030   0.83140   0.97028   0.00000  Uiso   1.00
H1436  H     0.44705   0.86669   0.92728   0.00000  Uiso   1.00
H1437  H     0.48426   0.91848   0.99278   0.00000  Uiso   1.00
H1438  H     0.41418   0.91266   0.99102   0.00000  Uiso   1.00
H1439  H     0.45793   0.88340   0.53559   0.00000  Uiso   1.00
H1440  H     0.60724   0.73550   0.51567   0.00000  Uiso   1.00
H1441  H     0.42983   0.71374   0.61337   0.00000  Uiso   1.00
H1442  H     0.64712   0.76413   0.56480   0.00000  Uiso   1.00
H1443  H     0.66598   0.82515   0.51066   0.00000  Uiso   1.00
H1444  H     0.34980   0.77056   0.98720   0.00000  Uiso   1.00
H1445  H     0.62365   0.79837   0.96214   0.00000  Uiso   1.00
H1446  H     0.57381   0.65121   0.50554   0.00000  Uiso   1.00
H1447  H     0.57499   0.65831   0.94269   0.00000  Uiso   1.00
H1448  H     0.51996   0.58982   0.92463   0.00000  Uiso   1.00
H1449  H     0.58043   0.57783   0.96241   0.00000  Uiso   1.00
H1450  H     0.51959   0.58139   0.98767   0.00000  Uiso   1.00
H1451  H     0.49811   0.82103   0.87933   0.00000  Uiso   1.00
H1452  H     0.56925   0.78874   0.63146   0.00000  Uiso   1.00
H1453  H     0.50046   0.67857   0.87719   0.00000  Uiso   1.00
H1454  H     0.33532   0.72059   0.63864   0.00000  Uiso   1.00
N1455  N     0.50000   0.74999   0.62624   0.00000  Uiso   1.00
N1456  N     0.50000   0.75001   0.87377   0.00000  Uiso   1.00
O1457  O     0.50000   0.68453   0.78974   0.00000  Uiso   1.00
O1458  O     0.41134   0.96393   0.67183   0.00000  Uiso   1.00
O1459  O     0.52348   0.60510   0.67320   0.00000  Uiso   1.00
O1460  O     0.54290   0.89389   0.82718   0.00000  Uiso   1.00
O1461  O     0.42014   0.70930   0.51420   0.00000  Uiso   1.00
O1462  O     0.50181   0.83194   0.97344   0.00000  Uiso   1.00
O1463  O     0.57832   0.79739   0.54071   0.00000  Uiso   1.00
O1464  O     0.50184   0.66808   0.96952   0.00000  Uiso   1.00
O1465  O     0.50000   0.81546   0.71026   0.00000  Uiso   1.00
O1466  O     0.50000   0.68453   0.71026   0.00000  Uiso   1.00
O1467  O     0.50000   0.81547   0.78974   0.00000  Uiso   1.00
O1468  O     0.42392   0.75000   0.78045   0.00000  Uiso   1.00
O1469  O     0.57608   0.75000   0.71956   0.00000  Uiso   1.00
O1470  O     0.42392   0.74999   0.70097   0.00000  Uiso   1.00
O1471  O     0.57608   0.75000   0.79904   0.00000  Uiso   1.00
O1472  O     0.42639   0.53373   0.82010   0.00000  Uiso   1.00
Zn1473 Zn    0.50000   0.75000   0.80307   0.00000  Uiso   1.00
Zn1474 Zn    0.50000   0.74999   0.69693   0.00000  Uiso   1.00
C1475  C     0.83153   0.66343   0.74930   0.00000  Uiso   1.00
C1476  C     0.83567   0.70918   0.94709   0.00000  Uiso   1.00
C1477  C     0.83419   0.75001   0.52694   0.00000  Uiso   1.00
C1478  C     0.83457   0.75015   0.97358   0.00000  Uiso   1.00
C1479  C     0.73393   0.74898   0.73811   0.00000  Uiso   1.00
C1480  C     0.93272   0.75143   0.76196   0.00000  Uiso   1.00
C1481  C     0.68022   0.73975   0.73427   0.00000  Uiso   1.00
C1482  C     0.98651   0.76077   0.76611   0.00000  Uiso   1.00
C1483  C     0.77993   0.55222   0.78189   0.00000  Uiso   1.00
C1484  C     0.77496   0.94731   0.71172   0.00000  Uiso   1.00
C1485  C     0.79379   0.59761   0.78316   0.00000  Uiso   1.00
C1486  C     0.83278   0.83658   0.75049   0.00000  Uiso   1.00
C1487  C     0.78966   0.90221   0.71199   0.00000  Uiso   1.00
C1488  C     0.81932   0.61556   0.74694   0.00000  Uiso   1.00
C1489  C     0.82262   0.88473   0.75075   0.00000  Uiso   1.00
C1490  C     0.82913   0.58837   0.70769   0.00000  Uiso   1.00
C1491  C     0.84097   0.91216   0.79067   0.00000  Uiso   1.00
C1492  C     0.81780   0.54248   0.70784   0.00000  Uiso   1.00
C1493  C     0.82811   0.95826   0.78879   0.00000  Uiso   1.00
C1494  C     0.79439   0.52437   0.74505   0.00000  Uiso   1.00
C1495  C     0.79588   0.97567   0.74971   0.00000  Uiso   1.00
C1496  C     0.99694   0.69625   0.70937   0.00000  Uiso   1.00
C1497  C     0.79360   0.72801   0.54648   0.00000  Uiso   1.00
C1498  C     0.99483   0.69171   0.65971   0.00000  Uiso   1.00
C1499  C     0.98387   0.64965   0.63721   0.00000  Uiso   1.00
C1500  C     0.97534   0.61197   0.66409   0.00000  Uiso   1.00
C1501  C     0.97691   0.61628   0.71343   0.00000  Uiso   1.00
C1502  C     0.98778   0.65820   0.73610   0.00000  Uiso   1.00
C1503  C     0.67122   0.80204   0.79487   0.00000  Uiso   1.00
C1504  C     0.68752   0.84062   0.77258   0.00000  Uiso   1.00
C1505  C     0.70185   0.87987   0.79940   0.00000  Uiso   1.00
C1506  C     0.69980   0.88103   0.84841   0.00000  Uiso   1.00
C1507  C     0.68290   0.84313   0.87071   0.00000  Uiso   1.00
C1508  C     0.83295   0.79107   0.94856   0.00000  Uiso   1.00
C1509  C     0.66902   0.80366   0.84422   0.00000  Uiso   1.00
C1510  C     0.70656   0.54639   0.81836   0.00000  Uiso   1.00
C1511  C     0.68621   0.53105   0.86344   0.00000  Uiso   1.00
C1512  C     0.69324   0.97148   0.68253   0.00000  Uiso   1.00
C1513  C     0.99072   0.98035   0.63654   0.00000  Uiso   1.00
C1514  C     0.82401   0.60596   0.62920   0.00000  Uiso   1.00
C1515  C     0.85535   0.62256   0.59109   0.00000  Uiso   1.00
C1516  C     0.87217   0.91344   0.87280   0.00000  Uiso   1.00
C1517  C     0.91817   0.94497   0.88836   0.00000  Uiso   1.00
C1518  C     0.72258   0.67736   0.53394   0.00000  Uiso   1.00
C1519  C     0.79405   0.72912   0.59698   0.00000  Uiso   1.00
C1520  C     0.69204   0.65005   0.99365   0.00000  Uiso   1.00
C1521  C     0.78639   0.85416   0.96432   0.00000  Uiso   1.00
C1522  C     0.78571   0.89474   0.99810   0.00000  Uiso   1.00
C1523  C     0.95363   0.76916   0.53125   0.00000  Uiso   1.00
C1524  C     0.98351   0.79229   0.99563   0.00000  Uiso   1.00
C1525  C     0.88420   0.64606   0.96982   0.00000  Uiso   1.00
C1526  C     0.87543   0.59561   0.96061   0.00000  Uiso   1.00
C1527  C     0.83258   0.78992   0.89853   0.00000  Uiso   1.00
C1528  C     0.87247   0.77142   0.60771   0.00000  Uiso   1.00
C1529  C     0.83408   0.71015   0.89711   0.00000  Uiso   1.00
C1530  C     0.87399   0.77187   0.55824   0.00000  Uiso   1.00
H1531  H     0.78518   0.61861   0.81303   0.00000  Uiso   1.00
H1532  H     0.98170   0.64613   0.59893   0.00000  Uiso   1.00
H1533  H     0.96675   0.57953   0.64660   0.00000  Uiso   1.00
H1534  H     0.96966   0.58714   0.73405   0.00000  Uiso   1.00
H1535  H     0.98999   0.66089   0.77453   0.00000  Uiso   1.00
H1536  H     0.68854   0.84045   0.73445   0.00000  Uiso   1.00
H1537  H     0.71405   0.90957   0.78221   0.00000  Uiso   1.00
H1538  H     0.71099   0.91141   0.86910   0.00000  Uiso   1.00
H1539  H     0.68028   0.84440   0.90851   0.00000  Uiso   1.00
H1540  H     0.98969   0.77449   0.86215   0.00000  Uiso   1.00
H1541  H     0.68291   0.52970   0.78721   0.00000  Uiso   1.00
H1542  H     0.77438   0.88060   0.68205   0.00000  Uiso   1.00
H1543  H     0.70105   0.58375   0.81633   0.00000  Uiso   1.00
H1544  H     0.70920   0.54717   0.89522   0.00000  Uiso   1.00
H1545  H     0.97776   0.54101   0.86255   0.00000  Uiso   1.00
H1546  H     0.68964   0.99372   0.86617   0.00000  Uiso   1.00
H1547  H     0.69202   0.50165   0.70649   0.00000  Uiso   1.00
H1548  H     0.67779   0.94151   0.69947   0.00000  Uiso   1.00
H1549  H     0.98914   0.94989   0.61275   0.00000  Uiso   1.00
H1550  H     0.95056   0.98838   0.64462   0.00000  Uiso   1.00
H1551  H     0.67230   0.50931   0.61794   0.00000  Uiso   1.00
H1552  H     0.79041   0.62941   0.63169   0.00000  Uiso   1.00
H1553  H     0.83080   0.52037   0.68064   0.00000  Uiso   1.00
H1554  H     0.80880   0.57172   0.61786   0.00000  Uiso   1.00
H1555  H     0.88781   0.59859   0.58664   0.00000  Uiso   1.00
H1556  H     0.82983   0.62464   0.55656   0.00000  Uiso   1.00
H1557  H     0.87177   0.65656   0.60112   0.00000  Uiso   1.00
H1558  H     0.87481   0.88594   0.89900   0.00000  Uiso   1.00
H1559  H     0.83401   0.93067   0.87561   0.00000  Uiso   1.00
H1560  H     0.92360   0.96919   0.86009   0.00000  Uiso   1.00
H1561  H     0.91120   0.96416   0.92110   0.00000  Uiso   1.00
H1562  H     0.95469   0.92492   0.89636   0.00000  Uiso   1.00
H1563  H     0.69436   0.69507   0.55436   0.00000  Uiso   1.00
H1564  H     0.84550   0.98154   0.81618   0.00000  Uiso   1.00
H1565  H     0.74668   0.65325   0.55707   0.00000  Uiso   1.00
H1566  H     0.66697   0.62497   0.50846   0.00000  Uiso   1.00
H1567  H     0.66706   0.67298   0.96969   0.00000  Uiso   1.00
H1568  H     0.71954   0.63174   0.97277   0.00000  Uiso   1.00
H1569  H     0.75364   0.83140   0.97028   0.00000  Uiso   1.00
H1570  H     0.78038   0.86669   0.92728   0.00000  Uiso   1.00
H1571  H     0.81760   0.91848   0.99278   0.00000  Uiso   1.00
H1572  H     0.74752   0.91266   0.99102   0.00000  Uiso   1.00
H1573  H     0.79126   0.88340   0.53559   0.00000  Uiso   1.00
H1574  H     0.94057   0.73550   0.51567   0.00000  Uiso   1.00
H1575  H     0.76316   0.71374   0.61337   0.00000  Uiso   1.00
H1576  H     0.98046   0.76413   0.56480   0.00000  Uiso   1.00
H1577  H     0.99932   0.82515   0.51066   0.00000  Uiso   1.00
H1578  H     0.68313   0.77056   0.98720   0.00000  Uiso   1.00
H1579  H     0.95698   0.79837   0.96214   0.00000  Uiso   1.00
H1580  H     0.90714   0.65121   0.50554   0.00000  Uiso   1.00
H1581  H     0.90832   0.65831   0.94269   0.00000  Uiso   1.00
H1582  H     0.85329   0.58982   0.92463   0.00000  Uiso   1.00
H1583  H     0.91376   0.57783   0.96241   0.00000  Uiso   1.00
H1584  H     0.85292   0.58139   0.98767   0.00000  Uiso   1.00
H1585  H     0.83144   0.82103   0.87933   0.00000  Uiso   1.00
H1586  H     0.90259   0.78874   0.63146   0.00000  Uiso   1.00
H1587  H     0.83379   0.67857   0.87719   0.00000  Uiso   1.00
H1588  H     0.66866   0.72059   0.63864   0.00000  Uiso   1.00
N1589  N     0.83333   0.74999   0.62624   0.00000  Uiso   1.00
N1590  N     0.83333   0.75001   0.87377   0.00000  Uiso   1.00
O1591  O     0.83334   0.68453   0.78974   0.00000  Uiso   1.00
O1592  O     0.74468   0.96393   0.67183   0.00000  Uiso   1.00
O1593  O     0.85682   0.60510   0.67320   0.00000  Uiso   1.00
O1594  O     0.87623   0.89389   0.82718   0.00000  Uiso   1.00
O1595  O     0.75347   0.70930   0.51420   0.00000  Uiso   1.00
O1596  O     0.83514   0.83194   0.97344   0.00000  Uiso   1.00
O1597  O     0.91166   0.79739   0.54071   0.00000  Uiso   1.00
O1598  O     0.83518   0.66808   0.96952   0.00000  Uiso   1.00
O1599  O     0.83333   0.81546   0.71026   0.00000  Uiso   1.00
O1600  O     0.83334   0.68453   0.71026   0.00000  Uiso   1.00
O1601  O     0.83333   0.81547   0.78974   0.00000  Uiso   1.00
O1602  O     0.75725   0.75000   0.78045   0.00000  Uiso   1.00
O1603  O     0.90942   0.75000   0.71956   0.00000  Uiso   1.00
O1604  O     0.75725   0.74999   0.70097   0.00000  Uiso   1.00
O1605  O     0.90942   0.75000   0.79904   0.00000  Uiso   1.00
O1606  O     0.75972   0.53373   0.82010   0.00000  Uiso   1.00
Zn1607 Zn    0.83333   0.75000   0.80307   0.00000  Uiso   1.00
Zn1608 Zn    0.83333   0.74999   0.69693   0.00000  Uiso   1.00
loop_
_geom_bond_atom_site_label_1
_geom_bond_atom_site_label_2
_geom_bond_distance
_geom_bond_site_symmetry_2
_ccdc_geom_bond_type
C1     O117    1.288   .     A
C1     O126    1.287   .     A
C1     C14     1.450   .     S
C2     C55     1.411   .     A
C2     C4      1.413   .     A
C2     O124    1.383   .     S
C3     C23     1.413   .     A
C3     C56     1.414   .     A
C3     C808    1.512   1_554 S
C4     C34     1.412   .     A
C4     C807    1.512   .     S
C5     C7      1.401   .     S
C5     O130    1.278   .     A
C5     O128    1.268   .     A
C6     O129    1.270   .     A
C6     C8      1.403   .     S
C6     O131    1.277   .     A
C7     C276    1.348   1_455 S
C7     C290    1.491   1_455 S
C8     C141    1.348   .     S
C8     C163    1.495   .     S
C9     C20     1.402   .     A
C9     C11     1.390   .     A
C9     O132    1.384   .     S
C10    C21     1.403   .     A
C10    O118    1.383   .     S
C10    C13     1.383   .     A
C11    C14     1.403   .     A
C11    H57     1.084   .     S
C12    O127    1.284   .     A
C12    C15     1.445   .     S
C12    O125    1.289   .     A
C13    C15     1.402   .     A
C13    H68     1.084   .     S
C14    C16     1.406   .     A
C15    C17     1.409   .     A
C16    O119    1.383   .     S
C16    C18     1.390   .     A
C17    O120    1.398   .     S
C17    C19     1.400   .     A
C18    H79     1.084   .     S
C18    C20     1.397   .     A
C19    C21     1.398   .     A
C19    H90     1.080   .     S
C20    C423    1.448   1_545 S
C21    C422    1.448   .     S
C22    C28     1.407   .     A
C22    C24     1.404   .     A
C22    C141    1.491   .     S
C23    C45     1.428   .     A
C23    O121    1.396   .     S
C24    C25     1.398   .     A
C24    H248    1.082   .     S
C25    C26     1.397   .     A
C25    H58     1.081   .     S
C26    C27     1.395   .     A
C26    H59     1.081   .     S
C27    H60     1.081   .     S
C27    C28     1.397   .     A
C28    H61     1.083   .     S
C29    C30     1.407   .     A
C29    C35     1.405   .     A
C29    C276    1.495   1_455 S
C30    C31     1.398   .     A
C30    H62     1.083   .     S
C31    H63     1.081   .     S
C31    C32     1.395   .     A
C32    H64     1.082   .     S
C32    C33     1.397   .     A
C33    H65     1.081   .     S
C33    C35     1.396   .     A
C34    O122    1.383   .     S
C34    C53     1.415   .     A
C35    H334    1.083   1_455 S
C36    H67     1.113   .     S
C36    C37     1.520   .     S
C36    O132    1.411   .     S
C36    H69     1.114   .     S
C37    H70     1.111   .     S
C37    H339    1.111   1_455 S
C37    H474    1.110   1_545 S
C38    H74     1.116   .     S
C38    O118    1.412   .     S
C38    C307    1.521   1_455 S
C38    H475    1.112   .     S
C39    H75     1.111   .     S
C39    H76     1.111   .     S
C39    C172    1.521   .     S
C39    H613    1.111   .     S
C40    H80     1.113   .     S
C40    H78     1.113   .     S
C40    C41     1.520   .     S
C40    O119    1.411   .     S
C41    H81     1.110   .     S
C41    H82     1.107   .     S
C41    H83     1.110   .     S
C42    H84     1.108   .     S
C42    H85     1.115   .     S
C42    C43     1.526   .     S
C42    O120    1.420   .     S
C43    H88     1.109   .     S
C43    H86     1.108   .     S
C43    H87     1.110   .     S
C44    O121    1.409   .     S
C44    H91     1.109   .     S
C44    H89     1.108   .     S
C44    C850    1.519   1_554 S
C45    N115    1.363   .     A
C45    H101    1.079   .     S
C46    H94     1.111   .     S
C46    H93     1.110   .     S
C46    C848    1.519   .     S
C46    H896    1.110   .     S
C47    C48     1.520   .     S
C47    H96     1.111   .     S
C47    O122    1.409   .     S
C47    H95     1.115   .     S
C48    H97     1.111   .     S
C48    H98     1.110   .     S
C48    H903    1.111   .     S
C49    O123    1.410   .     S
C49    H102    1.111   .     S
C49    H100    1.116   .     S
C49    C854    1.521   1_554 S
C50    H105    1.111   .     S
C50    C853    1.521   .     S
C50    H907    1.111   .     S
C50    H238    1.108   .     S
C51    O124    1.415   .     S
C51    C52     1.522   .     S
C51    H107    1.116   .     S
C51    H910    1.111   .     S
C52    H110    1.110   .     S
C52    H109    1.111   .     S
C52    H108    1.111   .     S
C53    N116    1.361   .     A
C53    H111    1.076   .     S
C54    C56     1.406   .     A
C54    N115    1.361   .     A
C54    H112    1.082   .     S
C55    N116    1.362   .     A
C55    H113    1.080   .     S
C56    O123    1.381   .     S
H66    C169    1.083   .     S
H71    C171    1.111   .     S
H72    C439    1.110   .     S
H73    C440    1.112   1_545 S
H77    C709    1.111   1_445 S
H92    C850    1.110   1_554 S
H99    C852    1.111   1_554 S
H103   C854    1.111   1_554 S
H104   C318    1.108   1_455 S
H106   C855    1.111   1_554 S
H114   C292    1.082   1_455 S
N115   Zn134   2.001   .     S
N116   Zn133   2.001   .     S
O117   Zn133   1.964   .     S
O125   Zn134   1.964   .     S
O126   Zn134   1.979   .     S
O127   Zn133   1.979   .     S
O128   Zn133   1.980   .     S
O129   Zn134   1.980   .     S
O130   Zn134   1.977   .     S
O131   Zn133   1.977   .     S
C135   O251    1.288   .     A
C135   O260    1.287   .     A
C135   C148    1.450   .     S
C136   C189    1.411   .     A
C136   C138    1.413   .     A
C136   O258    1.383   .     S
C137   C157    1.413   .     A
C137   C190    1.414   .     A
C137   C942    1.512   1_554 S
C138   C168    1.412   .     A
C138   C941    1.512   .     S
C139   C141    1.401   .     S
C139   O264    1.278   .     A
C139   O262    1.268   .     A
C140   O263    1.270   .     A
C140   C142    1.403   .     S
C140   O265    1.277   .     A
C142   C275    1.348   .     S
C142   C297    1.495   .     S
C143   C154    1.402   .     A
C143   C145    1.390   .     A
C143   O266    1.384   .     S
C144   C155    1.403   .     A
C144   O252    1.383   .     S
C144   C147    1.383   .     A
C145   C148    1.403   .     A
C145   H191    1.084   .     S
C146   O261    1.284   .     A
C146   C149    1.445   .     S
C146   O259    1.289   .     A
C147   C149    1.402   .     A
C147   H202    1.084   .     S
C148   C150    1.406   .     A
C149   C151    1.409   .     A
C150   O253    1.383   .     S
C150   C152    1.390   .     A
C151   O254    1.398   .     S
C151   C153    1.400   .     A
C152   H213    1.084   .     S
C152   C154    1.397   .     A
C153   C155    1.398   .     A
C153   H224    1.080   .     S
C154   C557    1.448   1_545 S
C155   C556    1.448   .     S
C156   C162    1.407   .     A
C156   C158    1.404   .     A
C156   C275    1.491   .     S
C157   C179    1.428   .     A
C157   O255    1.396   .     S
C158   C159    1.398   .     A
C158   H382    1.082   .     S
C159   C160    1.397   .     A
C159   H192    1.081   .     S
C160   C161    1.395   .     A
C160   H193    1.081   .     S
C161   H194    1.081   .     S
C161   C162    1.397   .     A
C162   H195    1.083   .     S
C163   C164    1.407   .     A
C163   C169    1.405   .     A
C164   C165    1.398   .     A
C164   H196    1.083   .     S
C165   H197    1.081   .     S
C165   C166    1.395   .     A
C166   H198    1.082   .     S
C166   C167    1.397   .     A
C167   H199    1.081   .     S
C167   C169    1.396   .     A
C168   O256    1.383   .     S
C168   C187    1.415   .     A
C170   H201    1.113   .     S
C170   C171    1.520   .     S
C170   O266    1.411   .     S
C170   H203    1.114   .     S
C171   H204    1.111   .     S
C171   H608    1.110   1_545 S
C172   H208    1.116   .     S
C172   O252    1.412   .     S
C172   H609    1.112   .     S
C173   H209    1.111   .     S
C173   H210    1.111   .     S
C173   C306    1.521   .     S
C173   H747    1.111   .     S
C174   H214    1.113   .     S
C174   H212    1.113   .     S
C174   C175    1.520   .     S
C174   O253    1.411   .     S
C175   H215    1.110   .     S
C175   H216    1.107   .     S
C175   H217    1.110   .     S
C176   H218    1.108   .     S
C176   H219    1.115   .     S
C176   C177    1.526   .     S
C176   O254    1.420   .     S
C177   H222    1.109   .     S
C177   H220    1.108   .     S
C177   H221    1.110   .     S
C178   O255    1.409   .     S
C178   H225    1.109   .     S
C178   H223    1.108   .     S
C178   C984    1.519   1_554 S
C179   N249    1.363   .     A
C179   H235    1.079   .     S
C180   H228    1.111   .     S
C180   H227    1.110   .     S
C180   C982    1.519   .     S
C180   H1030   1.110   .     S
C181   C182    1.520   .     S
C181   H230    1.111   .     S
C181   O256    1.409   .     S
C181   H229    1.115   .     S
C182   H231    1.111   .     S
C182   H232    1.110   .     S
C182   H1037   1.111   .     S
C183   O257    1.410   .     S
C183   H236    1.111   .     S
C183   H234    1.116   .     S
C183   C988    1.521   1_554 S
C184   H239    1.111   .     S
C184   C987    1.521   .     S
C184   H1041   1.111   .     S
C184   H372    1.108   .     S
C185   O258    1.415   .     S
C185   C186    1.522   .     S
C185   H241    1.116   .     S
C185   H1044   1.111   .     S
C186   H244    1.110   .     S
C186   H243    1.111   .     S
C186   H242    1.111   .     S
C187   N250    1.361   .     A
C187   H245    1.076   .     S
C188   C190    1.406   .     A
C188   N249    1.361   .     A
C188   H246    1.082   .     S
C189   N250    1.362   .     A
C189   H247    1.080   .     S
C190   O257    1.381   .     S
H200   C303    1.083   .     S
H205   C305    1.111   .     S
H206   C573    1.110   .     S
H207   C574    1.112   1_545 S
H211   C441    1.111   1_545 S
H226   C984    1.110   1_554 S
H233   C986    1.111   1_554 S
H237   C988    1.111   1_554 S
H240   C989    1.111   1_554 S
N249   Zn268   2.001   .     S
N250   Zn267   2.001   .     S
O251   Zn267   1.964   .     S
O259   Zn268   1.964   .     S
O260   Zn268   1.979   .     S
O261   Zn267   1.979   .     S
O262   Zn267   1.980   .     S
O263   Zn268   1.980   .     S
O264   Zn268   1.977   .     S
O265   Zn267   1.977   .     S
C269   O385    1.288   .     A
C269   O394    1.287   .     A
C269   C282    1.450   .     S
C270   C323    1.411   .     A
C270   C272    1.413   .     A
C270   O392    1.383   .     S
C271   C291    1.413   .     A
C271   C324    1.414   .     A
C271   C1076   1.512   1_554 S
C272   C302    1.412   .     A
C272   C1075   1.512   .     S
C273   C275    1.401   .     S
C273   O398    1.278   .     A
C273   O396    1.268   .     A
C274   O397    1.270   .     A
C274   C276    1.403   .     S
C274   O399    1.277   .     A
C276   C7      1.348   1_655 S
C276   C29     1.495   1_655 S
C277   C288    1.402   .     A
C277   C279    1.390   .     A
C277   O400    1.384   .     S
C278   C289    1.403   .     A
C278   O386    1.383   .     S
C278   C281    1.383   .     A
C279   C282    1.403   .     A
C279   H325    1.084   .     S
C280   O395    1.284   .     A
C280   C283    1.445   .     S
C280   O393    1.289   .     A
C281   C283    1.402   .     A
C281   H336    1.084   .     S
C282   C284    1.406   .     A
C283   C285    1.409   .     A
C284   O387    1.383   .     S
C284   C286    1.390   .     A
C285   O388    1.398   .     S
C285   C287    1.400   .     A
C286   H347    1.084   .     S
C286   C288    1.397   .     A
C287   C289    1.398   .     A
C287   H358    1.080   .     S
C288   C691    1.448   1_545 S
C289   C690    1.448   .     S
C290   C296    1.407   .     A
C290   C292    1.404   .     A
C290   C7      1.491   1_655 S
C291   C313    1.428   .     A
C291   O389    1.396   .     S
C292   C293    1.398   .     A
C292   H114    1.082   1_655 S
C293   C294    1.397   .     A
C293   H326    1.081   .     S
C294   C295    1.395   .     A
C294   H327    1.081   .     S
C295   H328    1.081   .     S
C295   C296    1.397   .     A
C296   H329    1.083   .     S
C297   C298    1.407   .     A
C297   C303    1.405   .     A
C298   C299    1.398   .     A
C298   H330    1.083   .     S
C299   H331    1.081   .     S
C299   C300    1.395   .     A
C300   H332    1.082   .     S
C300   C301    1.397   .     A
C301   H333    1.081   .     S
C301   C303    1.396   .     A
C302   O390    1.383   .     S
C302   C321    1.415   .     A
C304   H335    1.113   .     S
C304   C305    1.520   .     S
C304   O400    1.411   .     S
C304   H337    1.114   .     S
C305   H338    1.111   .     S
C305   H742    1.110   1_545 S
C306   H342    1.116   .     S
C306   O386    1.412   .     S
C306   H743    1.112   .     S
C307   H343    1.111   .     S
C307   H344    1.111   .     S
C307   C38     1.521   1_655 S
C307   H479    1.111   1_655 S
C308   H348    1.113   .     S
C308   H346    1.113   .     S
C308   C309    1.520   .     S
C308   O387    1.411   .     S
C309   H349    1.110   .     S
C309   H350    1.107   .     S
C309   H351    1.110   .     S
C310   H352    1.108   .     S
C310   H353    1.115   .     S
C310   C311    1.526   .     S
C310   O388    1.420   .     S
C311   H356    1.109   .     S
C311   H354    1.108   .     S
C311   H355    1.110   .     S
C312   O389    1.409   .     S
C312   H359    1.109   .     S
C312   H357    1.108   .     S
C312   C1118   1.519   1_554 S
C313   N383    1.363   .     A
C313   H369    1.079   .     S
C314   H362    1.111   .     S
C314   H361    1.110   .     S
C314   C1116   1.519   .     S
C314   H1164   1.110   .     S
C315   C316    1.520   .     S
C315   H364    1.111   .     S
C315   O390    1.409   .     S
C315   H363    1.115   .     S
C316   H365    1.111   .     S
C316   H366    1.110   .     S
C316   H1171   1.111   .     S
C317   O391    1.410   .     S
C317   H370    1.111   .     S
C317   H368    1.116   .     S
C317   C1122   1.521   1_554 S
C318   H373    1.111   .     S
C318   C1121   1.521   .     S
C318   H1175   1.111   .     S
C318   H104    1.108   1_655 S
C319   O392    1.415   .     S
C319   C320    1.522   .     S
C319   H375    1.116   .     S
C319   H1178   1.111   .     S
C320   H378    1.110   .     S
C320   H377    1.111   .     S
C320   H376    1.111   .     S
C321   N384    1.361   .     A
C321   H379    1.076   .     S
C322   C324    1.406   .     A
C322   N383    1.361   .     A
C322   H380    1.082   .     S
C323   N384    1.362   .     A
C323   H381    1.080   .     S
C324   O391    1.381   .     S
H334   C35     1.083   1_655 S
H339   C37     1.111   1_655 S
H340   C707    1.110   .     S
H341   C708    1.112   1_545 S
H345   C575    1.111   1_545 S
H360   C1118   1.110   1_554 S
H367   C1120   1.111   1_554 S
H371   C1122   1.111   1_554 S
H374   C1123   1.111   1_554 S
N383   Zn402   2.001   .     S
N384   Zn401   2.001   .     S
O385   Zn401   1.964   .     S
O393   Zn402   1.964   .     S
O394   Zn402   1.979   .     S
O395   Zn401   1.979   .     S
O396   Zn401   1.980   .     S
O397   Zn402   1.980   .     S
O398   Zn402   1.977   .     S
O399   Zn401   1.977   .     S
C403   O519    1.288   .     A
C403   O528    1.287   .     A
C403   C416    1.450   .     S
C404   C457    1.411   .     A
C404   C406    1.413   .     A
C404   O526    1.383   .     S
C405   C425    1.413   .     A
C405   C458    1.414   .     A
C405   C1210   1.512   1_554 S
C406   C436    1.412   .     A
C406   C1209   1.512   .     S
C407   C409    1.401   .     S
C407   O532    1.278   .     A
C407   O530    1.268   .     A
C408   O531    1.270   .     A
C408   C410    1.403   .     S
C408   O533    1.277   .     A
C409   C678    1.348   1_455 S
C409   C692    1.491   1_455 S
C410   C543    1.348   .     S
C410   C565    1.495   .     S
C411   C422    1.402   .     A
C411   C413    1.390   .     A
C411   O534    1.384   .     S
C412   C423    1.403   .     A
C412   O520    1.383   .     S
C412   C415    1.383   .     A
C413   C416    1.403   .     A
C413   H459    1.084   .     S
C414   O529    1.284   .     A
C414   C417    1.445   .     S
C414   O527    1.289   .     A
C415   C417    1.402   .     A
C415   H470    1.084   .     S
C416   C418    1.406   .     A
C417   C419    1.409   .     A
C418   O521    1.383   .     S
C418   C420    1.390   .     A
C419   O522    1.398   .     S
C419   C421    1.400   .     A
C420   H481    1.084   .     S
C420   C422    1.397   .     A
C421   C423    1.398   .     A
C421   H492    1.080   .     S
C423   C20     1.448   1_565 S
C424   C430    1.407   .     A
C424   C426    1.404   .     A
C424   C543    1.491   .     S
C425   C447    1.428   .     A
C425   O523    1.396   .     S
C426   C427    1.398   .     A
C426   H650    1.082   .     S
C427   C428    1.397   .     A
C427   H460    1.081   .     S
C428   C429    1.395   .     A
C428   H461    1.081   .     S
C429   H462    1.081   .     S
C429   C430    1.397   .     A
C430   H463    1.083   .     S
C431   C432    1.407   .     A
C431   C437    1.405   .     A
C431   C678    1.495   1_455 S
C432   C433    1.398   .     A
C432   H464    1.083   .     S
C433   H465    1.081   .     S
C433   C434    1.395   .     A
C434   H466    1.082   .     S
C434   C435    1.397   .     A
C435   H467    1.081   .     S
C435   C437    1.396   .     A
C436   O524    1.383   .     S
C436   C455    1.415   .     A
C437   H736    1.083   1_455 S
C438   H469    1.113   .     S
C438   C439    1.520   .     S
C438   O534    1.411   .     S
C438   H471    1.114   .     S
C439   H472    1.111   .     S
C439   H741    1.111   1_455 S
C440   H476    1.116   .     S
C440   O520    1.412   .     S
C440   C709    1.521   1_455 S
C440   H73     1.112   1_565 S
C441   H477    1.111   .     S
C441   H478    1.111   .     S
C441   C574    1.521   .     S
C441   H211    1.111   1_565 S
C442   H482    1.113   .     S
C442   H480    1.113   .     S
C442   C443    1.520   .     S
C442   O521    1.411   .     S
C443   H483    1.110   .     S
C443   H484    1.107   .     S
C443   H485    1.110   .     S
C444   H486    1.108   .     S
C444   H487    1.115   .     S
C444   C445    1.526   .     S
C444   O522    1.420   .     S
C445   H490    1.109   .     S
C445   H488    1.108   .     S
C445   H489    1.110   .     S
C446   O523    1.409   .     S
C446   H493    1.109   .     S
C446   H491    1.108   .     S
C446   C1252   1.519   1_554 S
C447   N517    1.363   .     A
C447   H503    1.079   .     S
C448   H496    1.111   .     S
C448   H495    1.110   .     S
C448   C1250   1.519   .     S
C448   H1298   1.110   .     S
C449   C450    1.520   .     S
C449   H498    1.111   .     S
C449   O524    1.409   .     S
C449   H497    1.115   .     S
C450   H499    1.111   .     S
C450   H500    1.110   .     S
C450   H1305   1.111   .     S
C451   O525    1.410   .     S
C451   H504    1.111   .     S
C451   H502    1.116   .     S
C451   C1256   1.521   1_554 S
C452   H507    1.111   .     S
C452   C1255   1.521   .     S
C452   H1309   1.111   .     S
C452   H640    1.108   .     S
C453   O526    1.415   .     S
C453   C454    1.522   .     S
C453   H509    1.116   .     S
C453   H1312   1.111   .     S
C454   H512    1.110   .     S
C454   H511    1.111   .     S
C454   H510    1.111   .     S
C455   N518    1.361   .     A
C455   H513    1.076   .     S
C456   C458    1.406   .     A
C456   N517    1.361   .     A
C456   H514    1.082   .     S
C457   N518    1.362   .     A
C457   H515    1.080   .     S
C458   O525    1.381   .     S
H468   C571    1.083   .     S
H473   C573    1.111   .     S
H474   C37     1.110   1_565 S
H479   C307    1.111   1_455 S
H494   C1252   1.110   1_554 S
H501   C1254   1.111   1_554 S
H505   C1256   1.111   1_554 S
H506   C720    1.108   1_455 S
H508   C1257   1.111   1_554 S
H516   C694    1.082   1_455 S
N517   Zn536   2.001   .     S
N518   Zn535   2.001   .     S
O519   Zn535   1.964   .     S
O527   Zn536   1.964   .     S
O528   Zn536   1.979   .     S
O529   Zn535   1.979   .     S
O530   Zn535   1.980   .     S
O531   Zn536   1.980   .     S
O532   Zn536   1.977   .     S
O533   Zn535   1.977   .     S
C537   O653    1.288   .     A
C537   O662    1.287   .     A
C537   C550    1.450   .     S
C538   C591    1.411   .     A
C538   C540    1.413   .     A
C538   O660    1.383   .     S
C539   C559    1.413   .     A
C539   C592    1.414   .     A
C539   C1344   1.512   1_554 S
C540   C570    1.412   .     A
C540   C1343   1.512   .     S
C541   C543    1.401   .     S
C541   O666    1.278   .     A
C541   O664    1.268   .     A
C542   O665    1.270   .     A
C542   C544    1.403   .     S
C542   O667    1.277   .     A
C544   C677    1.348   .     S
C544   C699    1.495   .     S
C545   C556    1.402   .     A
C545   C547    1.390   .     A
C545   O668    1.384   .     S
C546   C557    1.403   .     A
C546   O654    1.383   .     S
C546   C549    1.383   .     A
C547   C550    1.403   .     A
C547   H593    1.084   .     S
C548   O663    1.284   .     A
C548   C551    1.445   .     S
C548   O661    1.289   .     A
C549   C551    1.402   .     A
C549   H604    1.084   .     S
C550   C552    1.406   .     A
C551   C553    1.409   .     A
C552   O655    1.383   .     S
C552   C554    1.390   .     A
C553   O656    1.398   .     S
C553   C555    1.400   .     A
C554   H615    1.084   .     S
C554   C556    1.397   .     A
C555   C557    1.398   .     A
C555   H626    1.080   .     S
C557   C154    1.448   1_565 S
C558   C564    1.407   .     A
C558   C560    1.404   .     A
C558   C677    1.491   .     S
C559   C581    1.428   .     A
C559   O657    1.396   .     S
C560   C561    1.398   .     A
C560   H784    1.082   .     S
C561   C562    1.397   .     A
C561   H594    1.081   .     S
C562   C563    1.395   .     A
C562   H595    1.081   .     S
C563   H596    1.081   .     S
C563   C564    1.397   .     A
C564   H597    1.083   .     S
C565   C566    1.407   .     A
C565   C571    1.405   .     A
C566   C567    1.398   .     A
C566   H598    1.083   .     S
C567   H599    1.081   .     S
C567   C568    1.395   .     A
C568   H600    1.082   .     S
C568   C569    1.397   .     A
C569   H601    1.081   .     S
C569   C571    1.396   .     A
C570   O658    1.383   .     S
C570   C589    1.415   .     A
C572   H603    1.113   .     S
C572   C573    1.520   .     S
C572   O668    1.411   .     S
C572   H605    1.114   .     S
C573   H606    1.111   .     S
C574   H610    1.116   .     S
C574   O654    1.412   .     S
C574   H207    1.112   1_565 S
C575   H611    1.111   .     S
C575   H612    1.111   .     S
C575   C708    1.521   .     S
C575   H345    1.111   1_565 S
C576   H616    1.113   .     S
C576   H614    1.113   .     S
C576   C577    1.520   .     S
C576   O655    1.411   .     S
C577   H617    1.110   .     S
C577   H618    1.107   .     S
C577   H619    1.110   .     S
C578   H620    1.108   .     S
C578   H621    1.115   .     S
C578   C579    1.526   .     S
C578   O656    1.420   .     S
C579   H624    1.109   .     S
C579   H622    1.108   .     S
C579   H623    1.110   .     S
C580   O657    1.409   .     S
C580   H627    1.109   .     S
C580   H625    1.108   .     S
C580   C1386   1.519   1_554 S
C581   N651    1.363   .     A
C581   H637    1.079   .     S
C582   H630    1.111   .     S
C582   H629    1.110   .     S
C582   C1384   1.519   .     S
C582   H1432   1.110   .     S
C583   C584    1.520   .     S
C583   H632    1.111   .     S
C583   O658    1.409   .     S
C583   H631    1.115   .     S
C584   H633    1.111   .     S
C584   H634    1.110   .     S
C584   H1439   1.111   .     S
C585   O659    1.410   .     S
C585   H638    1.111   .     S
C585   H636    1.116   .     S
C585   C1390   1.521   1_554 S
C586   H641    1.111   .     S
C586   C1389   1.521   .     S
C586   H1443   1.111   .     S
C586   H774    1.108   .     S
C587   O660    1.415   .     S
C587   C588    1.522   .     S
C587   H643    1.116   .     S
C587   H1446   1.111   .     S
C588   H646    1.110   .     S
C588   H645    1.111   .     S
C588   H644    1.111   .     S
C589   N652    1.361   .     A
C589   H647    1.076   .     S
C590   C592    1.406   .     A
C590   N651    1.361   .     A
C590   H648    1.082   .     S
C591   N652    1.362   .     A
C591   H649    1.080   .     S
C592   O659    1.381   .     S
H602   C705    1.083   .     S
H607   C707    1.111   .     S
H608   C171    1.110   1_565 S
H628   C1386   1.110   1_554 S
H635   C1388   1.111   1_554 S
H639   C1390   1.111   1_554 S
H642   C1391   1.111   1_554 S
N651   Zn670   2.001   .     S
N652   Zn669   2.001   .     S
O653   Zn669   1.964   .     S
O661   Zn670   1.964   .     S
O662   Zn670   1.979   .     S
O663   Zn669   1.979   .     S
O664   Zn669   1.980   .     S
O665   Zn670   1.980   .     S
O666   Zn670   1.977   .     S
O667   Zn669   1.977   .     S
C671   O787    1.288   .     A
C671   O796    1.287   .     A
C671   C684    1.450   .     S
C672   C725    1.411   .     A
C672   C674    1.413   .     A
C672   O794    1.383   .     S
C673   C693    1.413   .     A
C673   C726    1.414   .     A
C673   C1478   1.512   1_554 S
C674   C704    1.412   .     A
C674   C1477   1.512   .     S
C675   C677    1.401   .     S
C675   O800    1.278   .     A
C675   O798    1.268   .     A
C676   O799    1.270   .     A
C676   C678    1.403   .     S
C676   O801    1.277   .     A
C678   C409    1.348   1_655 S
C678   C431    1.495   1_655 S
C679   C690    1.402   .     A
C679   C681    1.390   .     A
C679   O802    1.384   .     S
C680   C691    1.403   .     A
C680   O788    1.383   .     S
C680   C683    1.383   .     A
C681   C684    1.403   .     A
C681   H727    1.084   .     S
C682   O797    1.284   .     A
C682   C685    1.445   .     S
C682   O795    1.289   .     A
C683   C685    1.402   .     A
C683   H738    1.084   .     S
C684   C686    1.406   .     A
C685   C687    1.409   .     A
C686   O789    1.383   .     S
C686   C688    1.390   .     A
C687   O790    1.398   .     S
C687   C689    1.400   .     A
C688   H749    1.084   .     S
C688   C690    1.397   .     A
C689   C691    1.398   .     A
C689   H760    1.080   .     S
C691   C288    1.448   1_565 S
C692   C698    1.407   .     A
C692   C694    1.404   .     A
C692   C409    1.491   1_655 S
C693   C715    1.428   .     A
C693   O791    1.396   .     S
C694   C695    1.398   .     A
C694   H516    1.082   1_655 S
C695   C696    1.397   .     A
C695   H728    1.081   .     S
C696   C697    1.395   .     A
C696   H729    1.081   .     S
C697   H730    1.081   .     S
C697   C698    1.397   .     A
C698   H731    1.083   .     S
C699   C700    1.407   .     A
C699   C705    1.405   .     A
C700   C701    1.398   .     A
C700   H732    1.083   .     S
C701   H733    1.081   .     S
C701   C702    1.395   .     A
C702   H734    1.082   .     S
C702   C703    1.397   .     A
C703   H735    1.081   .     S
C703   C705    1.396   .     A
C704   O792    1.383   .     S
C704   C723    1.415   .     A
C706   H737    1.113   .     S
C706   C707    1.520   .     S
C706   O802    1.411   .     S
C706   H739    1.114   .     S
C707   H740    1.111   .     S
C708   H744    1.116   .     S
C708   O788    1.412   .     S
C708   H341    1.112   1_565 S
C709   H745    1.111   .     S
C709   H746    1.111   .     S
C709   C440    1.521   1_655 S
C709   H77     1.111   1_665 S
C710   H750    1.113   .     S
C710   H748    1.113   .     S
C710   C711    1.520   .     S
C710   O789    1.411   .     S
C711   H751    1.110   .     S
C711   H752    1.107   .     S
C711   H753    1.110   .     S
C712   H754    1.108   .     S
C712   H755    1.115   .     S
C712   C713    1.526   .     S
C712   O790    1.420   .     S
C713   H758    1.109   .     S
C713   H756    1.108   .     S
C713   H757    1.110   .     S
C714   O791    1.409   .     S
C714   H761    1.109   .     S
C714   H759    1.108   .     S
C714   C1520   1.519   1_554 S
C715   N785    1.363   .     A
C715   H771    1.079   .     S
C716   H764    1.111   .     S
C716   H763    1.110   .     S
C716   C1518   1.519   .     S
C716   H1566   1.110   .     S
C717   C718    1.520   .     S
C717   H766    1.111   .     S
C717   O792    1.409   .     S
C717   H765    1.115   .     S
C718   H767    1.111   .     S
C718   H768    1.110   .     S
C718   H1573   1.111   .     S
C719   O793    1.410   .     S
C719   H772    1.111   .     S
C719   H770    1.116   .     S
C719   C1524   1.521   1_554 S
C720   H775    1.111   .     S
C720   C1523   1.521   .     S
C720   H1577   1.111   .     S
C720   H506    1.108   1_655 S
C721   O794    1.415   .     S
C721   C722    1.522   .     S
C721   H777    1.116   .     S
C721   H1580   1.111   .     S
C722   H780    1.110   .     S
C722   H779    1.111   .     S
C722   H778    1.111   .     S
C723   N786    1.361   .     A
C723   H781    1.076   .     S
C724   C726    1.406   .     A
C724   N785    1.361   .     A
C724   H782    1.082   .     S
C725   N786    1.362   .     A
C725   H783    1.080   .     S
C726   O793    1.381   .     S
H736   C437    1.083   1_655 S
H741   C439    1.111   1_655 S
H742   C305    1.110   1_565 S
H762   C1520   1.110   1_554 S
H769   C1522   1.111   1_554 S
H773   C1524   1.111   1_554 S
H776   C1525   1.111   1_554 S
N785   Zn804   2.001   .     S
N786   Zn803   2.001   .     S
O787   Zn803   1.964   .     S
O795   Zn804   1.964   .     S
O796   Zn804   1.979   .     S
O797   Zn803   1.979   .     S
O798   Zn803   1.980   .     S
O799   Zn804   1.980   .     S
O800   Zn804   1.977   .     S
O801   Zn803   1.977   .     S
C805   O921    1.288   .     A
C805   O930    1.287   .     A
C805   C818    1.450   .     S
C806   C859    1.411   .     A
C806   C808    1.413   .     A
C806   O928    1.383   .     S
C807   C827    1.413   .     A
C807   C860    1.414   .     A
C808   C838    1.412   .     A
C808   C3      1.512   1_556 S
C809   C811    1.401   .     S
C809   O934    1.278   .     A
C809   O932    1.268   .     A
C810   O933    1.270   .     A
C810   C812    1.403   .     S
C810   O935    1.277   .     A
C811   C1080   1.348   1_455 S
C811   C1094   1.491   1_455 S
C812   C945    1.348   .     S
C812   C967    1.495   .     S
C813   C824    1.402   .     A
C813   C815    1.390   .     A
C813   O936    1.384   .     S
C814   C825    1.403   .     A
C814   O922    1.383   .     S
C814   C817    1.383   .     A
C815   C818    1.403   .     A
C815   H861    1.084   .     S
C816   O931    1.284   .     A
C816   C819    1.445   .     S
C816   O929    1.289   .     A
C817   C819    1.402   .     A
C817   H872    1.084   .     S
C818   C820    1.406   .     A
C819   C821    1.409   .     A
C820   O923    1.383   .     S
C820   C822    1.390   .     A
C821   O924    1.398   .     S
C821   C823    1.400   .     A
C822   H883    1.084   .     S
C822   C824    1.397   .     A
C823   C825    1.398   .     A
C823   H894    1.080   .     S
C824   C1227   1.448   1_545 S
C825   C1226   1.448   .     S
C826   C832    1.407   .     A
C826   C828    1.404   .     A
C826   C945    1.491   .     S
C827   C849    1.428   .     A
C827   O925    1.396   .     S
C828   C829    1.398   .     A
C828   H1052   1.082   .     S
C829   C830    1.397   .     A
C829   H862    1.081   .     S
C830   C831    1.395   .     A
C830   H863    1.081   .     S
C831   H864    1.081   .     S
C831   C832    1.397   .     A
C832   H865    1.083   .     S
C833   C834    1.407   .     A
C833   C839    1.405   .     A
C833   C1080   1.495   1_455 S
C834   C835    1.398   .     A
C834   H866    1.083   .     S
C835   H867    1.081   .     S
C835   C836    1.395   .     A
C836   H868    1.082   .     S
C836   C837    1.397   .     A
C837   H869    1.081   .     S
C837   C839    1.396   .     A
C838   O926    1.383   .     S
C838   C857    1.415   .     A
C839   H1138   1.083   1_455 S
C840   H871    1.113   .     S
C840   C841    1.520   .     S
C840   O936    1.411   .     S
C840   H873    1.114   .     S
C841   H874    1.111   .     S
C841   H1143   1.111   1_455 S
C841   H1278   1.110   1_545 S
C842   H878    1.116   .     S
C842   O922    1.412   .     S
C842   C1111   1.521   1_455 S
C842   H1279   1.112   .     S
C843   H879    1.111   .     S
C843   H880    1.111   .     S
C843   C976    1.521   .     S
C843   H1417   1.111   .     S
C844   H884    1.113   .     S
C844   H882    1.113   .     S
C844   C845    1.520   .     S
C844   O923    1.411   .     S
C845   H885    1.110   .     S
C845   H886    1.107   .     S
C845   H887    1.110   .     S
C846   H888    1.108   .     S
C846   H889    1.115   .     S
C846   C847    1.526   .     S
C846   O924    1.420   .     S
C847   H892    1.109   .     S
C847   H890    1.108   .     S
C847   H891    1.110   .     S
C848   O925    1.409   .     S
C848   H895    1.109   .     S
C848   H893    1.108   .     S
C849   N919    1.363   .     A
C849   H905    1.079   .     S
C850   H898    1.111   .     S
C850   H897    1.110   .     S
C850   C44     1.519   1_556 S
C850   H92     1.110   1_556 S
C851   C852    1.520   .     S
C851   H900    1.111   .     S
C851   O926    1.409   .     S
C851   H899    1.115   .     S
C852   H901    1.111   .     S
C852   H902    1.110   .     S
C852   H99     1.111   1_556 S
C853   O927    1.410   .     S
C853   H906    1.111   .     S
C853   H904    1.116   .     S
C854   H909    1.111   .     S
C854   C49     1.521   1_556 S
C854   H103    1.111   1_556 S
C854   H1042   1.108   .     S
C855   O928    1.415   .     S
C855   C856    1.522   .     S
C855   H911    1.116   .     S
C855   H106    1.111   1_556 S
C856   H914    1.110   .     S
C856   H913    1.111   .     S
C856   H912    1.111   .     S
C857   N920    1.361   .     A
C857   H915    1.076   .     S
C858   C860    1.406   .     A
C858   N919    1.361   .     A
C858   H916    1.082   .     S
C859   N920    1.362   .     A
C859   H917    1.080   .     S
C860   O927    1.381   .     S
H870   C973    1.083   .     S
H875   C975    1.111   .     S
H876   C1243   1.110   .     S
H877   C1244   1.112   1_545 S
H881   C1513   1.111   1_445 S
H908   C1122   1.108   1_455 S
H918   C1096   1.082   1_455 S
N919   Zn938   2.001   .     S
N920   Zn937   2.001   .     S
O921   Zn937   1.964   .     S
O929   Zn938   1.964   .     S
O930   Zn938   1.979   .     S
O931   Zn937   1.979   .     S
O932   Zn937   1.980   .     S
O933   Zn938   1.980   .     S
O934   Zn938   1.977   .     S
O935   Zn937   1.977   .     S
C939   O1055   1.288   .     A
C939   O1064   1.287   .     A
C939   C952    1.450   .     S
C940   C993    1.411   .     A
C940   C942    1.413   .     A
C940   O1062   1.383   .     S
C941   C961    1.413   .     A
C941   C994    1.414   .     A
C942   C972    1.412   .     A
C942   C137    1.512   1_556 S
C943   C945    1.401   .     S
C943   O1068   1.278   .     A
C943   O1066   1.268   .     A
C944   O1067   1.270   .     A
C944   C946    1.403   .     S
C944   O1069   1.277   .     A
C946   C1079   1.348   .     S
C946   C1101   1.495   .     S
C947   C958    1.402   .     A
C947   C949    1.390   .     A
C947   O1070   1.384   .     S
C948   C959    1.403   .     A
C948   O1056   1.383   .     S
C948   C951    1.383   .     A
C949   C952    1.403   .     A
C949   H995    1.084   .     S
C950   O1065   1.284   .     A
C950   C953    1.445   .     S
C950   O1063   1.289   .     A
C951   C953    1.402   .     A
C951   H1006   1.084   .     S
C952   C954    1.406   .     A
C953   C955    1.409   .     A
C954   O1057   1.383   .     S
C954   C956    1.390   .     A
C955   O1058   1.398   .     S
C955   C957    1.400   .     A
C956   H1017   1.084   .     S
C956   C958    1.397   .     A
C957   C959    1.398   .     A
C957   H1028   1.080   .     S
C958   C1361   1.448   1_545 S
C959   C1360   1.448   .     S
C960   C966    1.407   .     A
C960   C962    1.404   .     A
C960   C1079   1.491   .     S
C961   C983    1.428   .     A
C961   O1059   1.396   .     S
C962   C963    1.398   .     A
C962   H1186   1.082   .     S
C963   C964    1.397   .     A
C963   H996    1.081   .     S
C964   C965    1.395   .     A
C964   H997    1.081   .     S
C965   H998    1.081   .     S
C965   C966    1.397   .     A
C966   H999    1.083   .     S
C967   C968    1.407   .     A
C967   C973    1.405   .     A
C968   C969    1.398   .     A
C968   H1000   1.083   .     S
C969   H1001   1.081   .     S
C969   C970    1.395   .     A
C970   H1002   1.082   .     S
C970   C971    1.397   .     A
C971   H1003   1.081   .     S
C971   C973    1.396   .     A
C972   O1060   1.383   .     S
C972   C991    1.415   .     A
C974   H1005   1.113   .     S
C974   C975    1.520   .     S
C974   O1070   1.411   .     S
C974   H1007   1.114   .     S
C975   H1008   1.111   .     S
C975   H1412   1.110   1_545 S
C976   H1012   1.116   .     S
C976   O1056   1.412   .     S
C976   H1413   1.112   .     S
C977   H1013   1.111   .     S
C977   H1014   1.111   .     S
C977   C1110   1.521   .     S
C977   H1551   1.111   .     S
C978   H1018   1.113   .     S
C978   H1016   1.113   .     S
C978   C979    1.520   .     S
C978   O1057   1.411   .     S
C979   H1019   1.110   .     S
C979   H1020   1.107   .     S
C979   H1021   1.110   .     S
C980   H1022   1.108   .     S
C980   H1023   1.115   .     S
C980   C981    1.526   .     S
C980   O1058   1.420   .     S
C981   H1026   1.109   .     S
C981   H1024   1.108   .     S
C981   H1025   1.110   .     S
C982   O1059   1.409   .     S
C982   H1029   1.109   .     S
C982   H1027   1.108   .     S
C983   N1053   1.363   .     A
C983   H1039   1.079   .     S
C984   H1032   1.111   .     S
C984   H1031   1.110   .     S
C984   C178    1.519   1_556 S
C984   H226    1.110   1_556 S
C985   C986    1.520   .     S
C985   H1034   1.111   .     S
C985   O1060   1.409   .     S
C985   H1033   1.115   .     S
C986   H1035   1.111   .     S
C986   H1036   1.110   .     S
C986   H233    1.111   1_556 S
C987   O1061   1.410   .     S
C987   H1040   1.111   .     S
C987   H1038   1.116   .     S
C988   H1043   1.111   .     S
C988   C183    1.521   1_556 S
C988   H237    1.111   1_556 S
C988   H1176   1.108   .     S
C989   O1062   1.415   .     S
C989   C990    1.522   .     S
C989   H1045   1.116   .     S
C989   H240    1.111   1_556 S
C990   H1048   1.110   .     S
C990   H1047   1.111   .     S
C990   H1046   1.111   .     S
C991   N1054   1.361   .     A
C991   H1049   1.076   .     S
C992   C994    1.406   .     A
C992   N1053   1.361   .     A
C992   H1050   1.082   .     S
C993   N1054   1.362   .     A
C993   H1051   1.080   .     S
C994   O1061   1.381   .     S
H1004  C1107   1.083   .     S
H1009  C1109   1.111   .     S
H1010  C1377   1.110   .     S
H1011  C1378   1.112   1_545 S
H1015  C1245   1.111   1_545 S
N1053  Zn1072  2.001   .     S
N1054  Zn1071  2.001   .     S
O1055  Zn1071  1.964   .     S
O1063  Zn1072  1.964   .     S
O1064  Zn1072  1.979   .     S
O1065  Zn1071  1.979   .     S
O1066  Zn1071  1.980   .     S
O1067  Zn1072  1.980   .     S
O1068  Zn1072  1.977   .     S
O1069  Zn1071  1.977   .     S
C1073  O1189   1.288   .     A
C1073  O1198   1.287   .     A
C1073  C1086   1.450   .     S
C1074  C1127   1.411   .     A
C1074  C1076   1.413   .     A
C1074  O1196   1.383   .     S
C1075  C1095   1.413   .     A
C1075  C1128   1.414   .     A
C1076  C1106   1.412   .     A
C1076  C271    1.512   1_556 S
C1077  C1079   1.401   .     S
C1077  O1202   1.278   .     A
C1077  O1200   1.268   .     A
C1078  O1201   1.270   .     A
C1078  C1080   1.403   .     S
C1078  O1203   1.277   .     A
C1080  C811    1.348   1_655 S
C1080  C833    1.495   1_655 S
C1081  C1092   1.402   .     A
C1081  C1083   1.390   .     A
C1081  O1204   1.384   .     S
C1082  C1093   1.403   .     A
C1082  O1190   1.383   .     S
C1082  C1085   1.383   .     A
C1083  C1086   1.403   .     A
C1083  H1129   1.084   .     S
C1084  O1199   1.284   .     A
C1084  C1087   1.445   .     S
C1084  O1197   1.289   .     A
C1085  C1087   1.402   .     A
C1085  H1140   1.084   .     S
C1086  C1088   1.406   .     A
C1087  C1089   1.409   .     A
C1088  O1191   1.383   .     S
C1088  C1090   1.390   .     A
C1089  O1192   1.398   .     S
C1089  C1091   1.400   .     A
C1090  H1151   1.084   .     S
C1090  C1092   1.397   .     A
C1091  C1093   1.398   .     A
C1091  H1162   1.080   .     S
C1092  C1495   1.448   1_545 S
C1093  C1494   1.448   .     S
C1094  C1100   1.407   .     A
C1094  C1096   1.404   .     A
C1094  C811    1.491   1_655 S
C1095  C1117   1.428   .     A
C1095  O1193   1.396   .     S
C1096  C1097   1.398   .     A
C1096  H918    1.082   1_655 S
C1097  C1098   1.397   .     A
C1097  H1130   1.081   .     S
C1098  C1099   1.395   .     A
C1098  H1131   1.081   .     S
C1099  H1132   1.081   .     S
C1099  C1100   1.397   .     A
C1100  H1133   1.083   .     S
C1101  C1102   1.407   .     A
C1101  C1107   1.405   .     A
C1102  C1103   1.398   .     A
C1102  H1134   1.083   .     S
C1103  H1135   1.081   .     S
C1103  C1104   1.395   .     A
C1104  H1136   1.082   .     S
C1104  C1105   1.397   .     A
C1105  H1137   1.081   .     S
C1105  C1107   1.396   .     A
C1106  O1194   1.383   .     S
C1106  C1125   1.415   .     A
C1108  H1139   1.113   .     S
C1108  C1109   1.520   .     S
C1108  O1204   1.411   .     S
C1108  H1141   1.114   .     S
C1109  H1142   1.111   .     S
C1109  H1546   1.110   1_545 S
C1110  H1146   1.116   .     S
C1110  O1190   1.412   .     S
C1110  H1547   1.112   .     S
C1111  H1147   1.111   .     S
C1111  H1148   1.111   .     S
C1111  C842    1.521   1_655 S
C1111  H1283   1.111   1_655 S
C1112  H1152   1.113   .     S
C1112  H1150   1.113   .     S
C1112  C1113   1.520   .     S
C1112  O1191   1.411   .     S
C1113  H1153   1.110   .     S
C1113  H1154   1.107   .     S
C1113  H1155   1.110   .     S
C1114  H1156   1.108   .     S
C1114  H1157   1.115   .     S
C1114  C1115   1.526   .     S
C1114  O1192   1.420   .     S
C1115  H1160   1.109   .     S
C1115  H1158   1.108   .     S
C1115  H1159   1.110   .     S
C1116  O1193   1.409   .     S
C1116  H1163   1.109   .     S
C1116  H1161   1.108   .     S
C1117  N1187   1.363   .     A
C1117  H1173   1.079   .     S
C1118  H1166   1.111   .     S
C1118  H1165   1.110   .     S
C1118  C312    1.519   1_556 S
C1118  H360    1.110   1_556 S
C1119  C1120   1.520   .     S
C1119  H1168   1.111   .     S
C1119  O1194   1.409   .     S
C1119  H1167   1.115   .     S
C1120  H1169   1.111   .     S
C1120  H1170   1.110   .     S
C1120  H367    1.111   1_556 S
C1121  O1195   1.410   .     S
C1121  H1174   1.111   .     S
C1121  H1172   1.116   .     S
C1122  H1177   1.111   .     S
C1122  C317    1.521   1_556 S
C1122  H371    1.111   1_556 S
C1122  H908    1.108   1_655 S
C1123  O1196   1.415   .     S
C1123  C1124   1.522   .     S
C1123  H1179   1.116   .     S
C1123  H374    1.111   1_556 S
C1124  H1182   1.110   .     S
C1124  H1181   1.111   .     S
C1124  H1180   1.111   .     S
C1125  N1188   1.361   .     A
C1125  H1183   1.076   .     S
C1126  C1128   1.406   .     A
C1126  N1187   1.361   .     A
C1126  H1184   1.082   .     S
C1127  N1188   1.362   .     A
C1127  H1185   1.080   .     S
C1128  O1195   1.381   .     S
H1138  C839    1.083   1_655 S
H1143  C841    1.111   1_655 S
H1144  C1511   1.110   .     S
H1145  C1512   1.112   1_545 S
H1149  C1379   1.111   1_545 S
N1187  Zn1206  2.001   .     S
N1188  Zn1205  2.001   .     S
O1189  Zn1205  1.964   .     S
O1197  Zn1206  1.964   .     S
O1198  Zn1206  1.979   .     S
O1199  Zn1205  1.979   .     S
O1200  Zn1205  1.980   .     S
O1201  Zn1206  1.980   .     S
O1202  Zn1206  1.977   .     S
O1203  Zn1205  1.977   .     S
C1207  O1323   1.288   .     A
C1207  O1332   1.287   .     A
C1207  C1220   1.450   .     S
C1208  C1261   1.411   .     A
C1208  C1210   1.413   .     A
C1208  O1330   1.383   .     S
C1209  C1229   1.413   .     A
C1209  C1262   1.414   .     A
C1210  C1240   1.412   .     A
C1210  C405    1.512   1_556 S
C1211  C1213   1.401   .     S
C1211  O1336   1.278   .     A
C1211  O1334   1.268   .     A
C1212  O1335   1.270   .     A
C1212  C1214   1.403   .     S
C1212  O1337   1.277   .     A
C1213  C1482   1.348   1_455 S
C1213  C1496   1.491   1_455 S
C1214  C1347   1.348   .     S
C1214  C1369   1.495   .     S
C1215  C1226   1.402   .     A
C1215  C1217   1.390   .     A
C1215  O1338   1.384   .     S
C1216  C1227   1.403   .     A
C1216  O1324   1.383   .     S
C1216  C1219   1.383   .     A
C1217  C1220   1.403   .     A
C1217  H1263   1.084   .     S
C1218  O1333   1.284   .     A
C1218  C1221   1.445   .     S
C1218  O1331   1.289   .     A
C1219  C1221   1.402   .     A
C1219  H1274   1.084   .     S
C1220  C1222   1.406   .     A
C1221  C1223   1.409   .     A
C1222  O1325   1.383   .     S
C1222  C1224   1.390   .     A
C1223  O1326   1.398   .     S
C1223  C1225   1.400   .     A
C1224  H1285   1.084   .     S
C1224  C1226   1.397   .     A
C1225  C1227   1.398   .     A
C1225  H1296   1.080   .     S
C1227  C824    1.448   1_565 S
C1228  C1234   1.407   .     A
C1228  C1230   1.404   .     A
C1228  C1347   1.491   .     S
C1229  C1251   1.428   .     A
C1229  O1327   1.396   .     S
C1230  C1231   1.398   .     A
C1230  H1454   1.082   .     S
C1231  C1232   1.397   .     A
C1231  H1264   1.081   .     S
C1232  C1233   1.395   .     A
C1232  H1265   1.081   .     S
C1233  H1266   1.081   .     S
C1233  C1234   1.397   .     A
C1234  H1267   1.083   .     S
C1235  C1236   1.407   .     A
C1235  C1241   1.405   .     A
C1235  C1482   1.495   1_455 S
C1236  C1237   1.398   .     A
C1236  H1268   1.083   .     S
C1237  H1269   1.081   .     S
C1237  C1238   1.395   .     A
C1238  H1270   1.082   .     S
C1238  C1239   1.397   .     A
C1239  H1271   1.081   .     S
C1239  C1241   1.396   .     A
C1240  O1328   1.383   .     S
C1240  C1259   1.415   .     A
C1241  H1540   1.083   1_455 S
C1242  H1273   1.113   .     S
C1242  C1243   1.520   .     S
C1242  O1338   1.411   .     S
C1242  H1275   1.114   .     S
C1243  H1276   1.111   .     S
C1243  H1545   1.111   1_455 S
C1244  H1280   1.116   .     S
C1244  O1324   1.412   .     S
C1244  C1513   1.521   1_455 S
C1244  H877    1.112   1_565 S
C1245  H1281   1.111   .     S
C1245  H1282   1.111   .     S
C1245  C1378   1.521   .     S
C1245  H1015   1.111   1_565 S
C1246  H1286   1.113   .     S
C1246  H1284   1.113   .     S
C1246  C1247   1.520   .     S
C1246  O1325   1.411   .     S
C1247  H1287   1.110   .     S
C1247  H1288   1.107   .     S
C1247  H1289   1.110   .     S
C1248  H1290   1.108   .     S
C1248  H1291   1.115   .     S
C1248  C1249   1.526   .     S
C1248  O1326   1.420   .     S
C1249  H1294   1.109   .     S
C1249  H1292   1.108   .     S
C1249  H1293   1.110   .     S
C1250  O1327   1.409   .     S
C1250  H1297   1.109   .     S
C1250  H1295   1.108   .     S
C1251  N1321   1.363   .     A
C1251  H1307   1.079   .     S
C1252  H1300   1.111   .     S
C1252  H1299   1.110   .     S
C1252  C446    1.519   1_556 S
C1252  H494    1.110   1_556 S
C1253  C1254   1.520   .     S
C1253  H1302   1.111   .     S
C1253  O1328   1.409   .     S
C1253  H1301   1.115   .     S
C1254  H1303   1.111   .     S
C1254  H1304   1.110   .     S
C1254  H501    1.111   1_556 S
C1255  O1329   1.410   .     S
C1255  H1308   1.111   .     S
C1255  H1306   1.116   .     S
C1256  H1311   1.111   .     S
C1256  C451    1.521   1_556 S
C1256  H505    1.111   1_556 S
C1256  H1444   1.108   .     S
C1257  O1330   1.415   .     S
C1257  C1258   1.522   .     S
C1257  H1313   1.116   .     S
C1257  H508    1.111   1_556 S
C1258  H1316   1.110   .     S
C1258  H1315   1.111   .     S
C1258  H1314   1.111   .     S
C1259  N1322   1.361   .     A
C1259  H1317   1.076   .     S
C1260  C1262   1.406   .     A
C1260  N1321   1.361   .     A
C1260  H1318   1.082   .     S
C1261  N1322   1.362   .     A
C1261  H1319   1.080   .     S
C1262  O1329   1.381   .     S
H1272  C1375   1.083   .     S
H1277  C1377   1.111   .     S
H1278  C841    1.110   1_565 S
H1283  C1111   1.111   1_455 S
H1310  C1524   1.108   1_455 S
H1320  C1498   1.082   1_455 S
N1321  Zn1340  2.001   .     S
N1322  Zn1339  2.001   .     S
O1323  Zn1339  1.964   .     S
O1331  Zn1340  1.964   .     S
O1332  Zn1340  1.979   .     S
O1333  Zn1339  1.979   .     S
O1334  Zn1339  1.980   .     S
O1335  Zn1340  1.980   .     S
O1336  Zn1340  1.977   .     S
O1337  Zn1339  1.977   .     S
C1341  O1457   1.288   .     A
C1341  O1466   1.287   .     A
C1341  C1354   1.450   .     S
C1342  C1395   1.411   .     A
C1342  C1344   1.413   .     A
C1342  O1464   1.383   .     S
C1343  C1363   1.413   .     A
C1343  C1396   1.414   .     A
C1344  C1374   1.412   .     A
C1344  C539    1.512   1_556 S
C1345  C1347   1.401   .     S
C1345  O1470   1.278   .     A
C1345  O1468   1.268   .     A
C1346  O1469   1.270   .     A
C1346  C1348   1.403   .     S
C1346  O1471   1.277   .     A
C1348  C1481   1.348   .     S
C1348  C1503   1.495   .     S
C1349  C1360   1.402   .     A
C1349  C1351   1.390   .     A
C1349  O1472   1.384   .     S
C1350  C1361   1.403   .     A
C1350  O1458   1.383   .     S
C1350  C1353   1.383   .     A
C1351  C1354   1.403   .     A
C1351  H1397   1.084   .     S
C1352  O1467   1.284   .     A
C1352  C1355   1.445   .     S
C1352  O1465   1.289   .     A
C1353  C1355   1.402   .     A
C1353  H1408   1.084   .     S
C1354  C1356   1.406   .     A
C1355  C1357   1.409   .     A
C1356  O1459   1.383   .     S
C1356  C1358   1.390   .     A
C1357  O1460   1.398   .     S
C1357  C1359   1.400   .     A
C1358  H1419   1.084   .     S
C1358  C1360   1.397   .     A
C1359  C1361   1.398   .     A
C1359  H1430   1.080   .     S
C1361  C958    1.448   1_565 S
C1362  C1368   1.407   .     A
C1362  C1364   1.404   .     A
C1362  C1481   1.491   .     S
C1363  C1385   1.428   .     A
C1363  O1461   1.396   .     S
C1364  C1365   1.398   .     A
C1364  H1588   1.082   .     S
C1365  C1366   1.397   .     A
C1365  H1398   1.081   .     S
C1366  C1367   1.395   .     A
C1366  H1399   1.081   .     S
C1367  H1400   1.081   .     S
C1367  C1368   1.397   .     A
C1368  H1401   1.083   .     S
C1369  C1370   1.407   .     A
C1369  C1375   1.405   .     A
C1370  C1371   1.398   .     A
C1370  H1402   1.083   .     S
C1371  H1403   1.081   .     S
C1371  C1372   1.395   .     A
C1372  H1404   1.082   .     S
C1372  C1373   1.397   .     A
C1373  H1405   1.081   .     S
C1373  C1375   1.396   .     A
C1374  O1462   1.383   .     S
C1374  C1393   1.415   .     A
C1376  H1407   1.113   .     S
C1376  C1377   1.520   .     S
C1376  O1472   1.411   .     S
C1376  H1409   1.114   .     S
C1377  H1410   1.111   .     S
C1378  H1414   1.116   .     S
C1378  O1458   1.412   .     S
C1378  H1011   1.112   1_565 S
C1379  H1415   1.111   .     S
C1379  H1416   1.111   .     S
C1379  C1512   1.521   .     S
C1379  H1149   1.111   1_565 S
C1380  H1420   1.113   .     S
C1380  H1418   1.113   .     S
C1380  C1381   1.520   .     S
C1380  O1459   1.411   .     S
C1381  H1421   1.110   .     S
C1381  H1422   1.107   .     S
C1381  H1423   1.110   .     S
C1382  H1424   1.108   .     S
C1382  H1425   1.115   .     S
C1382  C1383   1.526   .     S
C1382  O1460   1.420   .     S
C1383  H1428   1.109   .     S
C1383  H1426   1.108   .     S
C1383  H1427   1.110   .     S
C1384  O1461   1.409   .     S
C1384  H1431   1.109   .     S
C1384  H1429   1.108   .     S
C1385  N1455   1.363   .     A
C1385  H1441   1.079   .     S
C1386  H1434   1.111   .     S
C1386  H1433   1.110   .     S
C1386  C580    1.519   1_556 S
C1386  H628    1.110   1_556 S
C1387  C1388   1.520   .     S
C1387  H1436   1.111   .     S
C1387  O1462   1.409   .     S
C1387  H1435   1.115   .     S
C1388  H1437   1.111   .     S
C1388  H1438   1.110   .     S
C1388  H635    1.111   1_556 S
C1389  O1463   1.410   .     S
C1389  H1442   1.111   .     S
C1389  H1440   1.116   .     S
C1390  H1445   1.111   .     S
C1390  C585    1.521   1_556 S
C1390  H639    1.111   1_556 S
C1390  H1578   1.108   .     S
C1391  O1464   1.415   .     S
C1391  C1392   1.522   .     S
C1391  H1447   1.116   .     S
C1391  H642    1.111   1_556 S
C1392  H1450   1.110   .     S
C1392  H1449   1.111   .     S
C1392  H1448   1.111   .     S
C1393  N1456   1.361   .     A
C1393  H1451   1.076   .     S
C1394  C1396   1.406   .     A
C1394  N1455   1.361   .     A
C1394  H1452   1.082   .     S
C1395  N1456   1.362   .     A
C1395  H1453   1.080   .     S
C1396  O1463   1.381   .     S
H1406  C1509   1.083   .     S
H1411  C1511   1.111   .     S
H1412  C975    1.110   1_565 S
N1455  Zn1474  2.001   .     S
N1456  Zn1473  2.001   .     S
O1457  Zn1473  1.964   .     S
O1465  Zn1474  1.964   .     S
O1466  Zn1474  1.979   .     S
O1467  Zn1473  1.979   .     S
O1468  Zn1473  1.980   .     S
O1469  Zn1474  1.980   .     S
O1470  Zn1474  1.977   .     S
O1471  Zn1473  1.977   .     S
C1475  O1591   1.288   .     A
C1475  O1600   1.287   .     A
C1475  C1488   1.450   .     S
C1476  C1529   1.411   .     A
C1476  C1478   1.413   .     A
C1476  O1598   1.383   .     S
C1477  C1497   1.413   .     A
C1477  C1530   1.414   .     A
C1478  C1508   1.412   .     A
C1478  C673    1.512   1_556 S
C1479  C1481   1.401   .     S
C1479  O1604   1.278   .     A
C1479  O1602   1.268   .     A
C1480  O1603   1.270   .     A
C1480  C1482   1.403   .     S
C1480  O1605   1.277   .     A
C1482  C1213   1.348   1_655 S
C1482  C1235   1.495   1_655 S
C1483  C1494   1.402   .     A
C1483  C1485   1.390   .     A
C1483  O1606   1.384   .     S
C1484  C1495   1.403   .     A
C1484  O1592   1.383   .     S
C1484  C1487   1.383   .     A
C1485  C1488   1.403   .     A
C1485  H1531   1.084   .     S
C1486  O1601   1.284   .     A
C1486  C1489   1.445   .     S
C1486  O1599   1.289   .     A
C1487  C1489   1.402   .     A
C1487  H1542   1.084   .     S
C1488  C1490   1.406   .     A
C1489  C1491   1.409   .     A
C1490  O1593   1.383   .     S
C1490  C1492   1.390   .     A
C1491  O1594   1.398   .     S
C1491  C1493   1.400   .     A
C1492  H1553   1.084   .     S
C1492  C1494   1.397   .     A
C1493  C1495   1.398   .     A
C1493  H1564   1.080   .     S
C1495  C1092   1.448   1_565 S
C1496  C1502   1.407   .     A
C1496  C1498   1.404   .     A
C1496  C1213   1.491   1_655 S
C1497  C1519   1.428   .     A
C1497  O1595   1.396   .     S
C1498  C1499   1.398   .     A
C1498  H1320   1.082   1_655 S
C1499  C1500   1.397   .     A
C1499  H1532   1.081   .     S
C1500  C1501   1.395   .     A
C1500  H1533   1.081   .     S
C1501  H1534   1.081   .     S
C1501  C1502   1.397   .     A
C1502  H1535   1.083   .     S
C1503  C1504   1.407   .     A
C1503  C1509   1.405   .     A
C1504  C1505   1.398   .     A
C1504  H1536   1.083   .     S
C1505  H1537   1.081   .     S
C1505  C1506   1.395   .     A
C1506  H1538   1.082   .     S
C1506  C1507   1.397   .     A
C1507  H1539   1.081   .     S
C1507  C1509   1.396   .     A
C1508  O1596   1.383   .     S
C1508  C1527   1.415   .     A
C1510  H1541   1.113   .     S
C1510  C1511   1.520   .     S
C1510  O1606   1.411   .     S
C1510  H1543   1.114   .     S
C1511  H1544   1.111   .     S
C1512  H1548   1.116   .     S
C1512  O1592   1.412   .     S
C1512  H1145   1.112   1_565 S
C1513  H1549   1.111   .     S
C1513  H1550   1.111   .     S
C1513  C1244   1.521   1_655 S
C1513  H881    1.111   1_665 S
C1514  H1554   1.113   .     S
C1514  H1552   1.113   .     S
C1514  C1515   1.520   .     S
C1514  O1593   1.411   .     S
C1515  H1555   1.110   .     S
C1515  H1556   1.107   .     S
C1515  H1557   1.110   .     S
C1516  H1558   1.108   .     S
C1516  H1559   1.115   .     S
C1516  C1517   1.526   .     S
C1516  O1594   1.420   .     S
C1517  H1562   1.109   .     S
C1517  H1560   1.108   .     S
C1517  H1561   1.110   .     S
C1518  O1595   1.409   .     S
C1518  H1565   1.109   .     S
C1518  H1563   1.108   .     S
C1519  N1589   1.363   .     A
C1519  H1575   1.079   .     S
C1520  H1568   1.111   .     S
C1520  H1567   1.110   .     S
C1520  C714    1.519   1_556 S
C1520  H762    1.110   1_556 S
C1521  C1522   1.520   .     S
C1521  H1570   1.111   .     S
C1521  O1596   1.409   .     S
C1521  H1569   1.115   .     S
C1522  H1571   1.111   .     S
C1522  H1572   1.110   .     S
C1522  H769    1.111   1_556 S
C1523  O1597   1.410   .     S
C1523  H1576   1.111   .     S
C1523  H1574   1.116   .     S
C1524  H1579   1.111   .     S
C1524  C719    1.521   1_556 S
C1524  H773    1.111   1_556 S
C1524  H1310   1.108   1_655 S
C1525  O1598   1.415   .     S
C1525  C1526   1.522   .     S
C1525  H1581   1.116   .     S
C1525  H776    1.111   1_556 S
C1526  H1584   1.110   .     S
C1526  H1583   1.111   .     S
C1526  H1582   1.111   .     S
C1527  N1590   1.361   .     A
C1527  H1585   1.076   .     S
C1528  C1530   1.406   .     A
C1528  N1589   1.361   .     A
C1528  H1586   1.082   .     S
C1529  N1590   1.362   .     A
C1529  H1587   1.080   .     S
C1530  O1597   1.381   .     S
H1540  C1241   1.083   1_655 S
H1545  C1243   1.111   1_655 S
H1546  C1109   1.110   1_565 S
N1589  Zn1608  2.001   .     S
N1590  Zn1607  2.001   .     S
O1591  Zn1607  1.964   .     S
O1599  Zn1608  1.964   .     S
O1600  Zn1608  1.979   .     S
O1601  Zn1607  1.979   .     S
O1602  Zn1607  1.980   .     S
O1603  Zn1608  1.980   .     S
O1604  Zn1608  1.977   .     S
O1605  Zn1607  1.977   .     S
