data_str_m3_o1_o1_pcu_sym.19
_audit_creation_date              2020-01-03
_audit_creation_method            'Materials Studio'
_symmetry_space_group_name_H-M    'P1'
_symmetry_Int_Tables_number       1
_symmetry_cell_setting            triclinic
loop_
_symmetry_equiv_pos_as_xyz
  x,y,z
_cell_length_a                    31.8995
_cell_length_b                    28.8788
_cell_length_c                    29.8567
_cell_angle_alpha                 88.5999
_cell_angle_beta                  89.3575
_cell_angle_gamma                 89.5427
loop_
_atom_site_label
_atom_site_type_symbol
_atom_site_fract_x
_atom_site_fract_y
_atom_site_fract_z
_atom_site_U_iso_or_equiv
_atom_site_adp_type
_atom_site_occupancy
C1     C     0.05900   0.18847   0.16665   0.00000  Uiso   1.00
C2     C     0.00013   0.20945   0.30993   0.00000  Uiso   1.00
C3     C     0.49629   0.20946   0.02442   0.00000  Uiso   1.00
C4     C     0.49902   0.29070   0.30865   0.00000  Uiso   1.00
C5     C     0.24837   0.04083   0.02278   0.00000  Uiso   1.00
C6     C     0.24838   0.45931   0.31058   0.00000  Uiso   1.00
C7     C     0.25341   0.45927   0.02511   0.00000  Uiso   1.00
C8     C     0.25385   0.04061   0.30836   0.00000  Uiso   1.00
C9     C     0.37065   0.16823   0.14372   0.00000  Uiso   1.00
C10    C     0.09494   0.37502   0.20099   0.00000  Uiso   1.00
C11    C     0.11814   0.35095   0.12736   0.00000  Uiso   1.00
C12    C     0.44037   0.31063   0.16646   0.00000  Uiso   1.00
C13    C     0.41120   0.11599   0.19309   0.00000  Uiso   1.00
C14    C     0.11474   0.14460   0.20465   0.00000  Uiso   1.00
C15    C     0.41192   0.38417   0.13449   0.00000  Uiso   1.00
C16    C     0.38124   0.34949   0.20274   0.00000  Uiso   1.00
C17    C     0.08944   0.11729   0.13257   0.00000  Uiso   1.00
C18    C     0.14145   0.39179   0.12503   0.00000  Uiso   1.00
C19    C     0.37839   0.08430   0.19341   0.00000  Uiso   1.00
C20    C     0.34119   0.13349   0.13847   0.00000  Uiso   1.00
C21    C     0.13396   0.39449   0.20616   0.00000  Uiso   1.00
C22    C     0.35919   0.39058   0.20828   0.00000  Uiso   1.00
C23    C     0.43993   0.19050   0.16725   0.00000  Uiso   1.00
C24    C     0.12133   0.08372   0.13222   0.00000  Uiso   1.00
C25    C     0.13661   0.10308   0.20898   0.00000  Uiso   1.00
C26    C     0.38002   0.41776   0.13430   0.00000  Uiso   1.00
C27    C     0.09022   0.34642   0.16424   0.00000  Uiso   1.00
C28    C     0.40667   0.15779   0.16839   0.00000  Uiso   1.00
C29    C     0.40956   0.34726   0.16647   0.00000  Uiso   1.00
C30    C     0.08922   0.15080   0.16680   0.00000  Uiso   1.00
C31    C     0.34397   0.09274   0.16524   0.00000  Uiso   1.00
C32    C     0.15641   0.40642   0.16675   0.00000  Uiso   1.00
C33    C     0.14788   0.08096   0.16912   0.00000  Uiso   1.00
C34    C     0.05893   0.31107   0.16602   0.00000  Uiso   1.00
C35    C     0.34962   0.41479   0.16847   0.00000  Uiso   1.00
C36    C     0.04689   0.35719   0.03393   0.00000  Uiso   1.00
C37    C     0.03899   0.13782   0.29797   0.00000  Uiso   1.00
C38    C     0.45098   0.14240   0.03905   0.00000  Uiso   1.00
C39    C     0.45997   0.36331   0.29775   0.00000  Uiso   1.00
C40    C     0.21488   0.11784   0.03251   0.00000  Uiso   1.00
C41    C     0.25999   0.38274   0.27796   0.00000  Uiso   1.00
C42    C     0.24821   0.38141   0.06227   0.00000  Uiso   1.00
C43    C     0.24647   0.11372   0.26354   0.00000  Uiso   1.00
C44    C     0.37115   0.23065   0.08558   0.00000  Uiso   1.00
C45    C     0.31196   0.44253   0.16697   0.00000  Uiso   1.00
C46    C     0.04645   0.42854   0.23419   0.00000  Uiso   1.00
C47    C     0.16547   0.30978   0.07548   0.00000  Uiso   1.00
C48    C     0.48323   0.08953   0.19296   0.00000  Uiso   1.00
C49    C     0.14507   0.21902   0.21947   0.00000  Uiso   1.00
C50    C     0.48212   0.41317   0.12883   0.00000  Uiso   1.00
C51    C     0.33723   0.28861   0.23393   0.00000  Uiso   1.00
C52    C     0.03272   0.07528   0.09640   0.00000  Uiso   1.00
C53    C     0.13927   0.42541   0.04807   0.00000  Uiso   1.00
C54    C     0.37235   0.04448   0.26619   0.00000  Uiso   1.00
C55    C     0.32819   0.12743   0.06017   0.00000  Uiso   1.00
C56    C     0.18718   0.05595   0.16703   0.00000  Uiso   1.00
C57    C     0.15848   0.34544   0.26616   0.00000  Uiso   1.00
C58    C     0.35887   0.40571   0.29055   0.00000  Uiso   1.00
C59    C     0.12868   0.05815   0.05382   0.00000  Uiso   1.00
C60    C     0.12166   0.03629   0.25759   0.00000  Uiso   1.00
C61    C     0.37421   0.45498   0.06010   0.00000  Uiso   1.00
C62    C     0.19020   0.43947   0.16705   0.00000  Uiso   1.00
C63    C     0.30998   0.06009   0.16610   0.00000  Uiso   1.00
C64    C     0.00265   0.29049   0.02288   0.00000  Uiso   1.00
H65    H     0.00055   0.33276   0.07773   0.00000  Uiso   1.00
H66    H     0.43031   0.16225   0.01565   0.00000  Uiso   1.00
H67    H     0.43348   0.13574   0.07087   0.00000  Uiso   1.00
H68    H     0.45863   0.10840   0.02437   0.00000  Uiso   1.00
H69    H     0.49972   0.33336   0.25140   0.00000  Uiso   1.00
H70    H     0.44351   0.37577   0.26720   0.00000  Uiso   1.00
H71    H     0.43729   0.34479   0.32021   0.00000  Uiso   1.00
H72    H     0.47165   0.39411   0.31504   0.00000  Uiso   1.00
H73    H     0.25173   0.08255   0.07875   0.00000  Uiso   1.00
H74    H     0.23042   0.15033   0.02122   0.00000  Uiso   1.00
H75    H     0.19502   0.12610   0.06209   0.00000  Uiso   1.00
H76    H     0.04082   0.38612   0.00975   0.00000  Uiso   1.00
H77    H     0.19436   0.10550   0.00571   0.00000  Uiso   1.00
H78    H     0.20678   0.40758   0.30912   0.00000  Uiso   1.00
H79    H     0.27433   0.36538   0.30740   0.00000  Uiso   1.00
H80    H     0.28459   0.39551   0.25546   0.00000  Uiso   1.00
H81    H     0.24288   0.35641   0.25932   0.00000  Uiso   1.00
H82    H     0.29979   0.40981   0.03126   0.00000  Uiso   1.00
H83    H     0.23379   0.36421   0.03382   0.00000  Uiso   1.00
H84    H     0.22390   0.39145   0.08639   0.00000  Uiso   1.00
H85    H     0.26884   0.35574   0.07967   0.00000  Uiso   1.00
H86    H     0.29660   0.09426   0.30381   0.00000  Uiso   1.00
H87    H     0.07111   0.33360   0.01976   0.00000  Uiso   1.00
H88    H     0.25585   0.11708   0.22779   0.00000  Uiso   1.00
H89    H     0.21327   0.10439   0.26582   0.00000  Uiso   1.00
H90    H     0.25036   0.14820   0.27853   0.00000  Uiso   1.00
H91    H     0.33192   0.22621   0.14128   0.00000  Uiso   1.00
H92    H     0.34384   0.22581   0.06350   0.00000  Uiso   1.00
H93    H     0.39861   0.21204   0.07179   0.00000  Uiso   1.00
H94    H     0.37850   0.26815   0.08555   0.00000  Uiso   1.00
H95    H     0.07024   0.36966   0.26511   0.00000  Uiso   1.00
H96    H     0.01777   0.42973   0.25544   0.00000  Uiso   1.00
H97    H     0.03833   0.44109   0.19990   0.00000  Uiso   1.00
H98    H     0.05938   0.37231   0.06467   0.00000  Uiso   1.00
H99    H     0.07001   0.45204   0.24830   0.00000  Uiso   1.00
H100   H     0.11471   0.28217   0.10780   0.00000  Uiso   1.00
H101   H     0.19038   0.30924   0.10122   0.00000  Uiso   1.00
H102   H     0.17039   0.33814   0.05083   0.00000  Uiso   1.00
H103   H     0.16733   0.27698   0.05683   0.00000  Uiso   1.00
H104   H     0.44344   0.08806   0.24797   0.00000  Uiso   1.00
H105   H     0.00966   0.08098   0.21561   0.00000  Uiso   1.00
H106   H     0.49392   0.11657   0.16864   0.00000  Uiso   1.00
H107   H     0.47446   0.05764   0.17533   0.00000  Uiso   1.00
H108   H     0.12820   0.17091   0.26805   0.00000  Uiso   1.00
H109   H     0.47566   0.15005   0.28449   0.00000  Uiso   1.00
H110   H     0.17769   0.20705   0.21270   0.00000  Uiso   1.00
H111   H     0.14581   0.24618   0.24507   0.00000  Uiso   1.00
H112   H     0.13169   0.23461   0.18836   0.00000  Uiso   1.00
H113   H     0.44263   0.40359   0.07520   0.00000  Uiso   1.00
H114   H     0.47197   0.44813   0.13963   0.00000  Uiso   1.00
H115   H     0.00910   0.41731   0.10539   0.00000  Uiso   1.00
H116   H     0.49255   0.39220   0.15837   0.00000  Uiso   1.00
H117   H     0.38832   0.31756   0.26557   0.00000  Uiso   1.00
H118   H     0.31245   0.31108   0.24825   0.00000  Uiso   1.00
H119   H     0.33922   0.25609   0.25444   0.00000  Uiso   1.00
H120   H     0.05092   0.12126   0.26727   0.00000  Uiso   1.00
H121   H     0.32867   0.27979   0.19928   0.00000  Uiso   1.00
H122   H     0.06635   0.13192   0.06920   0.00000  Uiso   1.00
H123   H     0.03898   0.05825   0.06411   0.00000  Uiso   1.00
H124   H     0.49897   0.08436   0.09738   0.00000  Uiso   1.00
H125   H     0.03900   0.05018   0.12441   0.00000  Uiso   1.00
H126   H     0.09658   0.43682   0.09962   0.00000  Uiso   1.00
H127   H     0.12552   0.39479   0.03250   0.00000  Uiso   1.00
H128   H     0.17359   0.42513   0.04418   0.00000  Uiso   1.00
H129   H     0.12729   0.45669   0.02991   0.00000  Uiso   1.00
H130   H     0.40818   0.02276   0.21137   0.00000  Uiso   1.00
H131   H     0.02938   0.11007   0.32223   0.00000  Uiso   1.00
H132   H     0.34485   0.02258   0.27469   0.00000  Uiso   1.00
H133   H     0.36559   0.08058   0.27636   0.00000  Uiso   1.00
H134   H     0.39936   0.03115   0.28599   0.00000  Uiso   1.00
H135   H     0.29491   0.16930   0.10394   0.00000  Uiso   1.00
H136   H     0.30714   0.14104   0.03358   0.00000  Uiso   1.00
H137   H     0.33200   0.08938   0.05714   0.00000  Uiso   1.00
H138   H     0.35916   0.14359   0.05423   0.00000  Uiso   1.00
H139   H     0.13704   0.41324   0.27191   0.00000  Uiso   1.00
H140   H     0.17300   0.34474   0.29963   0.00000  Uiso   1.00
H141   H     0.17869   0.32568   0.24273   0.00000  Uiso   1.00
H142   H     0.06490   0.15788   0.31254   0.00000  Uiso   1.00
H143   H     0.12827   0.32704   0.27021   0.00000  Uiso   1.00
H144   H     0.37313   0.45338   0.23898   0.00000  Uiso   1.00
H145   H     0.38696   0.40762   0.31160   0.00000  Uiso   1.00
H146   H     0.34577   0.37051   0.29373   0.00000  Uiso   1.00
H147   H     0.33580   0.43133   0.30298   0.00000  Uiso   1.00
H148   H     0.13224   0.01542   0.11165   0.00000  Uiso   1.00
H149   H     0.10420   0.04195   0.03351   0.00000  Uiso   1.00
H150   H     0.15931   0.04327   0.04344   0.00000  Uiso   1.00
H151   H     0.12821   0.09601   0.04672   0.00000  Uiso   1.00
H152   H     0.13809   0.10042   0.27961   0.00000  Uiso   1.00
H153   H     0.49782   0.16615   0.08070   0.00000  Uiso   1.00
H154   H     0.08709   0.04129   0.25755   0.00000  Uiso   1.00
H155   H     0.13096   0.01988   0.29002   0.00000  Uiso   1.00
H156   H     0.13076   0.01226   0.23063   0.00000  Uiso   1.00
H157   H     0.37343   0.48919   0.12111   0.00000  Uiso   1.00
H158   H     0.40069   0.46901   0.03967   0.00000  Uiso   1.00
H159   H     0.34562   0.47553   0.05191   0.00000  Uiso   1.00
H160   H     0.36924   0.41831   0.05139   0.00000  Uiso   1.00
N161   N     0.00000   0.25000   0.28573   0.00000  Uiso   1.00
N162   N     0.23173   0.41966   0.29052   0.00000  Uiso   1.00
N163   N     0.27294   0.42057   0.04730   0.00000  Uiso   1.00
N164   N     0.27273   0.07964   0.28616   0.00000  Uiso   1.00
N165   N     0.36117   0.21519   0.13090   0.00000  Uiso   1.00
N166   N     0.06266   0.38160   0.23345   0.00000  Uiso   1.00
N167   N     0.12459   0.31421   0.09631   0.00000  Uiso   1.00
N168   N     0.44803   0.10669   0.21853   0.00000  Uiso   1.00
N169   N     0.11985   0.18072   0.23607   0.00000  Uiso   1.00
N170   N     0.44818   0.39016   0.10685   0.00000  Uiso   1.00
N171   N     0.37722   0.31172   0.23404   0.00000  Uiso   1.00
N172   N     0.00000   0.25000   0.04760   0.00000  Uiso   1.00
N173   N     0.05763   0.11702   0.09957   0.00000  Uiso   1.00
N174   N     0.12763   0.42772   0.09483   0.00000  Uiso   1.00
N175   N     0.38158   0.04185   0.21857   0.00000  Uiso   1.00
N176   N     0.31104   0.13823   0.10398   0.00000  Uiso   1.00
N177   N     0.15255   0.39278   0.24915   0.00000  Uiso   1.00
N178   N     0.37026   0.41837   0.24514   0.00000  Uiso   1.00
N179   N     0.12112   0.04723   0.10072   0.00000  Uiso   1.00
N180   N     0.14234   0.08058   0.25181   0.00000  Uiso   1.00
N181   N     0.38373   0.45882   0.10701   0.00000  Uiso   1.00
N182   N     0.25000  -0.00000   0.28573   0.00000  Uiso   1.00
N183   N     0.25000  -0.00000   0.04760   0.00000  Uiso   1.00
N184   N     0.00824   0.33314   0.04450   0.00000  Uiso   1.00
N185   N     0.00352   0.16735   0.28665   0.00000  Uiso   1.00
N186   N     0.48951   0.16681   0.04785   0.00000  Uiso   1.00
N187   N     0.49487   0.33386   0.28515   0.00000  Uiso   1.00
N188   N     0.24640   0.08378   0.04516   0.00000  Uiso   1.00
O189   O     0.04581   0.20419   0.20487   0.00000  Uiso   1.00
O190   O     0.20420   0.04581   0.12846   0.00000  Uiso   1.00
O191   O     0.20420   0.04581   0.20487   0.00000  Uiso   1.00
O192   O     0.29581   0.45419   0.12846   0.00000  Uiso   1.00
O193   O     0.20420   0.45419   0.12846   0.00000  Uiso   1.00
O194   O     0.29581   0.04581   0.20487   0.00000  Uiso   1.00
O195   O     0.29581   0.04581   0.12846   0.00000  Uiso   1.00
O196   O     0.20420   0.45419   0.20487   0.00000  Uiso   1.00
O197   O     0.45420   0.29581   0.12846   0.00000  Uiso   1.00
O198   O     0.45420   0.29581   0.20487   0.00000  Uiso   1.00
O199   O     0.04581   0.20419   0.12846   0.00000  Uiso   1.00
O200   O     0.45420   0.20419   0.12846   0.00000  Uiso   1.00
O201   O     0.04581   0.29581   0.20487   0.00000  Uiso   1.00
O202   O     0.04581   0.29581   0.12846   0.00000  Uiso   1.00
O203   O     0.45420   0.20419   0.20487   0.00000  Uiso   1.00
O204   O     0.29581   0.45419   0.20487   0.00000  Uiso   1.00
Zn205  Zn    0.00000   0.25000   0.21771   0.00000  Uiso   1.00
Zn206  Zn    0.00000   0.25000   0.11563   0.00000  Uiso   1.00
Zn207  Zn    0.25000  -0.00000   0.21771   0.00000  Uiso   1.00
Zn208  Zn    0.25000  -0.00000   0.11563   0.00000  Uiso   1.00
C209   C     0.55900   0.18847   0.16665   0.00000  Uiso   1.00
C210   C     0.50013   0.20945   0.30993   0.00000  Uiso   1.00
C211   C     0.99629   0.20946   0.02442   0.00000  Uiso   1.00
C212   C     0.99902   0.29070   0.30865   0.00000  Uiso   1.00
C213   C     0.74837   0.04083   0.02278   0.00000  Uiso   1.00
C214   C     0.74838   0.45931   0.31058   0.00000  Uiso   1.00
C215   C     0.75341   0.45927   0.02511   0.00000  Uiso   1.00
C216   C     0.75385   0.04061   0.30836   0.00000  Uiso   1.00
C217   C     0.87065   0.16823   0.14372   0.00000  Uiso   1.00
C218   C     0.59494   0.37502   0.20099   0.00000  Uiso   1.00
C219   C     0.61814   0.35095   0.12736   0.00000  Uiso   1.00
C220   C     0.94037   0.31063   0.16646   0.00000  Uiso   1.00
C221   C     0.91120   0.11599   0.19309   0.00000  Uiso   1.00
C222   C     0.61474   0.14460   0.20465   0.00000  Uiso   1.00
C223   C     0.91192   0.38417   0.13449   0.00000  Uiso   1.00
C224   C     0.88124   0.34949   0.20274   0.00000  Uiso   1.00
C225   C     0.58944   0.11729   0.13257   0.00000  Uiso   1.00
C226   C     0.64145   0.39179   0.12503   0.00000  Uiso   1.00
C227   C     0.87839   0.08430   0.19341   0.00000  Uiso   1.00
C228   C     0.84119   0.13349   0.13847   0.00000  Uiso   1.00
C229   C     0.63396   0.39449   0.20616   0.00000  Uiso   1.00
C230   C     0.85919   0.39058   0.20828   0.00000  Uiso   1.00
C231   C     0.93993   0.19050   0.16725   0.00000  Uiso   1.00
C232   C     0.62133   0.08372   0.13222   0.00000  Uiso   1.00
C233   C     0.63661   0.10308   0.20898   0.00000  Uiso   1.00
C234   C     0.88002   0.41776   0.13430   0.00000  Uiso   1.00
C235   C     0.59022   0.34642   0.16424   0.00000  Uiso   1.00
C236   C     0.90667   0.15779   0.16839   0.00000  Uiso   1.00
C237   C     0.90956   0.34726   0.16647   0.00000  Uiso   1.00
C238   C     0.58922   0.15080   0.16680   0.00000  Uiso   1.00
C239   C     0.84397   0.09274   0.16524   0.00000  Uiso   1.00
C240   C     0.65641   0.40642   0.16675   0.00000  Uiso   1.00
C241   C     0.64788   0.08096   0.16912   0.00000  Uiso   1.00
C242   C     0.55893   0.31107   0.16602   0.00000  Uiso   1.00
C243   C     0.84962   0.41479   0.16847   0.00000  Uiso   1.00
C244   C     0.54689   0.35719   0.03393   0.00000  Uiso   1.00
C245   C     0.53899   0.13782   0.29797   0.00000  Uiso   1.00
C246   C     0.95098   0.14240   0.03905   0.00000  Uiso   1.00
C247   C     0.95997   0.36331   0.29775   0.00000  Uiso   1.00
C248   C     0.71488   0.11784   0.03251   0.00000  Uiso   1.00
C249   C     0.75999   0.38274   0.27796   0.00000  Uiso   1.00
C250   C     0.74821   0.38141   0.06227   0.00000  Uiso   1.00
C251   C     0.74647   0.11372   0.26354   0.00000  Uiso   1.00
C252   C     0.87115   0.23065   0.08558   0.00000  Uiso   1.00
C253   C     0.81196   0.44253   0.16697   0.00000  Uiso   1.00
C254   C     0.54645   0.42854   0.23419   0.00000  Uiso   1.00
C255   C     0.66547   0.30978   0.07548   0.00000  Uiso   1.00
C256   C     0.98323   0.08953   0.19296   0.00000  Uiso   1.00
C257   C     0.64507   0.21902   0.21947   0.00000  Uiso   1.00
C258   C     0.98212   0.41317   0.12883   0.00000  Uiso   1.00
C259   C     0.83723   0.28861   0.23393   0.00000  Uiso   1.00
C260   C     0.53272   0.07528   0.09640   0.00000  Uiso   1.00
C261   C     0.63927   0.42541   0.04807   0.00000  Uiso   1.00
C262   C     0.87235   0.04448   0.26619   0.00000  Uiso   1.00
C263   C     0.82819   0.12743   0.06017   0.00000  Uiso   1.00
C264   C     0.68718   0.05595   0.16703   0.00000  Uiso   1.00
C265   C     0.65848   0.34544   0.26616   0.00000  Uiso   1.00
C266   C     0.85887   0.40571   0.29055   0.00000  Uiso   1.00
C267   C     0.62868   0.05815   0.05382   0.00000  Uiso   1.00
C268   C     0.62166   0.03629   0.25759   0.00000  Uiso   1.00
C269   C     0.87421   0.45498   0.06010   0.00000  Uiso   1.00
C270   C     0.69020   0.43947   0.16705   0.00000  Uiso   1.00
C271   C     0.80998   0.06009   0.16610   0.00000  Uiso   1.00
C272   C     0.50265   0.29049   0.02288   0.00000  Uiso   1.00
H273   H     0.50055   0.33276   0.07773   0.00000  Uiso   1.00
H274   H     0.93031   0.16225   0.01565   0.00000  Uiso   1.00
H275   H     0.93348   0.13574   0.07087   0.00000  Uiso   1.00
H276   H     0.95863   0.10840   0.02437   0.00000  Uiso   1.00
H277   H     0.99972   0.33336   0.25140   0.00000  Uiso   1.00
H278   H     0.94351   0.37577   0.26720   0.00000  Uiso   1.00
H279   H     0.93729   0.34479   0.32021   0.00000  Uiso   1.00
H280   H     0.97165   0.39411   0.31504   0.00000  Uiso   1.00
H281   H     0.75173   0.08255   0.07875   0.00000  Uiso   1.00
H282   H     0.73042   0.15033   0.02122   0.00000  Uiso   1.00
H283   H     0.69502   0.12610   0.06209   0.00000  Uiso   1.00
H284   H     0.54082   0.38612   0.00975   0.00000  Uiso   1.00
H285   H     0.69436   0.10550   0.00571   0.00000  Uiso   1.00
H286   H     0.70678   0.40758   0.30912   0.00000  Uiso   1.00
H287   H     0.77433   0.36538   0.30740   0.00000  Uiso   1.00
H288   H     0.78459   0.39551   0.25546   0.00000  Uiso   1.00
H289   H     0.74288   0.35641   0.25932   0.00000  Uiso   1.00
H290   H     0.79979   0.40981   0.03126   0.00000  Uiso   1.00
H291   H     0.73379   0.36421   0.03382   0.00000  Uiso   1.00
H292   H     0.72390   0.39145   0.08639   0.00000  Uiso   1.00
H293   H     0.76884   0.35574   0.07967   0.00000  Uiso   1.00
H294   H     0.79660   0.09426   0.30381   0.00000  Uiso   1.00
H295   H     0.57111   0.33360   0.01976   0.00000  Uiso   1.00
H296   H     0.75585   0.11708   0.22779   0.00000  Uiso   1.00
H297   H     0.71327   0.10439   0.26582   0.00000  Uiso   1.00
H298   H     0.75036   0.14820   0.27853   0.00000  Uiso   1.00
H299   H     0.83192   0.22621   0.14128   0.00000  Uiso   1.00
H300   H     0.84384   0.22581   0.06350   0.00000  Uiso   1.00
H301   H     0.89861   0.21204   0.07179   0.00000  Uiso   1.00
H302   H     0.87850   0.26815   0.08555   0.00000  Uiso   1.00
H303   H     0.57024   0.36966   0.26511   0.00000  Uiso   1.00
H304   H     0.51777   0.42973   0.25544   0.00000  Uiso   1.00
H305   H     0.53833   0.44109   0.19990   0.00000  Uiso   1.00
H306   H     0.55938   0.37231   0.06467   0.00000  Uiso   1.00
H307   H     0.57001   0.45204   0.24830   0.00000  Uiso   1.00
H308   H     0.61471   0.28217   0.10780   0.00000  Uiso   1.00
H309   H     0.69038   0.30924   0.10122   0.00000  Uiso   1.00
H310   H     0.67039   0.33814   0.05083   0.00000  Uiso   1.00
H311   H     0.66733   0.27698   0.05683   0.00000  Uiso   1.00
H312   H     0.94344   0.08806   0.24797   0.00000  Uiso   1.00
H313   H     0.50966   0.08098   0.21561   0.00000  Uiso   1.00
H314   H     0.99392   0.11657   0.16864   0.00000  Uiso   1.00
H315   H     0.97446   0.05764   0.17533   0.00000  Uiso   1.00
H316   H     0.62820   0.17091   0.26805   0.00000  Uiso   1.00
H317   H     0.97566   0.15005   0.28449   0.00000  Uiso   1.00
H318   H     0.67769   0.20705   0.21270   0.00000  Uiso   1.00
H319   H     0.64581   0.24618   0.24507   0.00000  Uiso   1.00
H320   H     0.63169   0.23461   0.18836   0.00000  Uiso   1.00
H321   H     0.94263   0.40359   0.07520   0.00000  Uiso   1.00
H322   H     0.97197   0.44813   0.13963   0.00000  Uiso   1.00
H323   H     0.50910   0.41731   0.10539   0.00000  Uiso   1.00
H324   H     0.99255   0.39220   0.15837   0.00000  Uiso   1.00
H325   H     0.88832   0.31756   0.26557   0.00000  Uiso   1.00
H326   H     0.81245   0.31108   0.24825   0.00000  Uiso   1.00
H327   H     0.83922   0.25609   0.25444   0.00000  Uiso   1.00
H328   H     0.55092   0.12126   0.26727   0.00000  Uiso   1.00
H329   H     0.82867   0.27979   0.19928   0.00000  Uiso   1.00
H330   H     0.56635   0.13192   0.06920   0.00000  Uiso   1.00
H331   H     0.53898   0.05825   0.06411   0.00000  Uiso   1.00
H332   H     0.99897   0.08436   0.09738   0.00000  Uiso   1.00
H333   H     0.53900   0.05018   0.12441   0.00000  Uiso   1.00
H334   H     0.59658   0.43682   0.09962   0.00000  Uiso   1.00
H335   H     0.62552   0.39479   0.03250   0.00000  Uiso   1.00
H336   H     0.67359   0.42513   0.04418   0.00000  Uiso   1.00
H337   H     0.62729   0.45669   0.02991   0.00000  Uiso   1.00
H338   H     0.90818   0.02276   0.21137   0.00000  Uiso   1.00
H339   H     0.52938   0.11007   0.32223   0.00000  Uiso   1.00
H340   H     0.84485   0.02258   0.27469   0.00000  Uiso   1.00
H341   H     0.86559   0.08058   0.27636   0.00000  Uiso   1.00
H342   H     0.89936   0.03115   0.28599   0.00000  Uiso   1.00
H343   H     0.79491   0.16930   0.10394   0.00000  Uiso   1.00
H344   H     0.80714   0.14104   0.03358   0.00000  Uiso   1.00
H345   H     0.83200   0.08938   0.05714   0.00000  Uiso   1.00
H346   H     0.85916   0.14359   0.05423   0.00000  Uiso   1.00
H347   H     0.63704   0.41324   0.27191   0.00000  Uiso   1.00
H348   H     0.67300   0.34474   0.29963   0.00000  Uiso   1.00
H349   H     0.67869   0.32568   0.24273   0.00000  Uiso   1.00
H350   H     0.56490   0.15788   0.31254   0.00000  Uiso   1.00
H351   H     0.62827   0.32704   0.27021   0.00000  Uiso   1.00
H352   H     0.87313   0.45338   0.23898   0.00000  Uiso   1.00
H353   H     0.88696   0.40762   0.31160   0.00000  Uiso   1.00
H354   H     0.84577   0.37051   0.29373   0.00000  Uiso   1.00
H355   H     0.83580   0.43133   0.30298   0.00000  Uiso   1.00
H356   H     0.63224   0.01542   0.11165   0.00000  Uiso   1.00
H357   H     0.60420   0.04195   0.03351   0.00000  Uiso   1.00
H358   H     0.65931   0.04327   0.04344   0.00000  Uiso   1.00
H359   H     0.62821   0.09601   0.04672   0.00000  Uiso   1.00
H360   H     0.63809   0.10042   0.27961   0.00000  Uiso   1.00
H361   H     0.99782   0.16615   0.08070   0.00000  Uiso   1.00
H362   H     0.58709   0.04129   0.25755   0.00000  Uiso   1.00
H363   H     0.63096   0.01988   0.29002   0.00000  Uiso   1.00
H364   H     0.63076   0.01226   0.23063   0.00000  Uiso   1.00
H365   H     0.87343   0.48919   0.12111   0.00000  Uiso   1.00
H366   H     0.90069   0.46901   0.03967   0.00000  Uiso   1.00
H367   H     0.84562   0.47553   0.05191   0.00000  Uiso   1.00
H368   H     0.86924   0.41831   0.05139   0.00000  Uiso   1.00
N369   N     0.50000   0.25000   0.28573   0.00000  Uiso   1.00
N370   N     0.73173   0.41966   0.29052   0.00000  Uiso   1.00
N371   N     0.77294   0.42057   0.04730   0.00000  Uiso   1.00
N372   N     0.77273   0.07964   0.28616   0.00000  Uiso   1.00
N373   N     0.86117   0.21519   0.13090   0.00000  Uiso   1.00
N374   N     0.56266   0.38160   0.23345   0.00000  Uiso   1.00
N375   N     0.62459   0.31421   0.09631   0.00000  Uiso   1.00
N376   N     0.94803   0.10669   0.21853   0.00000  Uiso   1.00
N377   N     0.61985   0.18072   0.23607   0.00000  Uiso   1.00
N378   N     0.94818   0.39016   0.10685   0.00000  Uiso   1.00
N379   N     0.87722   0.31172   0.23404   0.00000  Uiso   1.00
N380   N     0.50000   0.25000   0.04760   0.00000  Uiso   1.00
N381   N     0.55763   0.11702   0.09957   0.00000  Uiso   1.00
N382   N     0.62763   0.42772   0.09483   0.00000  Uiso   1.00
N383   N     0.88158   0.04185   0.21857   0.00000  Uiso   1.00
N384   N     0.81104   0.13823   0.10398   0.00000  Uiso   1.00
N385   N     0.65255   0.39278   0.24915   0.00000  Uiso   1.00
N386   N     0.87026   0.41837   0.24514   0.00000  Uiso   1.00
N387   N     0.62112   0.04723   0.10072   0.00000  Uiso   1.00
N388   N     0.64234   0.08058   0.25181   0.00000  Uiso   1.00
N389   N     0.88373   0.45882   0.10701   0.00000  Uiso   1.00
N390   N     0.75000  -0.00000   0.28573   0.00000  Uiso   1.00
N391   N     0.75000  -0.00000   0.04760   0.00000  Uiso   1.00
N392   N     0.50824   0.33314   0.04450   0.00000  Uiso   1.00
N393   N     0.50352   0.16735   0.28665   0.00000  Uiso   1.00
N394   N     0.98951   0.16681   0.04785   0.00000  Uiso   1.00
N395   N     0.99487   0.33386   0.28515   0.00000  Uiso   1.00
N396   N     0.74640   0.08378   0.04516   0.00000  Uiso   1.00
O397   O     0.54581   0.20419   0.20487   0.00000  Uiso   1.00
O398   O     0.70420   0.04581   0.12846   0.00000  Uiso   1.00
O399   O     0.70420   0.04581   0.20487   0.00000  Uiso   1.00
O400   O     0.79581   0.45419   0.12846   0.00000  Uiso   1.00
O401   O     0.70420   0.45419   0.12846   0.00000  Uiso   1.00
O402   O     0.79581   0.04581   0.20487   0.00000  Uiso   1.00
O403   O     0.79581   0.04581   0.12846   0.00000  Uiso   1.00
O404   O     0.70420   0.45419   0.20487   0.00000  Uiso   1.00
O405   O     0.95420   0.29581   0.12846   0.00000  Uiso   1.00
O406   O     0.95420   0.29581   0.20487   0.00000  Uiso   1.00
O407   O     0.54581   0.20419   0.12846   0.00000  Uiso   1.00
O408   O     0.95420   0.20419   0.12846   0.00000  Uiso   1.00
O409   O     0.54581   0.29581   0.20487   0.00000  Uiso   1.00
O410   O     0.54581   0.29581   0.12846   0.00000  Uiso   1.00
O411   O     0.95420   0.20419   0.20487   0.00000  Uiso   1.00
O412   O     0.79581   0.45419   0.20487   0.00000  Uiso   1.00
Zn413  Zn    0.50000   0.25000   0.21771   0.00000  Uiso   1.00
Zn414  Zn    0.50000   0.25000   0.11563   0.00000  Uiso   1.00
Zn415  Zn    0.75000  -0.00000   0.21771   0.00000  Uiso   1.00
Zn416  Zn    0.75000  -0.00000   0.11563   0.00000  Uiso   1.00
C417   C     0.05900   0.68847   0.16665   0.00000  Uiso   1.00
C418   C     0.00013   0.70945   0.30993   0.00000  Uiso   1.00
C419   C     0.49629   0.70946   0.02442   0.00000  Uiso   1.00
C420   C     0.49902   0.79070   0.30865   0.00000  Uiso   1.00
C421   C     0.24837   0.54083   0.02278   0.00000  Uiso   1.00
C422   C     0.24838   0.95931   0.31058   0.00000  Uiso   1.00
C423   C     0.25341   0.95927   0.02511   0.00000  Uiso   1.00
C424   C     0.25385   0.54061   0.30836   0.00000  Uiso   1.00
C425   C     0.37065   0.66823   0.14372   0.00000  Uiso   1.00
C426   C     0.09494   0.87502   0.20099   0.00000  Uiso   1.00
C427   C     0.11814   0.85095   0.12736   0.00000  Uiso   1.00
C428   C     0.44037   0.81063   0.16646   0.00000  Uiso   1.00
C429   C     0.41120   0.61599   0.19309   0.00000  Uiso   1.00
C430   C     0.11474   0.64460   0.20465   0.00000  Uiso   1.00
C431   C     0.41192   0.88417   0.13449   0.00000  Uiso   1.00
C432   C     0.38124   0.84949   0.20274   0.00000  Uiso   1.00
C433   C     0.08944   0.61729   0.13257   0.00000  Uiso   1.00
C434   C     0.14145   0.89179   0.12503   0.00000  Uiso   1.00
C435   C     0.37839   0.58430   0.19341   0.00000  Uiso   1.00
C436   C     0.34119   0.63349   0.13847   0.00000  Uiso   1.00
C437   C     0.13396   0.89449   0.20616   0.00000  Uiso   1.00
C438   C     0.35919   0.89058   0.20828   0.00000  Uiso   1.00
C439   C     0.43993   0.69050   0.16725   0.00000  Uiso   1.00
C440   C     0.12133   0.58372   0.13222   0.00000  Uiso   1.00
C441   C     0.13661   0.60308   0.20898   0.00000  Uiso   1.00
C442   C     0.38002   0.91776   0.13430   0.00000  Uiso   1.00
C443   C     0.09022   0.84642   0.16424   0.00000  Uiso   1.00
C444   C     0.40667   0.65779   0.16839   0.00000  Uiso   1.00
C445   C     0.40956   0.84726   0.16647   0.00000  Uiso   1.00
C446   C     0.08922   0.65080   0.16680   0.00000  Uiso   1.00
C447   C     0.34397   0.59274   0.16524   0.00000  Uiso   1.00
C448   C     0.15641   0.90642   0.16675   0.00000  Uiso   1.00
C449   C     0.14788   0.58096   0.16912   0.00000  Uiso   1.00
C450   C     0.05893   0.81107   0.16602   0.00000  Uiso   1.00
C451   C     0.34962   0.91479   0.16847   0.00000  Uiso   1.00
C452   C     0.04689   0.85719   0.03393   0.00000  Uiso   1.00
C453   C     0.03899   0.63782   0.29797   0.00000  Uiso   1.00
C454   C     0.45098   0.64240   0.03905   0.00000  Uiso   1.00
C455   C     0.45997   0.86331   0.29775   0.00000  Uiso   1.00
C456   C     0.21488   0.61784   0.03251   0.00000  Uiso   1.00
C457   C     0.25999   0.88274   0.27796   0.00000  Uiso   1.00
C458   C     0.24821   0.88141   0.06227   0.00000  Uiso   1.00
C459   C     0.24647   0.61372   0.26354   0.00000  Uiso   1.00
C460   C     0.37115   0.73065   0.08558   0.00000  Uiso   1.00
C461   C     0.31196   0.94253   0.16697   0.00000  Uiso   1.00
C462   C     0.04645   0.92854   0.23419   0.00000  Uiso   1.00
C463   C     0.16547   0.80978   0.07548   0.00000  Uiso   1.00
C464   C     0.48323   0.58953   0.19296   0.00000  Uiso   1.00
C465   C     0.14507   0.71902   0.21947   0.00000  Uiso   1.00
C466   C     0.48212   0.91317   0.12883   0.00000  Uiso   1.00
C467   C     0.33723   0.78861   0.23393   0.00000  Uiso   1.00
C468   C     0.03272   0.57528   0.09640   0.00000  Uiso   1.00
C469   C     0.13927   0.92541   0.04807   0.00000  Uiso   1.00
C470   C     0.37235   0.54448   0.26619   0.00000  Uiso   1.00
C471   C     0.32819   0.62743   0.06017   0.00000  Uiso   1.00
C472   C     0.18718   0.55595   0.16703   0.00000  Uiso   1.00
C473   C     0.15848   0.84544   0.26616   0.00000  Uiso   1.00
C474   C     0.35887   0.90571   0.29055   0.00000  Uiso   1.00
C475   C     0.12868   0.55815   0.05382   0.00000  Uiso   1.00
C476   C     0.12166   0.53629   0.25759   0.00000  Uiso   1.00
C477   C     0.37421   0.95498   0.06010   0.00000  Uiso   1.00
C478   C     0.19020   0.93947   0.16705   0.00000  Uiso   1.00
C479   C     0.30998   0.56009   0.16610   0.00000  Uiso   1.00
C480   C     0.00265   0.79049   0.02288   0.00000  Uiso   1.00
H481   H     0.00055   0.83276   0.07773   0.00000  Uiso   1.00
H482   H     0.43031   0.66225   0.01565   0.00000  Uiso   1.00
H483   H     0.43348   0.63574   0.07087   0.00000  Uiso   1.00
H484   H     0.45863   0.60840   0.02437   0.00000  Uiso   1.00
H485   H     0.49972   0.83336   0.25140   0.00000  Uiso   1.00
H486   H     0.44351   0.87577   0.26720   0.00000  Uiso   1.00
H487   H     0.43729   0.84479   0.32021   0.00000  Uiso   1.00
H488   H     0.47165   0.89411   0.31504   0.00000  Uiso   1.00
H489   H     0.25173   0.58255   0.07875   0.00000  Uiso   1.00
H490   H     0.23042   0.65033   0.02122   0.00000  Uiso   1.00
H491   H     0.19502   0.62610   0.06209   0.00000  Uiso   1.00
H492   H     0.04082   0.88612   0.00975   0.00000  Uiso   1.00
H493   H     0.19436   0.60550   0.00571   0.00000  Uiso   1.00
H494   H     0.20678   0.90758   0.30912   0.00000  Uiso   1.00
H495   H     0.27433   0.86538   0.30740   0.00000  Uiso   1.00
H496   H     0.28459   0.89551   0.25546   0.00000  Uiso   1.00
H497   H     0.24288   0.85641   0.25932   0.00000  Uiso   1.00
H498   H     0.29979   0.90981   0.03126   0.00000  Uiso   1.00
H499   H     0.23379   0.86421   0.03382   0.00000  Uiso   1.00
H500   H     0.22390   0.89145   0.08639   0.00000  Uiso   1.00
H501   H     0.26884   0.85574   0.07967   0.00000  Uiso   1.00
H502   H     0.29660   0.59426   0.30381   0.00000  Uiso   1.00
H503   H     0.07111   0.83360   0.01976   0.00000  Uiso   1.00
H504   H     0.25585   0.61708   0.22779   0.00000  Uiso   1.00
H505   H     0.21327   0.60439   0.26582   0.00000  Uiso   1.00
H506   H     0.25036   0.64820   0.27853   0.00000  Uiso   1.00
H507   H     0.33192   0.72621   0.14128   0.00000  Uiso   1.00
H508   H     0.34384   0.72581   0.06350   0.00000  Uiso   1.00
H509   H     0.39861   0.71204   0.07179   0.00000  Uiso   1.00
H510   H     0.37850   0.76815   0.08555   0.00000  Uiso   1.00
H511   H     0.07024   0.86966   0.26511   0.00000  Uiso   1.00
H512   H     0.01777   0.92973   0.25544   0.00000  Uiso   1.00
H513   H     0.03833   0.94109   0.19990   0.00000  Uiso   1.00
H514   H     0.05938   0.87231   0.06467   0.00000  Uiso   1.00
H515   H     0.07001   0.95204   0.24830   0.00000  Uiso   1.00
H516   H     0.11471   0.78217   0.10780   0.00000  Uiso   1.00
H517   H     0.19038   0.80924   0.10122   0.00000  Uiso   1.00
H518   H     0.17039   0.83814   0.05083   0.00000  Uiso   1.00
H519   H     0.16733   0.77698   0.05683   0.00000  Uiso   1.00
H520   H     0.44344   0.58806   0.24797   0.00000  Uiso   1.00
H521   H     0.00966   0.58098   0.21561   0.00000  Uiso   1.00
H522   H     0.49392   0.61657   0.16864   0.00000  Uiso   1.00
H523   H     0.47446   0.55764   0.17533   0.00000  Uiso   1.00
H524   H     0.12820   0.67091   0.26805   0.00000  Uiso   1.00
H525   H     0.47566   0.65005   0.28449   0.00000  Uiso   1.00
H526   H     0.17769   0.70705   0.21270   0.00000  Uiso   1.00
H527   H     0.14581   0.74618   0.24507   0.00000  Uiso   1.00
H528   H     0.13169   0.73461   0.18836   0.00000  Uiso   1.00
H529   H     0.44263   0.90359   0.07520   0.00000  Uiso   1.00
H530   H     0.47197   0.94813   0.13963   0.00000  Uiso   1.00
H531   H     0.00910   0.91731   0.10539   0.00000  Uiso   1.00
H532   H     0.49255   0.89220   0.15837   0.00000  Uiso   1.00
H533   H     0.38832   0.81756   0.26557   0.00000  Uiso   1.00
H534   H     0.31245   0.81108   0.24825   0.00000  Uiso   1.00
H535   H     0.33922   0.75609   0.25444   0.00000  Uiso   1.00
H536   H     0.05092   0.62126   0.26727   0.00000  Uiso   1.00
H537   H     0.32867   0.77979   0.19928   0.00000  Uiso   1.00
H538   H     0.06635   0.63192   0.06920   0.00000  Uiso   1.00
H539   H     0.03898   0.55825   0.06411   0.00000  Uiso   1.00
H540   H     0.49897   0.58436   0.09738   0.00000  Uiso   1.00
H541   H     0.03900   0.55018   0.12441   0.00000  Uiso   1.00
H542   H     0.09658   0.93682   0.09962   0.00000  Uiso   1.00
H543   H     0.12552   0.89479   0.03250   0.00000  Uiso   1.00
H544   H     0.17359   0.92513   0.04418   0.00000  Uiso   1.00
H545   H     0.12729   0.95669   0.02991   0.00000  Uiso   1.00
H546   H     0.40818   0.52276   0.21137   0.00000  Uiso   1.00
H547   H     0.02938   0.61007   0.32223   0.00000  Uiso   1.00
H548   H     0.34485   0.52258   0.27469   0.00000  Uiso   1.00
H549   H     0.36559   0.58058   0.27636   0.00000  Uiso   1.00
H550   H     0.39936   0.53115   0.28599   0.00000  Uiso   1.00
H551   H     0.29491   0.66930   0.10394   0.00000  Uiso   1.00
H552   H     0.30714   0.64104   0.03358   0.00000  Uiso   1.00
H553   H     0.33200   0.58938   0.05714   0.00000  Uiso   1.00
H554   H     0.35916   0.64359   0.05423   0.00000  Uiso   1.00
H555   H     0.13704   0.91324   0.27191   0.00000  Uiso   1.00
H556   H     0.17300   0.84474   0.29963   0.00000  Uiso   1.00
H557   H     0.17869   0.82568   0.24273   0.00000  Uiso   1.00
H558   H     0.06490   0.65788   0.31254   0.00000  Uiso   1.00
H559   H     0.12827   0.82704   0.27021   0.00000  Uiso   1.00
H560   H     0.37313   0.95338   0.23898   0.00000  Uiso   1.00
H561   H     0.38696   0.90762   0.31160   0.00000  Uiso   1.00
H562   H     0.34577   0.87051   0.29373   0.00000  Uiso   1.00
H563   H     0.33580   0.93133   0.30298   0.00000  Uiso   1.00
H564   H     0.13224   0.51542   0.11165   0.00000  Uiso   1.00
H565   H     0.10420   0.54195   0.03351   0.00000  Uiso   1.00
H566   H     0.15931   0.54327   0.04344   0.00000  Uiso   1.00
H567   H     0.12821   0.59601   0.04672   0.00000  Uiso   1.00
H568   H     0.13809   0.60042   0.27961   0.00000  Uiso   1.00
H569   H     0.49782   0.66615   0.08070   0.00000  Uiso   1.00
H570   H     0.08709   0.54129   0.25755   0.00000  Uiso   1.00
H571   H     0.13096   0.51988   0.29002   0.00000  Uiso   1.00
H572   H     0.13076   0.51226   0.23063   0.00000  Uiso   1.00
H573   H     0.37343   0.98919   0.12111   0.00000  Uiso   1.00
H574   H     0.40069   0.96901   0.03967   0.00000  Uiso   1.00
H575   H     0.34562   0.97553   0.05191   0.00000  Uiso   1.00
H576   H     0.36924   0.91831   0.05139   0.00000  Uiso   1.00
N577   N     0.00000   0.75000   0.28573   0.00000  Uiso   1.00
N578   N     0.23173   0.91966   0.29052   0.00000  Uiso   1.00
N579   N     0.27294   0.92057   0.04730   0.00000  Uiso   1.00
N580   N     0.27273   0.57964   0.28616   0.00000  Uiso   1.00
N581   N     0.36117   0.71519   0.13090   0.00000  Uiso   1.00
N582   N     0.06266   0.88160   0.23345   0.00000  Uiso   1.00
N583   N     0.12459   0.81421   0.09631   0.00000  Uiso   1.00
N584   N     0.44803   0.60669   0.21853   0.00000  Uiso   1.00
N585   N     0.11985   0.68072   0.23607   0.00000  Uiso   1.00
N586   N     0.44818   0.89016   0.10685   0.00000  Uiso   1.00
N587   N     0.37722   0.81172   0.23404   0.00000  Uiso   1.00
N588   N     0.00000   0.75000   0.04760   0.00000  Uiso   1.00
N589   N     0.05763   0.61702   0.09957   0.00000  Uiso   1.00
N590   N     0.12763   0.92772   0.09483   0.00000  Uiso   1.00
N591   N     0.38158   0.54185   0.21857   0.00000  Uiso   1.00
N592   N     0.31104   0.63823   0.10398   0.00000  Uiso   1.00
N593   N     0.15255   0.89278   0.24915   0.00000  Uiso   1.00
N594   N     0.37026   0.91837   0.24514   0.00000  Uiso   1.00
N595   N     0.12112   0.54723   0.10072   0.00000  Uiso   1.00
N596   N     0.14234   0.58058   0.25181   0.00000  Uiso   1.00
N597   N     0.38373   0.95882   0.10701   0.00000  Uiso   1.00
N598   N     0.25000   0.50000   0.28573   0.00000  Uiso   1.00
N599   N     0.25000   0.50000   0.04760   0.00000  Uiso   1.00
N600   N     0.00824   0.83314   0.04450   0.00000  Uiso   1.00
N601   N     0.00352   0.66735   0.28665   0.00000  Uiso   1.00
N602   N     0.48951   0.66681   0.04785   0.00000  Uiso   1.00
N603   N     0.49487   0.83386   0.28515   0.00000  Uiso   1.00
N604   N     0.24640   0.58378   0.04516   0.00000  Uiso   1.00
O605   O     0.04581   0.70419   0.20487   0.00000  Uiso   1.00
O606   O     0.20420   0.54581   0.12846   0.00000  Uiso   1.00
O607   O     0.20420   0.54581   0.20487   0.00000  Uiso   1.00
O608   O     0.29581   0.95419   0.12846   0.00000  Uiso   1.00
O609   O     0.20420   0.95419   0.12846   0.00000  Uiso   1.00
O610   O     0.29581   0.54581   0.20487   0.00000  Uiso   1.00
O611   O     0.29581   0.54581   0.12846   0.00000  Uiso   1.00
O612   O     0.20420   0.95419   0.20487   0.00000  Uiso   1.00
O613   O     0.45420   0.79581   0.12846   0.00000  Uiso   1.00
O614   O     0.45420   0.79581   0.20487   0.00000  Uiso   1.00
O615   O     0.04581   0.70419   0.12846   0.00000  Uiso   1.00
O616   O     0.45420   0.70419   0.12846   0.00000  Uiso   1.00
O617   O     0.04581   0.79581   0.20487   0.00000  Uiso   1.00
O618   O     0.04581   0.79581   0.12846   0.00000  Uiso   1.00
O619   O     0.45420   0.70419   0.20487   0.00000  Uiso   1.00
O620   O     0.29581   0.95419   0.20487   0.00000  Uiso   1.00
Zn621  Zn    0.00000   0.75000   0.21771   0.00000  Uiso   1.00
Zn622  Zn    0.00000   0.75000   0.11563   0.00000  Uiso   1.00
Zn623  Zn    0.25000   0.50000   0.21771   0.00000  Uiso   1.00
Zn624  Zn    0.25000   0.50000   0.11563   0.00000  Uiso   1.00
C625   C     0.55900   0.68847   0.16665   0.00000  Uiso   1.00
C626   C     0.50013   0.70945   0.30993   0.00000  Uiso   1.00
C627   C     0.99629   0.70946   0.02442   0.00000  Uiso   1.00
C628   C     0.99902   0.79070   0.30865   0.00000  Uiso   1.00
C629   C     0.74837   0.54083   0.02278   0.00000  Uiso   1.00
C630   C     0.74838   0.95931   0.31058   0.00000  Uiso   1.00
C631   C     0.75341   0.95927   0.02511   0.00000  Uiso   1.00
C632   C     0.75385   0.54061   0.30836   0.00000  Uiso   1.00
C633   C     0.87065   0.66823   0.14372   0.00000  Uiso   1.00
C634   C     0.59494   0.87502   0.20099   0.00000  Uiso   1.00
C635   C     0.61814   0.85095   0.12736   0.00000  Uiso   1.00
C636   C     0.94037   0.81063   0.16646   0.00000  Uiso   1.00
C637   C     0.91120   0.61599   0.19309   0.00000  Uiso   1.00
C638   C     0.61474   0.64460   0.20465   0.00000  Uiso   1.00
C639   C     0.91192   0.88417   0.13449   0.00000  Uiso   1.00
C640   C     0.88124   0.84949   0.20274   0.00000  Uiso   1.00
C641   C     0.58944   0.61729   0.13257   0.00000  Uiso   1.00
C642   C     0.64145   0.89179   0.12503   0.00000  Uiso   1.00
C643   C     0.87839   0.58430   0.19341   0.00000  Uiso   1.00
C644   C     0.84119   0.63349   0.13847   0.00000  Uiso   1.00
C645   C     0.63396   0.89449   0.20616   0.00000  Uiso   1.00
C646   C     0.85919   0.89058   0.20828   0.00000  Uiso   1.00
C647   C     0.93993   0.69050   0.16725   0.00000  Uiso   1.00
C648   C     0.62133   0.58372   0.13222   0.00000  Uiso   1.00
C649   C     0.63661   0.60308   0.20898   0.00000  Uiso   1.00
C650   C     0.88002   0.91776   0.13430   0.00000  Uiso   1.00
C651   C     0.59022   0.84642   0.16424   0.00000  Uiso   1.00
C652   C     0.90667   0.65779   0.16839   0.00000  Uiso   1.00
C653   C     0.90956   0.84726   0.16647   0.00000  Uiso   1.00
C654   C     0.58922   0.65080   0.16680   0.00000  Uiso   1.00
C655   C     0.84397   0.59274   0.16524   0.00000  Uiso   1.00
C656   C     0.65641   0.90642   0.16675   0.00000  Uiso   1.00
C657   C     0.64788   0.58096   0.16912   0.00000  Uiso   1.00
C658   C     0.55893   0.81107   0.16602   0.00000  Uiso   1.00
C659   C     0.84962   0.91479   0.16847   0.00000  Uiso   1.00
C660   C     0.54689   0.85719   0.03393   0.00000  Uiso   1.00
C661   C     0.53899   0.63782   0.29797   0.00000  Uiso   1.00
C662   C     0.95098   0.64240   0.03905   0.00000  Uiso   1.00
C663   C     0.95997   0.86331   0.29775   0.00000  Uiso   1.00
C664   C     0.71488   0.61784   0.03251   0.00000  Uiso   1.00
C665   C     0.75999   0.88274   0.27796   0.00000  Uiso   1.00
C666   C     0.74821   0.88141   0.06227   0.00000  Uiso   1.00
C667   C     0.74647   0.61372   0.26354   0.00000  Uiso   1.00
C668   C     0.87115   0.73065   0.08558   0.00000  Uiso   1.00
C669   C     0.81196   0.94253   0.16697   0.00000  Uiso   1.00
C670   C     0.54645   0.92854   0.23419   0.00000  Uiso   1.00
C671   C     0.66547   0.80978   0.07548   0.00000  Uiso   1.00
C672   C     0.98323   0.58953   0.19296   0.00000  Uiso   1.00
C673   C     0.64507   0.71902   0.21947   0.00000  Uiso   1.00
C674   C     0.98212   0.91317   0.12883   0.00000  Uiso   1.00
C675   C     0.83723   0.78861   0.23393   0.00000  Uiso   1.00
C676   C     0.53272   0.57528   0.09640   0.00000  Uiso   1.00
C677   C     0.63927   0.92541   0.04807   0.00000  Uiso   1.00
C678   C     0.87235   0.54448   0.26619   0.00000  Uiso   1.00
C679   C     0.82819   0.62743   0.06017   0.00000  Uiso   1.00
C680   C     0.68718   0.55595   0.16703   0.00000  Uiso   1.00
C681   C     0.65848   0.84544   0.26616   0.00000  Uiso   1.00
C682   C     0.85887   0.90571   0.29055   0.00000  Uiso   1.00
C683   C     0.62868   0.55815   0.05382   0.00000  Uiso   1.00
C684   C     0.62166   0.53629   0.25759   0.00000  Uiso   1.00
C685   C     0.87421   0.95498   0.06010   0.00000  Uiso   1.00
C686   C     0.69020   0.93947   0.16705   0.00000  Uiso   1.00
C687   C     0.80998   0.56009   0.16610   0.00000  Uiso   1.00
C688   C     0.50265   0.79049   0.02288   0.00000  Uiso   1.00
H689   H     0.50055   0.83276   0.07773   0.00000  Uiso   1.00
H690   H     0.93031   0.66225   0.01565   0.00000  Uiso   1.00
H691   H     0.93348   0.63574   0.07087   0.00000  Uiso   1.00
H692   H     0.95863   0.60840   0.02437   0.00000  Uiso   1.00
H693   H     0.99972   0.83336   0.25140   0.00000  Uiso   1.00
H694   H     0.94351   0.87577   0.26720   0.00000  Uiso   1.00
H695   H     0.93729   0.84479   0.32021   0.00000  Uiso   1.00
H696   H     0.97165   0.89411   0.31504   0.00000  Uiso   1.00
H697   H     0.75173   0.58255   0.07875   0.00000  Uiso   1.00
H698   H     0.73042   0.65033   0.02122   0.00000  Uiso   1.00
H699   H     0.69502   0.62610   0.06209   0.00000  Uiso   1.00
H700   H     0.54082   0.88612   0.00975   0.00000  Uiso   1.00
H701   H     0.69436   0.60550   0.00571   0.00000  Uiso   1.00
H702   H     0.70678   0.90758   0.30912   0.00000  Uiso   1.00
H703   H     0.77433   0.86538   0.30740   0.00000  Uiso   1.00
H704   H     0.78459   0.89551   0.25546   0.00000  Uiso   1.00
H705   H     0.74288   0.85641   0.25932   0.00000  Uiso   1.00
H706   H     0.79979   0.90981   0.03126   0.00000  Uiso   1.00
H707   H     0.73379   0.86421   0.03382   0.00000  Uiso   1.00
H708   H     0.72390   0.89145   0.08639   0.00000  Uiso   1.00
H709   H     0.76884   0.85574   0.07967   0.00000  Uiso   1.00
H710   H     0.79660   0.59426   0.30381   0.00000  Uiso   1.00
H711   H     0.57111   0.83360   0.01976   0.00000  Uiso   1.00
H712   H     0.75585   0.61708   0.22779   0.00000  Uiso   1.00
H713   H     0.71327   0.60439   0.26582   0.00000  Uiso   1.00
H714   H     0.75036   0.64820   0.27853   0.00000  Uiso   1.00
H715   H     0.83192   0.72621   0.14128   0.00000  Uiso   1.00
H716   H     0.84384   0.72581   0.06350   0.00000  Uiso   1.00
H717   H     0.89861   0.71204   0.07179   0.00000  Uiso   1.00
H718   H     0.87850   0.76815   0.08555   0.00000  Uiso   1.00
H719   H     0.57024   0.86966   0.26511   0.00000  Uiso   1.00
H720   H     0.51777   0.92973   0.25544   0.00000  Uiso   1.00
H721   H     0.53833   0.94109   0.19990   0.00000  Uiso   1.00
H722   H     0.55938   0.87231   0.06467   0.00000  Uiso   1.00
H723   H     0.57001   0.95204   0.24830   0.00000  Uiso   1.00
H724   H     0.61471   0.78217   0.10780   0.00000  Uiso   1.00
H725   H     0.69038   0.80924   0.10122   0.00000  Uiso   1.00
H726   H     0.67039   0.83814   0.05083   0.00000  Uiso   1.00
H727   H     0.66733   0.77698   0.05683   0.00000  Uiso   1.00
H728   H     0.94344   0.58806   0.24797   0.00000  Uiso   1.00
H729   H     0.50966   0.58098   0.21561   0.00000  Uiso   1.00
H730   H     0.99392   0.61657   0.16864   0.00000  Uiso   1.00
H731   H     0.97446   0.55764   0.17533   0.00000  Uiso   1.00
H732   H     0.62820   0.67091   0.26805   0.00000  Uiso   1.00
H733   H     0.97566   0.65005   0.28449   0.00000  Uiso   1.00
H734   H     0.67769   0.70705   0.21270   0.00000  Uiso   1.00
H735   H     0.64581   0.74618   0.24507   0.00000  Uiso   1.00
H736   H     0.63169   0.73461   0.18836   0.00000  Uiso   1.00
H737   H     0.94263   0.90359   0.07520   0.00000  Uiso   1.00
H738   H     0.97197   0.94813   0.13963   0.00000  Uiso   1.00
H739   H     0.50910   0.91731   0.10539   0.00000  Uiso   1.00
H740   H     0.99255   0.89220   0.15837   0.00000  Uiso   1.00
H741   H     0.88832   0.81756   0.26557   0.00000  Uiso   1.00
H742   H     0.81245   0.81108   0.24825   0.00000  Uiso   1.00
H743   H     0.83922   0.75609   0.25444   0.00000  Uiso   1.00
H744   H     0.55092   0.62126   0.26727   0.00000  Uiso   1.00
H745   H     0.82867   0.77979   0.19928   0.00000  Uiso   1.00
H746   H     0.56635   0.63192   0.06920   0.00000  Uiso   1.00
H747   H     0.53898   0.55825   0.06411   0.00000  Uiso   1.00
H748   H     0.99897   0.58436   0.09738   0.00000  Uiso   1.00
H749   H     0.53900   0.55018   0.12441   0.00000  Uiso   1.00
H750   H     0.59658   0.93682   0.09962   0.00000  Uiso   1.00
H751   H     0.62552   0.89479   0.03250   0.00000  Uiso   1.00
H752   H     0.67359   0.92513   0.04418   0.00000  Uiso   1.00
H753   H     0.62729   0.95669   0.02991   0.00000  Uiso   1.00
H754   H     0.90818   0.52276   0.21137   0.00000  Uiso   1.00
H755   H     0.52938   0.61007   0.32223   0.00000  Uiso   1.00
H756   H     0.84485   0.52258   0.27469   0.00000  Uiso   1.00
H757   H     0.86559   0.58058   0.27636   0.00000  Uiso   1.00
H758   H     0.89936   0.53115   0.28599   0.00000  Uiso   1.00
H759   H     0.79491   0.66930   0.10394   0.00000  Uiso   1.00
H760   H     0.80714   0.64104   0.03358   0.00000  Uiso   1.00
H761   H     0.83200   0.58938   0.05714   0.00000  Uiso   1.00
H762   H     0.85916   0.64359   0.05423   0.00000  Uiso   1.00
H763   H     0.63704   0.91324   0.27191   0.00000  Uiso   1.00
H764   H     0.67300   0.84474   0.29963   0.00000  Uiso   1.00
H765   H     0.67869   0.82568   0.24273   0.00000  Uiso   1.00
H766   H     0.56490   0.65788   0.31254   0.00000  Uiso   1.00
H767   H     0.62827   0.82704   0.27021   0.00000  Uiso   1.00
H768   H     0.87313   0.95338   0.23898   0.00000  Uiso   1.00
H769   H     0.88696   0.90762   0.31160   0.00000  Uiso   1.00
H770   H     0.84577   0.87051   0.29373   0.00000  Uiso   1.00
H771   H     0.83580   0.93133   0.30298   0.00000  Uiso   1.00
H772   H     0.63224   0.51542   0.11165   0.00000  Uiso   1.00
H773   H     0.60420   0.54195   0.03351   0.00000  Uiso   1.00
H774   H     0.65931   0.54327   0.04344   0.00000  Uiso   1.00
H775   H     0.62821   0.59601   0.04672   0.00000  Uiso   1.00
H776   H     0.63809   0.60042   0.27961   0.00000  Uiso   1.00
H777   H     0.99782   0.66615   0.08070   0.00000  Uiso   1.00
H778   H     0.58709   0.54129   0.25755   0.00000  Uiso   1.00
H779   H     0.63096   0.51988   0.29002   0.00000  Uiso   1.00
H780   H     0.63076   0.51226   0.23063   0.00000  Uiso   1.00
H781   H     0.87343   0.98919   0.12111   0.00000  Uiso   1.00
H782   H     0.90069   0.96901   0.03967   0.00000  Uiso   1.00
H783   H     0.84562   0.97553   0.05191   0.00000  Uiso   1.00
H784   H     0.86924   0.91831   0.05139   0.00000  Uiso   1.00
N785   N     0.50000   0.75000   0.28573   0.00000  Uiso   1.00
N786   N     0.73173   0.91966   0.29052   0.00000  Uiso   1.00
N787   N     0.77294   0.92057   0.04730   0.00000  Uiso   1.00
N788   N     0.77273   0.57964   0.28616   0.00000  Uiso   1.00
N789   N     0.86117   0.71519   0.13090   0.00000  Uiso   1.00
N790   N     0.56266   0.88160   0.23345   0.00000  Uiso   1.00
N791   N     0.62459   0.81421   0.09631   0.00000  Uiso   1.00
N792   N     0.94803   0.60669   0.21853   0.00000  Uiso   1.00
N793   N     0.61985   0.68072   0.23607   0.00000  Uiso   1.00
N794   N     0.94818   0.89016   0.10685   0.00000  Uiso   1.00
N795   N     0.87722   0.81172   0.23404   0.00000  Uiso   1.00
N796   N     0.50000   0.75000   0.04760   0.00000  Uiso   1.00
N797   N     0.55763   0.61702   0.09957   0.00000  Uiso   1.00
N798   N     0.62763   0.92772   0.09483   0.00000  Uiso   1.00
N799   N     0.88158   0.54185   0.21857   0.00000  Uiso   1.00
N800   N     0.81104   0.63823   0.10398   0.00000  Uiso   1.00
N801   N     0.65255   0.89278   0.24915   0.00000  Uiso   1.00
N802   N     0.87026   0.91837   0.24514   0.00000  Uiso   1.00
N803   N     0.62112   0.54723   0.10072   0.00000  Uiso   1.00
N804   N     0.64234   0.58058   0.25181   0.00000  Uiso   1.00
N805   N     0.88373   0.95882   0.10701   0.00000  Uiso   1.00
N806   N     0.75000   0.50000   0.28573   0.00000  Uiso   1.00
N807   N     0.75000   0.50000   0.04760   0.00000  Uiso   1.00
N808   N     0.50824   0.83314   0.04450   0.00000  Uiso   1.00
N809   N     0.50352   0.66735   0.28665   0.00000  Uiso   1.00
N810   N     0.98951   0.66681   0.04785   0.00000  Uiso   1.00
N811   N     0.99487   0.83386   0.28515   0.00000  Uiso   1.00
N812   N     0.74640   0.58378   0.04516   0.00000  Uiso   1.00
O813   O     0.54581   0.70419   0.20487   0.00000  Uiso   1.00
O814   O     0.70420   0.54581   0.12846   0.00000  Uiso   1.00
O815   O     0.70420   0.54581   0.20487   0.00000  Uiso   1.00
O816   O     0.79581   0.95419   0.12846   0.00000  Uiso   1.00
O817   O     0.70420   0.95419   0.12846   0.00000  Uiso   1.00
O818   O     0.79581   0.54581   0.20487   0.00000  Uiso   1.00
O819   O     0.79581   0.54581   0.12846   0.00000  Uiso   1.00
O820   O     0.70420   0.95419   0.20487   0.00000  Uiso   1.00
O821   O     0.95420   0.79581   0.12846   0.00000  Uiso   1.00
O822   O     0.95420   0.79581   0.20487   0.00000  Uiso   1.00
O823   O     0.54581   0.70419   0.12846   0.00000  Uiso   1.00
O824   O     0.95420   0.70419   0.12846   0.00000  Uiso   1.00
O825   O     0.54581   0.79581   0.20487   0.00000  Uiso   1.00
O826   O     0.54581   0.79581   0.12846   0.00000  Uiso   1.00
O827   O     0.95420   0.70419   0.20487   0.00000  Uiso   1.00
O828   O     0.79581   0.95419   0.20487   0.00000  Uiso   1.00
Zn829  Zn    0.50000   0.75000   0.21771   0.00000  Uiso   1.00
Zn830  Zn    0.50000   0.75000   0.11563   0.00000  Uiso   1.00
Zn831  Zn    0.75000   0.50000   0.21771   0.00000  Uiso   1.00
Zn832  Zn    0.75000   0.50000   0.11563   0.00000  Uiso   1.00
C833   C     0.05900   0.18847   0.49998   0.00000  Uiso   1.00
C834   C     0.00013   0.20945   0.64326   0.00000  Uiso   1.00
C835   C     0.49629   0.20946   0.35775   0.00000  Uiso   1.00
C836   C     0.49902   0.29070   0.64198   0.00000  Uiso   1.00
C837   C     0.24837   0.04083   0.35611   0.00000  Uiso   1.00
C838   C     0.24838   0.45931   0.64392   0.00000  Uiso   1.00
C839   C     0.25341   0.45927   0.35844   0.00000  Uiso   1.00
C840   C     0.25385   0.04061   0.64169   0.00000  Uiso   1.00
C841   C     0.37065   0.16823   0.47706   0.00000  Uiso   1.00
C842   C     0.09494   0.37502   0.53432   0.00000  Uiso   1.00
C843   C     0.11814   0.35095   0.46070   0.00000  Uiso   1.00
C844   C     0.44037   0.31063   0.49979   0.00000  Uiso   1.00
C845   C     0.41120   0.11599   0.52642   0.00000  Uiso   1.00
C846   C     0.11474   0.14460   0.53799   0.00000  Uiso   1.00
C847   C     0.41192   0.38417   0.46782   0.00000  Uiso   1.00
C848   C     0.38124   0.34949   0.53608   0.00000  Uiso   1.00
C849   C     0.08944   0.11729   0.46590   0.00000  Uiso   1.00
C850   C     0.14145   0.39179   0.45836   0.00000  Uiso   1.00
C851   C     0.37839   0.08430   0.52674   0.00000  Uiso   1.00
C852   C     0.34119   0.13349   0.47180   0.00000  Uiso   1.00
C853   C     0.13396   0.39449   0.53949   0.00000  Uiso   1.00
C854   C     0.35919   0.39058   0.54161   0.00000  Uiso   1.00
C855   C     0.43993   0.19050   0.50058   0.00000  Uiso   1.00
C856   C     0.12133   0.08372   0.46555   0.00000  Uiso   1.00
C857   C     0.13661   0.10308   0.54232   0.00000  Uiso   1.00
C858   C     0.38002   0.41776   0.46763   0.00000  Uiso   1.00
C859   C     0.09022   0.34642   0.49757   0.00000  Uiso   1.00
C860   C     0.40667   0.15779   0.50172   0.00000  Uiso   1.00
C861   C     0.40956   0.34726   0.49980   0.00000  Uiso   1.00
C862   C     0.08922   0.15080   0.50013   0.00000  Uiso   1.00
C863   C     0.34397   0.09274   0.49857   0.00000  Uiso   1.00
C864   C     0.15641   0.40642   0.50008   0.00000  Uiso   1.00
C865   C     0.14788   0.08096   0.50245   0.00000  Uiso   1.00
C866   C     0.05893   0.31107   0.49935   0.00000  Uiso   1.00
C867   C     0.34962   0.41479   0.50180   0.00000  Uiso   1.00
C868   C     0.04689   0.35719   0.36727   0.00000  Uiso   1.00
C869   C     0.03899   0.13782   0.63130   0.00000  Uiso   1.00
C870   C     0.45098   0.14240   0.37238   0.00000  Uiso   1.00
C871   C     0.45997   0.36331   0.63109   0.00000  Uiso   1.00
C872   C     0.21488   0.11784   0.36584   0.00000  Uiso   1.00
C873   C     0.25999   0.38274   0.61129   0.00000  Uiso   1.00
C874   C     0.24821   0.38141   0.39561   0.00000  Uiso   1.00
C875   C     0.24647   0.11372   0.59688   0.00000  Uiso   1.00
C876   C     0.37115   0.23065   0.41891   0.00000  Uiso   1.00
C877   C     0.31196   0.44253   0.50030   0.00000  Uiso   1.00
C878   C     0.04645   0.42854   0.56752   0.00000  Uiso   1.00
C879   C     0.16547   0.30978   0.40881   0.00000  Uiso   1.00
C880   C     0.48323   0.08953   0.52630   0.00000  Uiso   1.00
C881   C     0.14507   0.21902   0.55281   0.00000  Uiso   1.00
C882   C     0.48212   0.41317   0.46217   0.00000  Uiso   1.00
C883   C     0.33723   0.28861   0.56726   0.00000  Uiso   1.00
C884   C     0.03272   0.07528   0.42973   0.00000  Uiso   1.00
C885   C     0.13927   0.42541   0.38140   0.00000  Uiso   1.00
C886   C     0.37235   0.04448   0.59953   0.00000  Uiso   1.00
C887   C     0.32819   0.12743   0.39350   0.00000  Uiso   1.00
C888   C     0.18718   0.05595   0.50036   0.00000  Uiso   1.00
C889   C     0.15848   0.34544   0.59950   0.00000  Uiso   1.00
C890   C     0.35887   0.40571   0.62389   0.00000  Uiso   1.00
C891   C     0.12868   0.05815   0.38716   0.00000  Uiso   1.00
C892   C     0.12166   0.03629   0.59092   0.00000  Uiso   1.00
C893   C     0.37421   0.45498   0.39343   0.00000  Uiso   1.00
C894   C     0.19020   0.43947   0.50038   0.00000  Uiso   1.00
C895   C     0.30998   0.06009   0.49944   0.00000  Uiso   1.00
C896   C     0.00265   0.29049   0.35621   0.00000  Uiso   1.00
H897   H     0.00055   0.33276   0.41107   0.00000  Uiso   1.00
H898   H     0.43031   0.16225   0.34898   0.00000  Uiso   1.00
H899   H     0.43348   0.13574   0.40420   0.00000  Uiso   1.00
H900   H     0.45863   0.10840   0.35770   0.00000  Uiso   1.00
H901   H     0.49972   0.33336   0.58473   0.00000  Uiso   1.00
H902   H     0.44351   0.37577   0.60053   0.00000  Uiso   1.00
H903   H     0.43729   0.34479   0.65355   0.00000  Uiso   1.00
H904   H     0.47165   0.39411   0.64838   0.00000  Uiso   1.00
H905   H     0.25173   0.08255   0.41209   0.00000  Uiso   1.00
H906   H     0.23042   0.15033   0.35455   0.00000  Uiso   1.00
H907   H     0.19502   0.12610   0.39543   0.00000  Uiso   1.00
H908   H     0.04082   0.38612   0.34308   0.00000  Uiso   1.00
H909   H     0.19436   0.10550   0.33905   0.00000  Uiso   1.00
H910   H     0.20678   0.40758   0.64245   0.00000  Uiso   1.00
H911   H     0.27433   0.36538   0.64073   0.00000  Uiso   1.00
H912   H     0.28459   0.39551   0.58880   0.00000  Uiso   1.00
H913   H     0.24288   0.35641   0.59266   0.00000  Uiso   1.00
H914   H     0.29979   0.40981   0.36460   0.00000  Uiso   1.00
H915   H     0.23379   0.36421   0.36716   0.00000  Uiso   1.00
H916   H     0.22390   0.39145   0.41972   0.00000  Uiso   1.00
H917   H     0.26884   0.35574   0.41300   0.00000  Uiso   1.00
H918   H     0.29660   0.09426   0.63714   0.00000  Uiso   1.00
H919   H     0.07111   0.33360   0.35309   0.00000  Uiso   1.00
H920   H     0.25585   0.11708   0.56112   0.00000  Uiso   1.00
H921   H     0.21327   0.10439   0.59915   0.00000  Uiso   1.00
H922   H     0.25036   0.14820   0.61186   0.00000  Uiso   1.00
H923   H     0.33192   0.22621   0.47462   0.00000  Uiso   1.00
H924   H     0.34384   0.22581   0.39683   0.00000  Uiso   1.00
H925   H     0.39861   0.21204   0.40513   0.00000  Uiso   1.00
H926   H     0.37850   0.26815   0.41889   0.00000  Uiso   1.00
H927   H     0.07024   0.36966   0.59844   0.00000  Uiso   1.00
H928   H     0.01777   0.42973   0.58878   0.00000  Uiso   1.00
H929   H     0.03833   0.44109   0.53323   0.00000  Uiso   1.00
H930   H     0.05938   0.37231   0.39801   0.00000  Uiso   1.00
H931   H     0.07001   0.45204   0.58164   0.00000  Uiso   1.00
H932   H     0.11471   0.28217   0.44113   0.00000  Uiso   1.00
H933   H     0.19038   0.30924   0.43455   0.00000  Uiso   1.00
H934   H     0.17039   0.33814   0.38417   0.00000  Uiso   1.00
H935   H     0.16733   0.27698   0.39017   0.00000  Uiso   1.00
H936   H     0.44344   0.08806   0.58130   0.00000  Uiso   1.00
H937   H     0.00966   0.08098   0.54894   0.00000  Uiso   1.00
H938   H     0.49392   0.11657   0.50197   0.00000  Uiso   1.00
H939   H     0.47446   0.05764   0.50866   0.00000  Uiso   1.00
H940   H     0.12820   0.17091   0.60139   0.00000  Uiso   1.00
H941   H     0.47566   0.15005   0.61782   0.00000  Uiso   1.00
H942   H     0.17769   0.20705   0.54604   0.00000  Uiso   1.00
H943   H     0.14581   0.24618   0.57840   0.00000  Uiso   1.00
H944   H     0.13169   0.23461   0.52170   0.00000  Uiso   1.00
H945   H     0.44263   0.40359   0.40853   0.00000  Uiso   1.00
H946   H     0.47197   0.44813   0.47296   0.00000  Uiso   1.00
H947   H     0.00910   0.41731   0.43873   0.00000  Uiso   1.00
H948   H     0.49255   0.39220   0.49170   0.00000  Uiso   1.00
H949   H     0.38832   0.31756   0.59890   0.00000  Uiso   1.00
H950   H     0.31245   0.31108   0.58158   0.00000  Uiso   1.00
H951   H     0.33922   0.25609   0.58777   0.00000  Uiso   1.00
H952   H     0.05092   0.12126   0.60061   0.00000  Uiso   1.00
H953   H     0.32867   0.27979   0.53261   0.00000  Uiso   1.00
H954   H     0.06635   0.13192   0.40253   0.00000  Uiso   1.00
H955   H     0.03898   0.05825   0.39744   0.00000  Uiso   1.00
H956   H     0.49897   0.08436   0.43071   0.00000  Uiso   1.00
H957   H     0.03900   0.05018   0.45774   0.00000  Uiso   1.00
H958   H     0.09658   0.43682   0.43295   0.00000  Uiso   1.00
H959   H     0.12552   0.39479   0.36583   0.00000  Uiso   1.00
H960   H     0.17359   0.42513   0.37752   0.00000  Uiso   1.00
H961   H     0.12729   0.45669   0.36324   0.00000  Uiso   1.00
H962   H     0.40818   0.02276   0.54471   0.00000  Uiso   1.00
H963   H     0.02938   0.11007   0.65556   0.00000  Uiso   1.00
H964   H     0.34485   0.02258   0.60803   0.00000  Uiso   1.00
H965   H     0.36559   0.08058   0.60969   0.00000  Uiso   1.00
H966   H     0.39936   0.03115   0.61933   0.00000  Uiso   1.00
H967   H     0.29491   0.16930   0.43727   0.00000  Uiso   1.00
H968   H     0.30714   0.14104   0.36692   0.00000  Uiso   1.00
H969   H     0.33200   0.08938   0.39048   0.00000  Uiso   1.00
H970   H     0.35916   0.14359   0.38757   0.00000  Uiso   1.00
H971   H     0.13704   0.41324   0.60525   0.00000  Uiso   1.00
H972   H     0.17300   0.34474   0.63296   0.00000  Uiso   1.00
H973   H     0.17869   0.32568   0.57607   0.00000  Uiso   1.00
H974   H     0.06490   0.15788   0.64588   0.00000  Uiso   1.00
H975   H     0.12827   0.32704   0.60354   0.00000  Uiso   1.00
H976   H     0.37313   0.45338   0.57231   0.00000  Uiso   1.00
H977   H     0.38696   0.40762   0.64494   0.00000  Uiso   1.00
H978   H     0.34577   0.37051   0.62706   0.00000  Uiso   1.00
H979   H     0.33580   0.43133   0.63631   0.00000  Uiso   1.00
H980   H     0.13224   0.01542   0.44499   0.00000  Uiso   1.00
H981   H     0.10420   0.04195   0.36684   0.00000  Uiso   1.00
H982   H     0.15931   0.04327   0.37677   0.00000  Uiso   1.00
H983   H     0.12821   0.09601   0.38005   0.00000  Uiso   1.00
H984   H     0.13809   0.10042   0.61294   0.00000  Uiso   1.00
H985   H     0.49782   0.16615   0.41403   0.00000  Uiso   1.00
H986   H     0.08709   0.04129   0.59089   0.00000  Uiso   1.00
H987   H     0.13096   0.01988   0.62336   0.00000  Uiso   1.00
H988   H     0.13076   0.01226   0.56397   0.00000  Uiso   1.00
H989   H     0.37343   0.48919   0.45444   0.00000  Uiso   1.00
H990   H     0.40069   0.46901   0.37301   0.00000  Uiso   1.00
H991   H     0.34562   0.47553   0.38524   0.00000  Uiso   1.00
H992   H     0.36924   0.41831   0.38472   0.00000  Uiso   1.00
N993   N     0.00000   0.25000   0.61907   0.00000  Uiso   1.00
N994   N     0.23173   0.41966   0.62386   0.00000  Uiso   1.00
N995   N     0.27294   0.42057   0.38063   0.00000  Uiso   1.00
N996   N     0.27273   0.07964   0.61950   0.00000  Uiso   1.00
N997   N     0.36117   0.21519   0.46423   0.00000  Uiso   1.00
N998   N     0.06266   0.38160   0.56678   0.00000  Uiso   1.00
N999   N     0.12459   0.31421   0.42965   0.00000  Uiso   1.00
N1000  N     0.44803   0.10669   0.55187   0.00000  Uiso   1.00
N1001  N     0.11985   0.18072   0.56940   0.00000  Uiso   1.00
N1002  N     0.44818   0.39016   0.44019   0.00000  Uiso   1.00
N1003  N     0.37722   0.31172   0.56737   0.00000  Uiso   1.00
N1004  N     0.00000   0.25000   0.38093   0.00000  Uiso   1.00
N1005  N     0.05763   0.11702   0.43290   0.00000  Uiso   1.00
N1006  N     0.12763   0.42772   0.42816   0.00000  Uiso   1.00
N1007  N     0.38158   0.04185   0.55190   0.00000  Uiso   1.00
N1008  N     0.31104   0.13823   0.43731   0.00000  Uiso   1.00
N1009  N     0.15255   0.39278   0.58248   0.00000  Uiso   1.00
N1010  N     0.37026   0.41837   0.57847   0.00000  Uiso   1.00
N1011  N     0.12112   0.04723   0.43405   0.00000  Uiso   1.00
N1012  N     0.14234   0.08058   0.58514   0.00000  Uiso   1.00
N1013  N     0.38373   0.45882   0.44034   0.00000  Uiso   1.00
N1014  N     0.25000  -0.00000   0.61907   0.00000  Uiso   1.00
N1015  N     0.25000  -0.00000   0.38093   0.00000  Uiso   1.00
N1016  N     0.00824   0.33314   0.37783   0.00000  Uiso   1.00
N1017  N     0.00352   0.16735   0.61999   0.00000  Uiso   1.00
N1018  N     0.48951   0.16681   0.38118   0.00000  Uiso   1.00
N1019  N     0.49487   0.33386   0.61848   0.00000  Uiso   1.00
N1020  N     0.24640   0.08378   0.37849   0.00000  Uiso   1.00
O1021  O     0.04581   0.20419   0.53821   0.00000  Uiso   1.00
O1022  O     0.20420   0.04581   0.46179   0.00000  Uiso   1.00
O1023  O     0.20420   0.04581   0.53821   0.00000  Uiso   1.00
O1024  O     0.29581   0.45419   0.46179   0.00000  Uiso   1.00
O1025  O     0.20420   0.45419   0.46179   0.00000  Uiso   1.00
O1026  O     0.29581   0.04581   0.53821   0.00000  Uiso   1.00
O1027  O     0.29581   0.04581   0.46179   0.00000  Uiso   1.00
O1028  O     0.20420   0.45419   0.53821   0.00000  Uiso   1.00
O1029  O     0.45420   0.29581   0.46179   0.00000  Uiso   1.00
O1030  O     0.45420   0.29581   0.53821   0.00000  Uiso   1.00
O1031  O     0.04581   0.20419   0.46179   0.00000  Uiso   1.00
O1032  O     0.45420   0.20419   0.46179   0.00000  Uiso   1.00
O1033  O     0.04581   0.29581   0.53821   0.00000  Uiso   1.00
O1034  O     0.04581   0.29581   0.46179   0.00000  Uiso   1.00
O1035  O     0.45420   0.20419   0.53821   0.00000  Uiso   1.00
O1036  O     0.29581   0.45419   0.53821   0.00000  Uiso   1.00
Zn1037 Zn    0.00000   0.25000   0.55104   0.00000  Uiso   1.00
Zn1038 Zn    0.00000   0.25000   0.44896   0.00000  Uiso   1.00
Zn1039 Zn    0.25000  -0.00000   0.55104   0.00000  Uiso   1.00
Zn1040 Zn    0.25000  -0.00000   0.44896   0.00000  Uiso   1.00
C1041  C     0.55900   0.18847   0.49998   0.00000  Uiso   1.00
C1042  C     0.50013   0.20945   0.64326   0.00000  Uiso   1.00
C1043  C     0.99629   0.20946   0.35775   0.00000  Uiso   1.00
C1044  C     0.99902   0.29070   0.64198   0.00000  Uiso   1.00
C1045  C     0.74837   0.04083   0.35611   0.00000  Uiso   1.00
C1046  C     0.74838   0.45931   0.64392   0.00000  Uiso   1.00
C1047  C     0.75341   0.45927   0.35844   0.00000  Uiso   1.00
C1048  C     0.75385   0.04061   0.64169   0.00000  Uiso   1.00
C1049  C     0.87065   0.16823   0.47706   0.00000  Uiso   1.00
C1050  C     0.59494   0.37502   0.53432   0.00000  Uiso   1.00
C1051  C     0.61814   0.35095   0.46070   0.00000  Uiso   1.00
C1052  C     0.94037   0.31063   0.49979   0.00000  Uiso   1.00
C1053  C     0.91120   0.11599   0.52642   0.00000  Uiso   1.00
C1054  C     0.61474   0.14460   0.53799   0.00000  Uiso   1.00
C1055  C     0.91192   0.38417   0.46782   0.00000  Uiso   1.00
C1056  C     0.88124   0.34949   0.53608   0.00000  Uiso   1.00
C1057  C     0.58944   0.11729   0.46590   0.00000  Uiso   1.00
C1058  C     0.64145   0.39179   0.45836   0.00000  Uiso   1.00
C1059  C     0.87839   0.08430   0.52674   0.00000  Uiso   1.00
C1060  C     0.84119   0.13349   0.47180   0.00000  Uiso   1.00
C1061  C     0.63396   0.39449   0.53949   0.00000  Uiso   1.00
C1062  C     0.85919   0.39058   0.54161   0.00000  Uiso   1.00
C1063  C     0.93993   0.19050   0.50058   0.00000  Uiso   1.00
C1064  C     0.62133   0.08372   0.46555   0.00000  Uiso   1.00
C1065  C     0.63661   0.10308   0.54232   0.00000  Uiso   1.00
C1066  C     0.88002   0.41776   0.46763   0.00000  Uiso   1.00
C1067  C     0.59022   0.34642   0.49757   0.00000  Uiso   1.00
C1068  C     0.90667   0.15779   0.50172   0.00000  Uiso   1.00
C1069  C     0.90956   0.34726   0.49980   0.00000  Uiso   1.00
C1070  C     0.58922   0.15080   0.50013   0.00000  Uiso   1.00
C1071  C     0.84397   0.09274   0.49857   0.00000  Uiso   1.00
C1072  C     0.65641   0.40642   0.50008   0.00000  Uiso   1.00
C1073  C     0.64788   0.08096   0.50245   0.00000  Uiso   1.00
C1074  C     0.55893   0.31107   0.49935   0.00000  Uiso   1.00
C1075  C     0.84962   0.41479   0.50180   0.00000  Uiso   1.00
C1076  C     0.54689   0.35719   0.36727   0.00000  Uiso   1.00
C1077  C     0.53899   0.13782   0.63130   0.00000  Uiso   1.00
C1078  C     0.95098   0.14240   0.37238   0.00000  Uiso   1.00
C1079  C     0.95997   0.36331   0.63109   0.00000  Uiso   1.00
C1080  C     0.71488   0.11784   0.36584   0.00000  Uiso   1.00
C1081  C     0.75999   0.38274   0.61129   0.00000  Uiso   1.00
C1082  C     0.74821   0.38141   0.39561   0.00000  Uiso   1.00
C1083  C     0.74647   0.11372   0.59688   0.00000  Uiso   1.00
C1084  C     0.87115   0.23065   0.41891   0.00000  Uiso   1.00
C1085  C     0.81196   0.44253   0.50030   0.00000  Uiso   1.00
C1086  C     0.54645   0.42854   0.56752   0.00000  Uiso   1.00
C1087  C     0.66547   0.30978   0.40881   0.00000  Uiso   1.00
C1088  C     0.98323   0.08953   0.52630   0.00000  Uiso   1.00
C1089  C     0.64507   0.21902   0.55281   0.00000  Uiso   1.00
C1090  C     0.98212   0.41317   0.46217   0.00000  Uiso   1.00
C1091  C     0.83723   0.28861   0.56726   0.00000  Uiso   1.00
C1092  C     0.53272   0.07528   0.42973   0.00000  Uiso   1.00
C1093  C     0.63927   0.42541   0.38140   0.00000  Uiso   1.00
C1094  C     0.87235   0.04448   0.59953   0.00000  Uiso   1.00
C1095  C     0.82819   0.12743   0.39350   0.00000  Uiso   1.00
C1096  C     0.68718   0.05595   0.50036   0.00000  Uiso   1.00
C1097  C     0.65848   0.34544   0.59950   0.00000  Uiso   1.00
C1098  C     0.85887   0.40571   0.62389   0.00000  Uiso   1.00
C1099  C     0.62868   0.05815   0.38716   0.00000  Uiso   1.00
C1100  C     0.62166   0.03629   0.59092   0.00000  Uiso   1.00
C1101  C     0.87421   0.45498   0.39343   0.00000  Uiso   1.00
C1102  C     0.69020   0.43947   0.50038   0.00000  Uiso   1.00
C1103  C     0.80998   0.06009   0.49944   0.00000  Uiso   1.00
C1104  C     0.50265   0.29049   0.35621   0.00000  Uiso   1.00
H1105  H     0.50055   0.33276   0.41107   0.00000  Uiso   1.00
H1106  H     0.93031   0.16225   0.34898   0.00000  Uiso   1.00
H1107  H     0.93348   0.13574   0.40420   0.00000  Uiso   1.00
H1108  H     0.95863   0.10840   0.35770   0.00000  Uiso   1.00
H1109  H     0.99972   0.33336   0.58473   0.00000  Uiso   1.00
H1110  H     0.94351   0.37577   0.60053   0.00000  Uiso   1.00
H1111  H     0.93729   0.34479   0.65355   0.00000  Uiso   1.00
H1112  H     0.97165   0.39411   0.64838   0.00000  Uiso   1.00
H1113  H     0.75173   0.08255   0.41209   0.00000  Uiso   1.00
H1114  H     0.73042   0.15033   0.35455   0.00000  Uiso   1.00
H1115  H     0.69502   0.12610   0.39543   0.00000  Uiso   1.00
H1116  H     0.54082   0.38612   0.34308   0.00000  Uiso   1.00
H1117  H     0.69436   0.10550   0.33905   0.00000  Uiso   1.00
H1118  H     0.70678   0.40758   0.64245   0.00000  Uiso   1.00
H1119  H     0.77433   0.36538   0.64073   0.00000  Uiso   1.00
H1120  H     0.78459   0.39551   0.58880   0.00000  Uiso   1.00
H1121  H     0.74288   0.35641   0.59266   0.00000  Uiso   1.00
H1122  H     0.79979   0.40981   0.36460   0.00000  Uiso   1.00
H1123  H     0.73379   0.36421   0.36716   0.00000  Uiso   1.00
H1124  H     0.72390   0.39145   0.41972   0.00000  Uiso   1.00
H1125  H     0.76884   0.35574   0.41300   0.00000  Uiso   1.00
H1126  H     0.79660   0.09426   0.63714   0.00000  Uiso   1.00
H1127  H     0.57111   0.33360   0.35309   0.00000  Uiso   1.00
H1128  H     0.75585   0.11708   0.56112   0.00000  Uiso   1.00
H1129  H     0.71327   0.10439   0.59915   0.00000  Uiso   1.00
H1130  H     0.75036   0.14820   0.61186   0.00000  Uiso   1.00
H1131  H     0.83192   0.22621   0.47462   0.00000  Uiso   1.00
H1132  H     0.84384   0.22581   0.39683   0.00000  Uiso   1.00
H1133  H     0.89861   0.21204   0.40513   0.00000  Uiso   1.00
H1134  H     0.87850   0.26815   0.41889   0.00000  Uiso   1.00
H1135  H     0.57024   0.36966   0.59844   0.00000  Uiso   1.00
H1136  H     0.51777   0.42973   0.58878   0.00000  Uiso   1.00
H1137  H     0.53833   0.44109   0.53323   0.00000  Uiso   1.00
H1138  H     0.55938   0.37231   0.39801   0.00000  Uiso   1.00
H1139  H     0.57001   0.45204   0.58164   0.00000  Uiso   1.00
H1140  H     0.61471   0.28217   0.44113   0.00000  Uiso   1.00
H1141  H     0.69038   0.30924   0.43455   0.00000  Uiso   1.00
H1142  H     0.67039   0.33814   0.38417   0.00000  Uiso   1.00
H1143  H     0.66733   0.27698   0.39017   0.00000  Uiso   1.00
H1144  H     0.94344   0.08806   0.58130   0.00000  Uiso   1.00
H1145  H     0.50966   0.08098   0.54894   0.00000  Uiso   1.00
H1146  H     0.99392   0.11657   0.50197   0.00000  Uiso   1.00
H1147  H     0.97446   0.05764   0.50866   0.00000  Uiso   1.00
H1148  H     0.62820   0.17091   0.60139   0.00000  Uiso   1.00
H1149  H     0.97566   0.15005   0.61782   0.00000  Uiso   1.00
H1150  H     0.67769   0.20705   0.54604   0.00000  Uiso   1.00
H1151  H     0.64581   0.24618   0.57840   0.00000  Uiso   1.00
H1152  H     0.63169   0.23461   0.52170   0.00000  Uiso   1.00
H1153  H     0.94263   0.40359   0.40853   0.00000  Uiso   1.00
H1154  H     0.97197   0.44813   0.47296   0.00000  Uiso   1.00
H1155  H     0.50910   0.41731   0.43873   0.00000  Uiso   1.00
H1156  H     0.99255   0.39220   0.49170   0.00000  Uiso   1.00
H1157  H     0.88832   0.31756   0.59890   0.00000  Uiso   1.00
H1158  H     0.81245   0.31108   0.58158   0.00000  Uiso   1.00
H1159  H     0.83922   0.25609   0.58777   0.00000  Uiso   1.00
H1160  H     0.55092   0.12126   0.60061   0.00000  Uiso   1.00
H1161  H     0.82867   0.27979   0.53261   0.00000  Uiso   1.00
H1162  H     0.56635   0.13192   0.40253   0.00000  Uiso   1.00
H1163  H     0.53898   0.05825   0.39744   0.00000  Uiso   1.00
H1164  H     0.99897   0.08436   0.43071   0.00000  Uiso   1.00
H1165  H     0.53900   0.05018   0.45774   0.00000  Uiso   1.00
H1166  H     0.59658   0.43682   0.43295   0.00000  Uiso   1.00
H1167  H     0.62552   0.39479   0.36583   0.00000  Uiso   1.00
H1168  H     0.67359   0.42513   0.37752   0.00000  Uiso   1.00
H1169  H     0.62729   0.45669   0.36324   0.00000  Uiso   1.00
H1170  H     0.90818   0.02276   0.54471   0.00000  Uiso   1.00
H1171  H     0.52938   0.11007   0.65556   0.00000  Uiso   1.00
H1172  H     0.84485   0.02258   0.60803   0.00000  Uiso   1.00
H1173  H     0.86559   0.08058   0.60969   0.00000  Uiso   1.00
H1174  H     0.89936   0.03115   0.61933   0.00000  Uiso   1.00
H1175  H     0.79491   0.16930   0.43727   0.00000  Uiso   1.00
H1176  H     0.80714   0.14104   0.36692   0.00000  Uiso   1.00
H1177  H     0.83200   0.08938   0.39048   0.00000  Uiso   1.00
H1178  H     0.85916   0.14359   0.38757   0.00000  Uiso   1.00
H1179  H     0.63704   0.41324   0.60525   0.00000  Uiso   1.00
H1180  H     0.67300   0.34474   0.63296   0.00000  Uiso   1.00
H1181  H     0.67869   0.32568   0.57607   0.00000  Uiso   1.00
H1182  H     0.56490   0.15788   0.64588   0.00000  Uiso   1.00
H1183  H     0.62827   0.32704   0.60354   0.00000  Uiso   1.00
H1184  H     0.87313   0.45338   0.57231   0.00000  Uiso   1.00
H1185  H     0.88696   0.40762   0.64494   0.00000  Uiso   1.00
H1186  H     0.84577   0.37051   0.62706   0.00000  Uiso   1.00
H1187  H     0.83580   0.43133   0.63631   0.00000  Uiso   1.00
H1188  H     0.63224   0.01542   0.44499   0.00000  Uiso   1.00
H1189  H     0.60420   0.04195   0.36684   0.00000  Uiso   1.00
H1190  H     0.65931   0.04327   0.37677   0.00000  Uiso   1.00
H1191  H     0.62821   0.09601   0.38005   0.00000  Uiso   1.00
H1192  H     0.63809   0.10042   0.61294   0.00000  Uiso   1.00
H1193  H     0.99782   0.16615   0.41403   0.00000  Uiso   1.00
H1194  H     0.58709   0.04129   0.59089   0.00000  Uiso   1.00
H1195  H     0.63096   0.01988   0.62336   0.00000  Uiso   1.00
H1196  H     0.63076   0.01226   0.56397   0.00000  Uiso   1.00
H1197  H     0.87343   0.48919   0.45444   0.00000  Uiso   1.00
H1198  H     0.90069   0.46901   0.37301   0.00000  Uiso   1.00
H1199  H     0.84562   0.47553   0.38524   0.00000  Uiso   1.00
H1200  H     0.86924   0.41831   0.38472   0.00000  Uiso   1.00
N1201  N     0.50000   0.25000   0.61907   0.00000  Uiso   1.00
N1202  N     0.73173   0.41966   0.62386   0.00000  Uiso   1.00
N1203  N     0.77294   0.42057   0.38063   0.00000  Uiso   1.00
N1204  N     0.77273   0.07964   0.61950   0.00000  Uiso   1.00
N1205  N     0.86117   0.21519   0.46423   0.00000  Uiso   1.00
N1206  N     0.56266   0.38160   0.56678   0.00000  Uiso   1.00
N1207  N     0.62459   0.31421   0.42965   0.00000  Uiso   1.00
N1208  N     0.94803   0.10669   0.55187   0.00000  Uiso   1.00
N1209  N     0.61985   0.18072   0.56940   0.00000  Uiso   1.00
N1210  N     0.94818   0.39016   0.44019   0.00000  Uiso   1.00
N1211  N     0.87722   0.31172   0.56737   0.00000  Uiso   1.00
N1212  N     0.50000   0.25000   0.38093   0.00000  Uiso   1.00
N1213  N     0.55763   0.11702   0.43290   0.00000  Uiso   1.00
N1214  N     0.62763   0.42772   0.42816   0.00000  Uiso   1.00
N1215  N     0.88158   0.04185   0.55190   0.00000  Uiso   1.00
N1216  N     0.81104   0.13823   0.43731   0.00000  Uiso   1.00
N1217  N     0.65255   0.39278   0.58248   0.00000  Uiso   1.00
N1218  N     0.87026   0.41837   0.57847   0.00000  Uiso   1.00
N1219  N     0.62112   0.04723   0.43405   0.00000  Uiso   1.00
N1220  N     0.64234   0.08058   0.58514   0.00000  Uiso   1.00
N1221  N     0.88373   0.45882   0.44034   0.00000  Uiso   1.00
N1222  N     0.75000  -0.00000   0.61907   0.00000  Uiso   1.00
N1223  N     0.75000  -0.00000   0.38093   0.00000  Uiso   1.00
N1224  N     0.50824   0.33314   0.37783   0.00000  Uiso   1.00
N1225  N     0.50352   0.16735   0.61999   0.00000  Uiso   1.00
N1226  N     0.98951   0.16681   0.38118   0.00000  Uiso   1.00
N1227  N     0.99487   0.33386   0.61848   0.00000  Uiso   1.00
N1228  N     0.74640   0.08378   0.37849   0.00000  Uiso   1.00
O1229  O     0.54581   0.20419   0.53821   0.00000  Uiso   1.00
O1230  O     0.70420   0.04581   0.46179   0.00000  Uiso   1.00
O1231  O     0.70420   0.04581   0.53821   0.00000  Uiso   1.00
O1232  O     0.79581   0.45419   0.46179   0.00000  Uiso   1.00
O1233  O     0.70420   0.45419   0.46179   0.00000  Uiso   1.00
O1234  O     0.79581   0.04581   0.53821   0.00000  Uiso   1.00
O1235  O     0.79581   0.04581   0.46179   0.00000  Uiso   1.00
O1236  O     0.70420   0.45419   0.53821   0.00000  Uiso   1.00
O1237  O     0.95420   0.29581   0.46179   0.00000  Uiso   1.00
O1238  O     0.95420   0.29581   0.53821   0.00000  Uiso   1.00
O1239  O     0.54581   0.20419   0.46179   0.00000  Uiso   1.00
O1240  O     0.95420   0.20419   0.46179   0.00000  Uiso   1.00
O1241  O     0.54581   0.29581   0.53821   0.00000  Uiso   1.00
O1242  O     0.54581   0.29581   0.46179   0.00000  Uiso   1.00
O1243  O     0.95420   0.20419   0.53821   0.00000  Uiso   1.00
O1244  O     0.79581   0.45419   0.53821   0.00000  Uiso   1.00
Zn1245 Zn    0.50000   0.25000   0.55104   0.00000  Uiso   1.00
Zn1246 Zn    0.50000   0.25000   0.44896   0.00000  Uiso   1.00
Zn1247 Zn    0.75000  -0.00000   0.55104   0.00000  Uiso   1.00
Zn1248 Zn    0.75000  -0.00000   0.44896   0.00000  Uiso   1.00
C1249  C     0.05900   0.68847   0.49998   0.00000  Uiso   1.00
C1250  C     0.00013   0.70945   0.64326   0.00000  Uiso   1.00
C1251  C     0.49629   0.70946   0.35775   0.00000  Uiso   1.00
C1252  C     0.49902   0.79070   0.64198   0.00000  Uiso   1.00
C1253  C     0.24837   0.54083   0.35611   0.00000  Uiso   1.00
C1254  C     0.24838   0.95931   0.64392   0.00000  Uiso   1.00
C1255  C     0.25341   0.95927   0.35844   0.00000  Uiso   1.00
C1256  C     0.25385   0.54061   0.64169   0.00000  Uiso   1.00
C1257  C     0.37065   0.66823   0.47706   0.00000  Uiso   1.00
C1258  C     0.09494   0.87502   0.53432   0.00000  Uiso   1.00
C1259  C     0.11814   0.85095   0.46070   0.00000  Uiso   1.00
C1260  C     0.44037   0.81063   0.49979   0.00000  Uiso   1.00
C1261  C     0.41120   0.61599   0.52642   0.00000  Uiso   1.00
C1262  C     0.11474   0.64460   0.53799   0.00000  Uiso   1.00
C1263  C     0.41192   0.88417   0.46782   0.00000  Uiso   1.00
C1264  C     0.38124   0.84949   0.53608   0.00000  Uiso   1.00
C1265  C     0.08944   0.61729   0.46590   0.00000  Uiso   1.00
C1266  C     0.14145   0.89179   0.45836   0.00000  Uiso   1.00
C1267  C     0.37839   0.58430   0.52674   0.00000  Uiso   1.00
C1268  C     0.34119   0.63349   0.47180   0.00000  Uiso   1.00
C1269  C     0.13396   0.89449   0.53949   0.00000  Uiso   1.00
C1270  C     0.35919   0.89058   0.54161   0.00000  Uiso   1.00
C1271  C     0.43993   0.69050   0.50058   0.00000  Uiso   1.00
C1272  C     0.12133   0.58372   0.46555   0.00000  Uiso   1.00
C1273  C     0.13661   0.60308   0.54232   0.00000  Uiso   1.00
C1274  C     0.38002   0.91776   0.46763   0.00000  Uiso   1.00
C1275  C     0.09022   0.84642   0.49757   0.00000  Uiso   1.00
C1276  C     0.40667   0.65779   0.50172   0.00000  Uiso   1.00
C1277  C     0.40956   0.84726   0.49980   0.00000  Uiso   1.00
C1278  C     0.08922   0.65080   0.50013   0.00000  Uiso   1.00
C1279  C     0.34397   0.59274   0.49857   0.00000  Uiso   1.00
C1280  C     0.15641   0.90642   0.50008   0.00000  Uiso   1.00
C1281  C     0.14788   0.58096   0.50245   0.00000  Uiso   1.00
C1282  C     0.05893   0.81107   0.49935   0.00000  Uiso   1.00
C1283  C     0.34962   0.91479   0.50180   0.00000  Uiso   1.00
C1284  C     0.04689   0.85719   0.36727   0.00000  Uiso   1.00
C1285  C     0.03899   0.63782   0.63130   0.00000  Uiso   1.00
C1286  C     0.45098   0.64240   0.37238   0.00000  Uiso   1.00
C1287  C     0.45997   0.86331   0.63109   0.00000  Uiso   1.00
C1288  C     0.21488   0.61784   0.36584   0.00000  Uiso   1.00
C1289  C     0.25999   0.88274   0.61129   0.00000  Uiso   1.00
C1290  C     0.24821   0.88141   0.39561   0.00000  Uiso   1.00
C1291  C     0.24647   0.61372   0.59688   0.00000  Uiso   1.00
C1292  C     0.37115   0.73065   0.41891   0.00000  Uiso   1.00
C1293  C     0.31196   0.94253   0.50030   0.00000  Uiso   1.00
C1294  C     0.04645   0.92854   0.56752   0.00000  Uiso   1.00
C1295  C     0.16547   0.80978   0.40881   0.00000  Uiso   1.00
C1296  C     0.48323   0.58953   0.52630   0.00000  Uiso   1.00
C1297  C     0.14507   0.71902   0.55281   0.00000  Uiso   1.00
C1298  C     0.48212   0.91317   0.46217   0.00000  Uiso   1.00
C1299  C     0.33723   0.78861   0.56726   0.00000  Uiso   1.00
C1300  C     0.03272   0.57528   0.42973   0.00000  Uiso   1.00
C1301  C     0.13927   0.92541   0.38140   0.00000  Uiso   1.00
C1302  C     0.37235   0.54448   0.59953   0.00000  Uiso   1.00
C1303  C     0.32819   0.62743   0.39350   0.00000  Uiso   1.00
C1304  C     0.18718   0.55595   0.50036   0.00000  Uiso   1.00
C1305  C     0.15848   0.84544   0.59950   0.00000  Uiso   1.00
C1306  C     0.35887   0.90571   0.62389   0.00000  Uiso   1.00
C1307  C     0.12868   0.55815   0.38716   0.00000  Uiso   1.00
C1308  C     0.12166   0.53629   0.59092   0.00000  Uiso   1.00
C1309  C     0.37421   0.95498   0.39343   0.00000  Uiso   1.00
C1310  C     0.19020   0.93947   0.50038   0.00000  Uiso   1.00
C1311  C     0.30998   0.56009   0.49944   0.00000  Uiso   1.00
C1312  C     0.00265   0.79049   0.35621   0.00000  Uiso   1.00
H1313  H     0.00055   0.83276   0.41107   0.00000  Uiso   1.00
H1314  H     0.43031   0.66225   0.34898   0.00000  Uiso   1.00
H1315  H     0.43348   0.63574   0.40420   0.00000  Uiso   1.00
H1316  H     0.45863   0.60840   0.35770   0.00000  Uiso   1.00
H1317  H     0.49972   0.83336   0.58473   0.00000  Uiso   1.00
H1318  H     0.44351   0.87577   0.60053   0.00000  Uiso   1.00
H1319  H     0.43729   0.84479   0.65355   0.00000  Uiso   1.00
H1320  H     0.47165   0.89411   0.64838   0.00000  Uiso   1.00
H1321  H     0.25173   0.58255   0.41209   0.00000  Uiso   1.00
H1322  H     0.23042   0.65033   0.35455   0.00000  Uiso   1.00
H1323  H     0.19502   0.62610   0.39543   0.00000  Uiso   1.00
H1324  H     0.04082   0.88612   0.34308   0.00000  Uiso   1.00
H1325  H     0.19436   0.60550   0.33905   0.00000  Uiso   1.00
H1326  H     0.20678   0.90758   0.64245   0.00000  Uiso   1.00
H1327  H     0.27433   0.86538   0.64073   0.00000  Uiso   1.00
H1328  H     0.28459   0.89551   0.58880   0.00000  Uiso   1.00
H1329  H     0.24288   0.85641   0.59266   0.00000  Uiso   1.00
H1330  H     0.29979   0.90981   0.36460   0.00000  Uiso   1.00
H1331  H     0.23379   0.86421   0.36716   0.00000  Uiso   1.00
H1332  H     0.22390   0.89145   0.41972   0.00000  Uiso   1.00
H1333  H     0.26884   0.85574   0.41300   0.00000  Uiso   1.00
H1334  H     0.29660   0.59426   0.63714   0.00000  Uiso   1.00
H1335  H     0.07111   0.83360   0.35309   0.00000  Uiso   1.00
H1336  H     0.25585   0.61708   0.56112   0.00000  Uiso   1.00
H1337  H     0.21327   0.60439   0.59915   0.00000  Uiso   1.00
H1338  H     0.25036   0.64820   0.61186   0.00000  Uiso   1.00
H1339  H     0.33192   0.72621   0.47462   0.00000  Uiso   1.00
H1340  H     0.34384   0.72581   0.39683   0.00000  Uiso   1.00
H1341  H     0.39861   0.71204   0.40513   0.00000  Uiso   1.00
H1342  H     0.37850   0.76815   0.41889   0.00000  Uiso   1.00
H1343  H     0.07024   0.86966   0.59844   0.00000  Uiso   1.00
H1344  H     0.01777   0.92973   0.58878   0.00000  Uiso   1.00
H1345  H     0.03833   0.94109   0.53323   0.00000  Uiso   1.00
H1346  H     0.05938   0.87231   0.39801   0.00000  Uiso   1.00
H1347  H     0.07001   0.95204   0.58164   0.00000  Uiso   1.00
H1348  H     0.11471   0.78217   0.44113   0.00000  Uiso   1.00
H1349  H     0.19038   0.80924   0.43455   0.00000  Uiso   1.00
H1350  H     0.17039   0.83814   0.38417   0.00000  Uiso   1.00
H1351  H     0.16733   0.77698   0.39017   0.00000  Uiso   1.00
H1352  H     0.44344   0.58806   0.58130   0.00000  Uiso   1.00
H1353  H     0.00966   0.58098   0.54894   0.00000  Uiso   1.00
H1354  H     0.49392   0.61657   0.50197   0.00000  Uiso   1.00
H1355  H     0.47446   0.55764   0.50866   0.00000  Uiso   1.00
H1356  H     0.12820   0.67091   0.60139   0.00000  Uiso   1.00
H1357  H     0.47566   0.65005   0.61782   0.00000  Uiso   1.00
H1358  H     0.17769   0.70705   0.54604   0.00000  Uiso   1.00
H1359  H     0.14581   0.74618   0.57840   0.00000  Uiso   1.00
H1360  H     0.13169   0.73461   0.52170   0.00000  Uiso   1.00
H1361  H     0.44263   0.90359   0.40853   0.00000  Uiso   1.00
H1362  H     0.47197   0.94813   0.47296   0.00000  Uiso   1.00
H1363  H     0.00910   0.91731   0.43873   0.00000  Uiso   1.00
H1364  H     0.49255   0.89220   0.49170   0.00000  Uiso   1.00
H1365  H     0.38832   0.81756   0.59890   0.00000  Uiso   1.00
H1366  H     0.31245   0.81108   0.58158   0.00000  Uiso   1.00
H1367  H     0.33922   0.75609   0.58777   0.00000  Uiso   1.00
H1368  H     0.05092   0.62126   0.60061   0.00000  Uiso   1.00
H1369  H     0.32867   0.77979   0.53261   0.00000  Uiso   1.00
H1370  H     0.06635   0.63192   0.40253   0.00000  Uiso   1.00
H1371  H     0.03898   0.55825   0.39744   0.00000  Uiso   1.00
H1372  H     0.49897   0.58436   0.43071   0.00000  Uiso   1.00
H1373  H     0.03900   0.55018   0.45774   0.00000  Uiso   1.00
H1374  H     0.09658   0.93682   0.43295   0.00000  Uiso   1.00
H1375  H     0.12552   0.89479   0.36583   0.00000  Uiso   1.00
H1376  H     0.17359   0.92513   0.37752   0.00000  Uiso   1.00
H1377  H     0.12729   0.95669   0.36324   0.00000  Uiso   1.00
H1378  H     0.40818   0.52276   0.54471   0.00000  Uiso   1.00
H1379  H     0.02938   0.61007   0.65556   0.00000  Uiso   1.00
H1380  H     0.34485   0.52258   0.60803   0.00000  Uiso   1.00
H1381  H     0.36559   0.58058   0.60969   0.00000  Uiso   1.00
H1382  H     0.39936   0.53115   0.61933   0.00000  Uiso   1.00
H1383  H     0.29491   0.66930   0.43727   0.00000  Uiso   1.00
H1384  H     0.30714   0.64104   0.36692   0.00000  Uiso   1.00
H1385  H     0.33200   0.58938   0.39048   0.00000  Uiso   1.00
H1386  H     0.35916   0.64359   0.38757   0.00000  Uiso   1.00
H1387  H     0.13704   0.91324   0.60525   0.00000  Uiso   1.00
H1388  H     0.17300   0.84474   0.63296   0.00000  Uiso   1.00
H1389  H     0.17869   0.82568   0.57607   0.00000  Uiso   1.00
H1390  H     0.06490   0.65788   0.64588   0.00000  Uiso   1.00
H1391  H     0.12827   0.82704   0.60354   0.00000  Uiso   1.00
H1392  H     0.37313   0.95338   0.57231   0.00000  Uiso   1.00
H1393  H     0.38696   0.90762   0.64494   0.00000  Uiso   1.00
H1394  H     0.34577   0.87051   0.62706   0.00000  Uiso   1.00
H1395  H     0.33580   0.93133   0.63631   0.00000  Uiso   1.00
H1396  H     0.13224   0.51542   0.44499   0.00000  Uiso   1.00
H1397  H     0.10420   0.54195   0.36684   0.00000  Uiso   1.00
H1398  H     0.15931   0.54327   0.37677   0.00000  Uiso   1.00
H1399  H     0.12821   0.59601   0.38005   0.00000  Uiso   1.00
H1400  H     0.13809   0.60042   0.61294   0.00000  Uiso   1.00
H1401  H     0.49782   0.66615   0.41403   0.00000  Uiso   1.00
H1402  H     0.08709   0.54129   0.59089   0.00000  Uiso   1.00
H1403  H     0.13096   0.51988   0.62336   0.00000  Uiso   1.00
H1404  H     0.13076   0.51226   0.56397   0.00000  Uiso   1.00
H1405  H     0.37343   0.98919   0.45444   0.00000  Uiso   1.00
H1406  H     0.40069   0.96901   0.37301   0.00000  Uiso   1.00
H1407  H     0.34562   0.97553   0.38524   0.00000  Uiso   1.00
H1408  H     0.36924   0.91831   0.38472   0.00000  Uiso   1.00
N1409  N     0.00000   0.75000   0.61907   0.00000  Uiso   1.00
N1410  N     0.23173   0.91966   0.62386   0.00000  Uiso   1.00
N1411  N     0.27294   0.92057   0.38063   0.00000  Uiso   1.00
N1412  N     0.27273   0.57964   0.61950   0.00000  Uiso   1.00
N1413  N     0.36117   0.71519   0.46423   0.00000  Uiso   1.00
N1414  N     0.06266   0.88160   0.56678   0.00000  Uiso   1.00
N1415  N     0.12459   0.81421   0.42965   0.00000  Uiso   1.00
N1416  N     0.44803   0.60669   0.55187   0.00000  Uiso   1.00
N1417  N     0.11985   0.68072   0.56940   0.00000  Uiso   1.00
N1418  N     0.44818   0.89016   0.44019   0.00000  Uiso   1.00
N1419  N     0.37722   0.81172   0.56737   0.00000  Uiso   1.00
N1420  N     0.00000   0.75000   0.38093   0.00000  Uiso   1.00
N1421  N     0.05763   0.61702   0.43290   0.00000  Uiso   1.00
N1422  N     0.12763   0.92772   0.42816   0.00000  Uiso   1.00
N1423  N     0.38158   0.54185   0.55190   0.00000  Uiso   1.00
N1424  N     0.31104   0.63823   0.43731   0.00000  Uiso   1.00
N1425  N     0.15255   0.89278   0.58248   0.00000  Uiso   1.00
N1426  N     0.37026   0.91837   0.57847   0.00000  Uiso   1.00
N1427  N     0.12112   0.54723   0.43405   0.00000  Uiso   1.00
N1428  N     0.14234   0.58058   0.58514   0.00000  Uiso   1.00
N1429  N     0.38373   0.95882   0.44034   0.00000  Uiso   1.00
N1430  N     0.25000   0.50000   0.61907   0.00000  Uiso   1.00
N1431  N     0.25000   0.50000   0.38093   0.00000  Uiso   1.00
N1432  N     0.00824   0.83314   0.37783   0.00000  Uiso   1.00
N1433  N     0.00352   0.66735   0.61999   0.00000  Uiso   1.00
N1434  N     0.48951   0.66681   0.38118   0.00000  Uiso   1.00
N1435  N     0.49487   0.83386   0.61848   0.00000  Uiso   1.00
N1436  N     0.24640   0.58378   0.37849   0.00000  Uiso   1.00
O1437  O     0.04581   0.70419   0.53821   0.00000  Uiso   1.00
O1438  O     0.20420   0.54581   0.46179   0.00000  Uiso   1.00
O1439  O     0.20420   0.54581   0.53821   0.00000  Uiso   1.00
O1440  O     0.29581   0.95419   0.46179   0.00000  Uiso   1.00
O1441  O     0.20420   0.95419   0.46179   0.00000  Uiso   1.00
O1442  O     0.29581   0.54581   0.53821   0.00000  Uiso   1.00
O1443  O     0.29581   0.54581   0.46179   0.00000  Uiso   1.00
O1444  O     0.20420   0.95419   0.53821   0.00000  Uiso   1.00
O1445  O     0.45420   0.79581   0.46179   0.00000  Uiso   1.00
O1446  O     0.45420   0.79581   0.53821   0.00000  Uiso   1.00
O1447  O     0.04581   0.70419   0.46179   0.00000  Uiso   1.00
O1448  O     0.45420   0.70419   0.46179   0.00000  Uiso   1.00
O1449  O     0.04581   0.79581   0.53821   0.00000  Uiso   1.00
O1450  O     0.04581   0.79581   0.46179   0.00000  Uiso   1.00
O1451  O     0.45420   0.70419   0.53821   0.00000  Uiso   1.00
O1452  O     0.29581   0.95419   0.53821   0.00000  Uiso   1.00
Zn1453 Zn    0.00000   0.75000   0.55104   0.00000  Uiso   1.00
Zn1454 Zn    0.00000   0.75000   0.44896   0.00000  Uiso   1.00
Zn1455 Zn    0.25000   0.50000   0.55104   0.00000  Uiso   1.00
Zn1456 Zn    0.25000   0.50000   0.44896   0.00000  Uiso   1.00
C1457  C     0.55900   0.68847   0.49998   0.00000  Uiso   1.00
C1458  C     0.50013   0.70945   0.64326   0.00000  Uiso   1.00
C1459  C     0.99629   0.70946   0.35775   0.00000  Uiso   1.00
C1460  C     0.99902   0.79070   0.64198   0.00000  Uiso   1.00
C1461  C     0.74837   0.54083   0.35611   0.00000  Uiso   1.00
C1462  C     0.74838   0.95931   0.64392   0.00000  Uiso   1.00
C1463  C     0.75341   0.95927   0.35844   0.00000  Uiso   1.00
C1464  C     0.75385   0.54061   0.64169   0.00000  Uiso   1.00
C1465  C     0.87065   0.66823   0.47706   0.00000  Uiso   1.00
C1466  C     0.59494   0.87502   0.53432   0.00000  Uiso   1.00
C1467  C     0.61814   0.85095   0.46070   0.00000  Uiso   1.00
C1468  C     0.94037   0.81063   0.49979   0.00000  Uiso   1.00
C1469  C     0.91120   0.61599   0.52642   0.00000  Uiso   1.00
C1470  C     0.61474   0.64460   0.53799   0.00000  Uiso   1.00
C1471  C     0.91192   0.88417   0.46782   0.00000  Uiso   1.00
C1472  C     0.88124   0.84949   0.53608   0.00000  Uiso   1.00
C1473  C     0.58944   0.61729   0.46590   0.00000  Uiso   1.00
C1474  C     0.64145   0.89179   0.45836   0.00000  Uiso   1.00
C1475  C     0.87839   0.58430   0.52674   0.00000  Uiso   1.00
C1476  C     0.84119   0.63349   0.47180   0.00000  Uiso   1.00
C1477  C     0.63396   0.89449   0.53949   0.00000  Uiso   1.00
C1478  C     0.85919   0.89058   0.54161   0.00000  Uiso   1.00
C1479  C     0.93993   0.69050   0.50058   0.00000  Uiso   1.00
C1480  C     0.62133   0.58372   0.46555   0.00000  Uiso   1.00
C1481  C     0.63661   0.60308   0.54232   0.00000  Uiso   1.00
C1482  C     0.88002   0.91776   0.46763   0.00000  Uiso   1.00
C1483  C     0.59022   0.84642   0.49757   0.00000  Uiso   1.00
C1484  C     0.90667   0.65779   0.50172   0.00000  Uiso   1.00
C1485  C     0.90956   0.84726   0.49980   0.00000  Uiso   1.00
C1486  C     0.58922   0.65080   0.50013   0.00000  Uiso   1.00
C1487  C     0.84397   0.59274   0.49857   0.00000  Uiso   1.00
C1488  C     0.65641   0.90642   0.50008   0.00000  Uiso   1.00
C1489  C     0.64788   0.58096   0.50245   0.00000  Uiso   1.00
C1490  C     0.55893   0.81107   0.49935   0.00000  Uiso   1.00
C1491  C     0.84962   0.91479   0.50180   0.00000  Uiso   1.00
C1492  C     0.54689   0.85719   0.36727   0.00000  Uiso   1.00
C1493  C     0.53899   0.63782   0.63130   0.00000  Uiso   1.00
C1494  C     0.95098   0.64240   0.37238   0.00000  Uiso   1.00
C1495  C     0.95997   0.86331   0.63109   0.00000  Uiso   1.00
C1496  C     0.71488   0.61784   0.36584   0.00000  Uiso   1.00
C1497  C     0.75999   0.88274   0.61129   0.00000  Uiso   1.00
C1498  C     0.74821   0.88141   0.39561   0.00000  Uiso   1.00
C1499  C     0.74647   0.61372   0.59688   0.00000  Uiso   1.00
C1500  C     0.87115   0.73065   0.41891   0.00000  Uiso   1.00
C1501  C     0.81196   0.94253   0.50030   0.00000  Uiso   1.00
C1502  C     0.54645   0.92854   0.56752   0.00000  Uiso   1.00
C1503  C     0.66547   0.80978   0.40881   0.00000  Uiso   1.00
C1504  C     0.98323   0.58953   0.52630   0.00000  Uiso   1.00
C1505  C     0.64507   0.71902   0.55281   0.00000  Uiso   1.00
C1506  C     0.98212   0.91317   0.46217   0.00000  Uiso   1.00
C1507  C     0.83723   0.78861   0.56726   0.00000  Uiso   1.00
C1508  C     0.53272   0.57528   0.42973   0.00000  Uiso   1.00
C1509  C     0.63927   0.92541   0.38140   0.00000  Uiso   1.00
C1510  C     0.87235   0.54448   0.59953   0.00000  Uiso   1.00
C1511  C     0.82819   0.62743   0.39350   0.00000  Uiso   1.00
C1512  C     0.68718   0.55595   0.50036   0.00000  Uiso   1.00
C1513  C     0.65848   0.84544   0.59950   0.00000  Uiso   1.00
C1514  C     0.85887   0.90571   0.62389   0.00000  Uiso   1.00
C1515  C     0.62868   0.55815   0.38716   0.00000  Uiso   1.00
C1516  C     0.62166   0.53629   0.59092   0.00000  Uiso   1.00
C1517  C     0.87421   0.95498   0.39343   0.00000  Uiso   1.00
C1518  C     0.69020   0.93947   0.50038   0.00000  Uiso   1.00
C1519  C     0.80998   0.56009   0.49944   0.00000  Uiso   1.00
C1520  C     0.50265   0.79049   0.35621   0.00000  Uiso   1.00
H1521  H     0.50055   0.83276   0.41107   0.00000  Uiso   1.00
H1522  H     0.93031   0.66225   0.34898   0.00000  Uiso   1.00
H1523  H     0.93348   0.63574   0.40420   0.00000  Uiso   1.00
H1524  H     0.95863   0.60840   0.35770   0.00000  Uiso   1.00
H1525  H     0.99972   0.83336   0.58473   0.00000  Uiso   1.00
H1526  H     0.94351   0.87577   0.60053   0.00000  Uiso   1.00
H1527  H     0.93729   0.84479   0.65355   0.00000  Uiso   1.00
H1528  H     0.97165   0.89411   0.64838   0.00000  Uiso   1.00
H1529  H     0.75173   0.58255   0.41209   0.00000  Uiso   1.00
H1530  H     0.73042   0.65033   0.35455   0.00000  Uiso   1.00
H1531  H     0.69502   0.62610   0.39543   0.00000  Uiso   1.00
H1532  H     0.54082   0.88612   0.34308   0.00000  Uiso   1.00
H1533  H     0.69436   0.60550   0.33905   0.00000  Uiso   1.00
H1534  H     0.70678   0.90758   0.64245   0.00000  Uiso   1.00
H1535  H     0.77433   0.86538   0.64073   0.00000  Uiso   1.00
H1536  H     0.78459   0.89551   0.58880   0.00000  Uiso   1.00
H1537  H     0.74288   0.85641   0.59266   0.00000  Uiso   1.00
H1538  H     0.79979   0.90981   0.36460   0.00000  Uiso   1.00
H1539  H     0.73379   0.86421   0.36716   0.00000  Uiso   1.00
H1540  H     0.72390   0.89145   0.41972   0.00000  Uiso   1.00
H1541  H     0.76884   0.85574   0.41300   0.00000  Uiso   1.00
H1542  H     0.79660   0.59426   0.63714   0.00000  Uiso   1.00
H1543  H     0.57111   0.83360   0.35309   0.00000  Uiso   1.00
H1544  H     0.75585   0.61708   0.56112   0.00000  Uiso   1.00
H1545  H     0.71327   0.60439   0.59915   0.00000  Uiso   1.00
H1546  H     0.75036   0.64820   0.61186   0.00000  Uiso   1.00
H1547  H     0.83192   0.72621   0.47462   0.00000  Uiso   1.00
H1548  H     0.84384   0.72581   0.39683   0.00000  Uiso   1.00
H1549  H     0.89861   0.71204   0.40513   0.00000  Uiso   1.00
H1550  H     0.87850   0.76815   0.41889   0.00000  Uiso   1.00
H1551  H     0.57024   0.86966   0.59844   0.00000  Uiso   1.00
H1552  H     0.51777   0.92973   0.58878   0.00000  Uiso   1.00
H1553  H     0.53833   0.94109   0.53323   0.00000  Uiso   1.00
H1554  H     0.55938   0.87231   0.39801   0.00000  Uiso   1.00
H1555  H     0.57001   0.95204   0.58164   0.00000  Uiso   1.00
H1556  H     0.61471   0.78217   0.44113   0.00000  Uiso   1.00
H1557  H     0.69038   0.80924   0.43455   0.00000  Uiso   1.00
H1558  H     0.67039   0.83814   0.38417   0.00000  Uiso   1.00
H1559  H     0.66733   0.77698   0.39017   0.00000  Uiso   1.00
H1560  H     0.94344   0.58806   0.58130   0.00000  Uiso   1.00
H1561  H     0.50966   0.58098   0.54894   0.00000  Uiso   1.00
H1562  H     0.99392   0.61657   0.50197   0.00000  Uiso   1.00
H1563  H     0.97446   0.55764   0.50866   0.00000  Uiso   1.00
H1564  H     0.62820   0.67091   0.60139   0.00000  Uiso   1.00
H1565  H     0.97566   0.65005   0.61782   0.00000  Uiso   1.00
H1566  H     0.67769   0.70705   0.54604   0.00000  Uiso   1.00
H1567  H     0.64581   0.74618   0.57840   0.00000  Uiso   1.00
H1568  H     0.63169   0.73461   0.52170   0.00000  Uiso   1.00
H1569  H     0.94263   0.90359   0.40853   0.00000  Uiso   1.00
H1570  H     0.97197   0.94813   0.47296   0.00000  Uiso   1.00
H1571  H     0.50910   0.91731   0.43873   0.00000  Uiso   1.00
H1572  H     0.99255   0.89220   0.49170   0.00000  Uiso   1.00
H1573  H     0.88832   0.81756   0.59890   0.00000  Uiso   1.00
H1574  H     0.81245   0.81108   0.58158   0.00000  Uiso   1.00
H1575  H     0.83922   0.75609   0.58777   0.00000  Uiso   1.00
H1576  H     0.55092   0.62126   0.60061   0.00000  Uiso   1.00
H1577  H     0.82867   0.77979   0.53261   0.00000  Uiso   1.00
H1578  H     0.56635   0.63192   0.40253   0.00000  Uiso   1.00
H1579  H     0.53898   0.55825   0.39744   0.00000  Uiso   1.00
H1580  H     0.99897   0.58436   0.43071   0.00000  Uiso   1.00
H1581  H     0.53900   0.55018   0.45774   0.00000  Uiso   1.00
H1582  H     0.59658   0.93682   0.43295   0.00000  Uiso   1.00
H1583  H     0.62552   0.89479   0.36583   0.00000  Uiso   1.00
H1584  H     0.67359   0.92513   0.37752   0.00000  Uiso   1.00
H1585  H     0.62729   0.95669   0.36324   0.00000  Uiso   1.00
H1586  H     0.90818   0.52276   0.54471   0.00000  Uiso   1.00
H1587  H     0.52938   0.61007   0.65556   0.00000  Uiso   1.00
H1588  H     0.84485   0.52258   0.60803   0.00000  Uiso   1.00
H1589  H     0.86559   0.58058   0.60969   0.00000  Uiso   1.00
H1590  H     0.89936   0.53115   0.61933   0.00000  Uiso   1.00
H1591  H     0.79491   0.66930   0.43727   0.00000  Uiso   1.00
H1592  H     0.80714   0.64104   0.36692   0.00000  Uiso   1.00
H1593  H     0.83200   0.58938   0.39048   0.00000  Uiso   1.00
H1594  H     0.85916   0.64359   0.38757   0.00000  Uiso   1.00
H1595  H     0.63704   0.91324   0.60525   0.00000  Uiso   1.00
H1596  H     0.67300   0.84474   0.63296   0.00000  Uiso   1.00
H1597  H     0.67869   0.82568   0.57607   0.00000  Uiso   1.00
H1598  H     0.56490   0.65788   0.64588   0.00000  Uiso   1.00
H1599  H     0.62827   0.82704   0.60354   0.00000  Uiso   1.00
H1600  H     0.87313   0.95338   0.57231   0.00000  Uiso   1.00
H1601  H     0.88696   0.90762   0.64494   0.00000  Uiso   1.00
H1602  H     0.84577   0.87051   0.62706   0.00000  Uiso   1.00
H1603  H     0.83580   0.93133   0.63631   0.00000  Uiso   1.00
H1604  H     0.63224   0.51542   0.44499   0.00000  Uiso   1.00
H1605  H     0.60420   0.54195   0.36684   0.00000  Uiso   1.00
H1606  H     0.65931   0.54327   0.37677   0.00000  Uiso   1.00
H1607  H     0.62821   0.59601   0.38005   0.00000  Uiso   1.00
H1608  H     0.63809   0.60042   0.61294   0.00000  Uiso   1.00
H1609  H     0.99782   0.66615   0.41403   0.00000  Uiso   1.00
H1610  H     0.58709   0.54129   0.59089   0.00000  Uiso   1.00
H1611  H     0.63096   0.51988   0.62336   0.00000  Uiso   1.00
H1612  H     0.63076   0.51226   0.56397   0.00000  Uiso   1.00
H1613  H     0.87343   0.98919   0.45444   0.00000  Uiso   1.00
H1614  H     0.90069   0.96901   0.37301   0.00000  Uiso   1.00
H1615  H     0.84562   0.97553   0.38524   0.00000  Uiso   1.00
H1616  H     0.86924   0.91831   0.38472   0.00000  Uiso   1.00
N1617  N     0.50000   0.75000   0.61907   0.00000  Uiso   1.00
N1618  N     0.73173   0.91966   0.62386   0.00000  Uiso   1.00
N1619  N     0.77294   0.92057   0.38063   0.00000  Uiso   1.00
N1620  N     0.77273   0.57964   0.61950   0.00000  Uiso   1.00
N1621  N     0.86117   0.71519   0.46423   0.00000  Uiso   1.00
N1622  N     0.56266   0.88160   0.56678   0.00000  Uiso   1.00
N1623  N     0.62459   0.81421   0.42965   0.00000  Uiso   1.00
N1624  N     0.94803   0.60669   0.55187   0.00000  Uiso   1.00
N1625  N     0.61985   0.68072   0.56940   0.00000  Uiso   1.00
N1626  N     0.94818   0.89016   0.44019   0.00000  Uiso   1.00
N1627  N     0.87722   0.81172   0.56737   0.00000  Uiso   1.00
N1628  N     0.50000   0.75000   0.38093   0.00000  Uiso   1.00
N1629  N     0.55763   0.61702   0.43290   0.00000  Uiso   1.00
N1630  N     0.62763   0.92772   0.42816   0.00000  Uiso   1.00
N1631  N     0.88158   0.54185   0.55190   0.00000  Uiso   1.00
N1632  N     0.81104   0.63823   0.43731   0.00000  Uiso   1.00
N1633  N     0.65255   0.89278   0.58248   0.00000  Uiso   1.00
N1634  N     0.87026   0.91837   0.57847   0.00000  Uiso   1.00
N1635  N     0.62112   0.54723   0.43405   0.00000  Uiso   1.00
N1636  N     0.64234   0.58058   0.58514   0.00000  Uiso   1.00
N1637  N     0.88373   0.95882   0.44034   0.00000  Uiso   1.00
N1638  N     0.75000   0.50000   0.61907   0.00000  Uiso   1.00
N1639  N     0.75000   0.50000   0.38093   0.00000  Uiso   1.00
N1640  N     0.50824   0.83314   0.37783   0.00000  Uiso   1.00
N1641  N     0.50352   0.66735   0.61999   0.00000  Uiso   1.00
N1642  N     0.98951   0.66681   0.38118   0.00000  Uiso   1.00
N1643  N     0.99487   0.83386   0.61848   0.00000  Uiso   1.00
N1644  N     0.74640   0.58378   0.37849   0.00000  Uiso   1.00
O1645  O     0.54581   0.70419   0.53821   0.00000  Uiso   1.00
O1646  O     0.70420   0.54581   0.46179   0.00000  Uiso   1.00
O1647  O     0.70420   0.54581   0.53821   0.00000  Uiso   1.00
O1648  O     0.79581   0.95419   0.46179   0.00000  Uiso   1.00
O1649  O     0.70420   0.95419   0.46179   0.00000  Uiso   1.00
O1650  O     0.79581   0.54581   0.53821   0.00000  Uiso   1.00
O1651  O     0.79581   0.54581   0.46179   0.00000  Uiso   1.00
O1652  O     0.70420   0.95419   0.53821   0.00000  Uiso   1.00
O1653  O     0.95420   0.79581   0.46179   0.00000  Uiso   1.00
O1654  O     0.95420   0.79581   0.53821   0.00000  Uiso   1.00
O1655  O     0.54581   0.70419   0.46179   0.00000  Uiso   1.00
O1656  O     0.95420   0.70419   0.46179   0.00000  Uiso   1.00
O1657  O     0.54581   0.79581   0.53821   0.00000  Uiso   1.00
O1658  O     0.54581   0.79581   0.46179   0.00000  Uiso   1.00
O1659  O     0.95420   0.70419   0.53821   0.00000  Uiso   1.00
O1660  O     0.79581   0.95419   0.53821   0.00000  Uiso   1.00
Zn1661 Zn    0.50000   0.75000   0.55104   0.00000  Uiso   1.00
Zn1662 Zn    0.50000   0.75000   0.44896   0.00000  Uiso   1.00
Zn1663 Zn    0.75000   0.50000   0.55104   0.00000  Uiso   1.00
Zn1664 Zn    0.75000   0.50000   0.44896   0.00000  Uiso   1.00
C1665  C     0.05900   0.18847   0.83331   0.00000  Uiso   1.00
C1666  C     0.00013   0.20945   0.97660   0.00000  Uiso   1.00
C1667  C     0.49629   0.20946   0.69109   0.00000  Uiso   1.00
C1668  C     0.49902   0.29070   0.97532   0.00000  Uiso   1.00
C1669  C     0.24837   0.04083   0.68944   0.00000  Uiso   1.00
C1670  C     0.24838   0.45931   0.97725   0.00000  Uiso   1.00
C1671  C     0.25341   0.45927   0.69177   0.00000  Uiso   1.00
C1672  C     0.25385   0.04061   0.97503   0.00000  Uiso   1.00
C1673  C     0.37065   0.16823   0.81039   0.00000  Uiso   1.00
C1674  C     0.09494   0.37502   0.86765   0.00000  Uiso   1.00
C1675  C     0.11814   0.35095   0.79403   0.00000  Uiso   1.00
C1676  C     0.44037   0.31063   0.83312   0.00000  Uiso   1.00
C1677  C     0.41120   0.11599   0.85975   0.00000  Uiso   1.00
C1678  C     0.11474   0.14460   0.87132   0.00000  Uiso   1.00
C1679  C     0.41192   0.38417   0.80115   0.00000  Uiso   1.00
C1680  C     0.38124   0.34949   0.86941   0.00000  Uiso   1.00
C1681  C     0.08944   0.11729   0.79924   0.00000  Uiso   1.00
C1682  C     0.14145   0.39179   0.79170   0.00000  Uiso   1.00
C1683  C     0.37839   0.08430   0.86008   0.00000  Uiso   1.00
C1684  C     0.34119   0.13349   0.80514   0.00000  Uiso   1.00
C1685  C     0.13396   0.39449   0.87282   0.00000  Uiso   1.00
C1686  C     0.35919   0.39058   0.87494   0.00000  Uiso   1.00
C1687  C     0.43993   0.19050   0.83391   0.00000  Uiso   1.00
C1688  C     0.12133   0.08372   0.79888   0.00000  Uiso   1.00
C1689  C     0.13661   0.10308   0.87565   0.00000  Uiso   1.00
C1690  C     0.38002   0.41776   0.80097   0.00000  Uiso   1.00
C1691  C     0.09022   0.34642   0.83091   0.00000  Uiso   1.00
C1692  C     0.40667   0.15779   0.83506   0.00000  Uiso   1.00
C1693  C     0.40956   0.34726   0.83313   0.00000  Uiso   1.00
C1694  C     0.08922   0.15080   0.83346   0.00000  Uiso   1.00
C1695  C     0.34397   0.09274   0.83191   0.00000  Uiso   1.00
C1696  C     0.15641   0.40642   0.83341   0.00000  Uiso   1.00
C1697  C     0.14788   0.08096   0.83579   0.00000  Uiso   1.00
C1698  C     0.05893   0.31107   0.83269   0.00000  Uiso   1.00
C1699  C     0.34962   0.41479   0.83513   0.00000  Uiso   1.00
C1700  C     0.04689   0.35719   0.70060   0.00000  Uiso   1.00
C1701  C     0.03899   0.13782   0.96463   0.00000  Uiso   1.00
C1702  C     0.45098   0.14240   0.70571   0.00000  Uiso   1.00
C1703  C     0.45997   0.36331   0.96442   0.00000  Uiso   1.00
C1704  C     0.21488   0.11784   0.69917   0.00000  Uiso   1.00
C1705  C     0.25999   0.38274   0.94463   0.00000  Uiso   1.00
C1706  C     0.24821   0.38141   0.72894   0.00000  Uiso   1.00
C1707  C     0.24647   0.11372   0.93021   0.00000  Uiso   1.00
C1708  C     0.37115   0.23065   0.75224   0.00000  Uiso   1.00
C1709  C     0.31196   0.44253   0.83364   0.00000  Uiso   1.00
C1710  C     0.04645   0.42854   0.90086   0.00000  Uiso   1.00
C1711  C     0.16547   0.30978   0.74214   0.00000  Uiso   1.00
C1712  C     0.48323   0.08953   0.85963   0.00000  Uiso   1.00
C1713  C     0.14507   0.21902   0.88614   0.00000  Uiso   1.00
C1714  C     0.48212   0.41317   0.79550   0.00000  Uiso   1.00
C1715  C     0.33723   0.28861   0.90059   0.00000  Uiso   1.00
C1716  C     0.03272   0.07528   0.76306   0.00000  Uiso   1.00
C1717  C     0.13927   0.42541   0.71473   0.00000  Uiso   1.00
C1718  C     0.37235   0.04448   0.93286   0.00000  Uiso   1.00
C1719  C     0.32819   0.12743   0.72683   0.00000  Uiso   1.00
C1720  C     0.18718   0.05595   0.83370   0.00000  Uiso   1.00
C1721  C     0.15848   0.34544   0.93283   0.00000  Uiso   1.00
C1722  C     0.35887   0.40571   0.95722   0.00000  Uiso   1.00
C1723  C     0.12868   0.05815   0.72049   0.00000  Uiso   1.00
C1724  C     0.12166   0.03629   0.92425   0.00000  Uiso   1.00
C1725  C     0.37421   0.45498   0.72676   0.00000  Uiso   1.00
C1726  C     0.19020   0.43947   0.83371   0.00000  Uiso   1.00
C1727  C     0.30998   0.06009   0.83277   0.00000  Uiso   1.00
C1728  C     0.00265   0.29049   0.68955   0.00000  Uiso   1.00
H1729  H     0.00055   0.33276   0.74440   0.00000  Uiso   1.00
H1730  H     0.43031   0.16225   0.68231   0.00000  Uiso   1.00
H1731  H     0.43348   0.13574   0.73753   0.00000  Uiso   1.00
H1732  H     0.45863   0.10840   0.69104   0.00000  Uiso   1.00
H1733  H     0.49972   0.33336   0.91807   0.00000  Uiso   1.00
H1734  H     0.44351   0.37577   0.93387   0.00000  Uiso   1.00
H1735  H     0.43729   0.34479   0.98688   0.00000  Uiso   1.00
H1736  H     0.47165   0.39411   0.98171   0.00000  Uiso   1.00
H1737  H     0.25173   0.08255   0.74542   0.00000  Uiso   1.00
H1738  H     0.23042   0.15033   0.68789   0.00000  Uiso   1.00
H1739  H     0.19502   0.12610   0.72876   0.00000  Uiso   1.00
H1740  H     0.04082   0.38612   0.67641   0.00000  Uiso   1.00
H1741  H     0.19436   0.10550   0.67238   0.00000  Uiso   1.00
H1742  H     0.20678   0.40758   0.97579   0.00000  Uiso   1.00
H1743  H     0.27433   0.36538   0.97407   0.00000  Uiso   1.00
H1744  H     0.28459   0.39551   0.92213   0.00000  Uiso   1.00
H1745  H     0.24288   0.35641   0.92599   0.00000  Uiso   1.00
H1746  H     0.29979   0.40981   0.69793   0.00000  Uiso   1.00
H1747  H     0.23379   0.36421   0.70049   0.00000  Uiso   1.00
H1748  H     0.22390   0.39145   0.75305   0.00000  Uiso   1.00
H1749  H     0.26884   0.35574   0.74634   0.00000  Uiso   1.00
H1750  H     0.29660   0.09426   0.97048   0.00000  Uiso   1.00
H1751  H     0.07111   0.33360   0.68642   0.00000  Uiso   1.00
H1752  H     0.25585   0.11708   0.89445   0.00000  Uiso   1.00
H1753  H     0.21327   0.10439   0.93249   0.00000  Uiso   1.00
H1754  H     0.25036   0.14820   0.94520   0.00000  Uiso   1.00
H1755  H     0.33192   0.22621   0.80795   0.00000  Uiso   1.00
H1756  H     0.34384   0.22581   0.73016   0.00000  Uiso   1.00
H1757  H     0.39861   0.21204   0.73846   0.00000  Uiso   1.00
H1758  H     0.37850   0.26815   0.75222   0.00000  Uiso   1.00
H1759  H     0.07024   0.36966   0.93178   0.00000  Uiso   1.00
H1760  H     0.01777   0.42973   0.92211   0.00000  Uiso   1.00
H1761  H     0.03833   0.44109   0.86657   0.00000  Uiso   1.00
H1762  H     0.05938   0.37231   0.73134   0.00000  Uiso   1.00
H1763  H     0.07001   0.45204   0.91497   0.00000  Uiso   1.00
H1764  H     0.11471   0.28217   0.77446   0.00000  Uiso   1.00
H1765  H     0.19038   0.30924   0.76789   0.00000  Uiso   1.00
H1766  H     0.17039   0.33814   0.71750   0.00000  Uiso   1.00
H1767  H     0.16733   0.27698   0.72350   0.00000  Uiso   1.00
H1768  H     0.44344   0.08806   0.91463   0.00000  Uiso   1.00
H1769  H     0.00966   0.08098   0.88228   0.00000  Uiso   1.00
H1770  H     0.49392   0.11657   0.83530   0.00000  Uiso   1.00
H1771  H     0.47446   0.05764   0.84199   0.00000  Uiso   1.00
H1772  H     0.12820   0.17091   0.93472   0.00000  Uiso   1.00
H1773  H     0.47566   0.15005   0.95116   0.00000  Uiso   1.00
H1774  H     0.17769   0.20705   0.87937   0.00000  Uiso   1.00
H1775  H     0.14581   0.24618   0.91173   0.00000  Uiso   1.00
H1776  H     0.13169   0.23461   0.85503   0.00000  Uiso   1.00
H1777  H     0.44263   0.40359   0.74187   0.00000  Uiso   1.00
H1778  H     0.47197   0.44813   0.80630   0.00000  Uiso   1.00
H1779  H     0.00910   0.41731   0.77206   0.00000  Uiso   1.00
H1780  H     0.49255   0.39220   0.82504   0.00000  Uiso   1.00
H1781  H     0.38832   0.31756   0.93224   0.00000  Uiso   1.00
H1782  H     0.31245   0.31108   0.91492   0.00000  Uiso   1.00
H1783  H     0.33922   0.25609   0.92110   0.00000  Uiso   1.00
H1784  H     0.05092   0.12126   0.93394   0.00000  Uiso   1.00
H1785  H     0.32867   0.27979   0.86594   0.00000  Uiso   1.00
H1786  H     0.06635   0.13192   0.73587   0.00000  Uiso   1.00
H1787  H     0.03898   0.05825   0.73078   0.00000  Uiso   1.00
H1788  H     0.49897   0.08436   0.76404   0.00000  Uiso   1.00
H1789  H     0.03900   0.05018   0.79107   0.00000  Uiso   1.00
H1790  H     0.09658   0.43682   0.76628   0.00000  Uiso   1.00
H1791  H     0.12552   0.39479   0.69917   0.00000  Uiso   1.00
H1792  H     0.17359   0.42513   0.71085   0.00000  Uiso   1.00
H1793  H     0.12729   0.45669   0.69658   0.00000  Uiso   1.00
H1794  H     0.40818   0.02276   0.87804   0.00000  Uiso   1.00
H1795  H     0.02938   0.11007   0.98889   0.00000  Uiso   1.00
H1796  H     0.34485   0.02258   0.94136   0.00000  Uiso   1.00
H1797  H     0.36559   0.08058   0.94303   0.00000  Uiso   1.00
H1798  H     0.39936   0.03115   0.95266   0.00000  Uiso   1.00
H1799  H     0.29491   0.16930   0.77060   0.00000  Uiso   1.00
H1800  H     0.30714   0.14104   0.70025   0.00000  Uiso   1.00
H1801  H     0.33200   0.08938   0.72381   0.00000  Uiso   1.00
H1802  H     0.35916   0.14359   0.72090   0.00000  Uiso   1.00
H1803  H     0.13704   0.41324   0.93858   0.00000  Uiso   1.00
H1804  H     0.17300   0.34474   0.96630   0.00000  Uiso   1.00
H1805  H     0.17869   0.32568   0.90940   0.00000  Uiso   1.00
H1806  H     0.06490   0.15788   0.97921   0.00000  Uiso   1.00
H1807  H     0.12827   0.32704   0.93688   0.00000  Uiso   1.00
H1808  H     0.37313   0.45338   0.90564   0.00000  Uiso   1.00
H1809  H     0.38696   0.40762   0.97827   0.00000  Uiso   1.00
H1810  H     0.34577   0.37051   0.96040   0.00000  Uiso   1.00
H1811  H     0.33580   0.43133   0.96965   0.00000  Uiso   1.00
H1812  H     0.13224   0.01542   0.77832   0.00000  Uiso   1.00
H1813  H     0.10420   0.04195   0.70018   0.00000  Uiso   1.00
H1814  H     0.15931   0.04327   0.71011   0.00000  Uiso   1.00
H1815  H     0.12821   0.09601   0.71338   0.00000  Uiso   1.00
H1816  H     0.13809   0.10042   0.94628   0.00000  Uiso   1.00
H1817  H     0.49782   0.16615   0.74737   0.00000  Uiso   1.00
H1818  H     0.08709   0.04129   0.92422   0.00000  Uiso   1.00
H1819  H     0.13096   0.01988   0.95669   0.00000  Uiso   1.00
H1820  H     0.13076   0.01226   0.89730   0.00000  Uiso   1.00
H1821  H     0.37343   0.48919   0.78777   0.00000  Uiso   1.00
H1822  H     0.40069   0.46901   0.70634   0.00000  Uiso   1.00
H1823  H     0.34562   0.47553   0.71858   0.00000  Uiso   1.00
H1824  H     0.36924   0.41831   0.71806   0.00000  Uiso   1.00
N1825  N     0.00000   0.25000   0.95240   0.00000  Uiso   1.00
N1826  N     0.23173   0.41966   0.95719   0.00000  Uiso   1.00
N1827  N     0.27294   0.42057   0.71397   0.00000  Uiso   1.00
N1828  N     0.27273   0.07964   0.95283   0.00000  Uiso   1.00
N1829  N     0.36117   0.21519   0.79756   0.00000  Uiso   1.00
N1830  N     0.06266   0.38160   0.90011   0.00000  Uiso   1.00
N1831  N     0.12459   0.31421   0.76298   0.00000  Uiso   1.00
N1832  N     0.44803   0.10669   0.88520   0.00000  Uiso   1.00
N1833  N     0.11985   0.18072   0.90274   0.00000  Uiso   1.00
N1834  N     0.44818   0.39016   0.77352   0.00000  Uiso   1.00
N1835  N     0.37722   0.31172   0.90071   0.00000  Uiso   1.00
N1836  N     0.00000   0.25000   0.71427   0.00000  Uiso   1.00
N1837  N     0.05763   0.11702   0.76624   0.00000  Uiso   1.00
N1838  N     0.12763   0.42772   0.76149   0.00000  Uiso   1.00
N1839  N     0.38158   0.04185   0.88524   0.00000  Uiso   1.00
N1840  N     0.31104   0.13823   0.77065   0.00000  Uiso   1.00
N1841  N     0.15255   0.39278   0.91581   0.00000  Uiso   1.00
N1842  N     0.37026   0.41837   0.91181   0.00000  Uiso   1.00
N1843  N     0.12112   0.04723   0.76739   0.00000  Uiso   1.00
N1844  N     0.14234   0.08058   0.91848   0.00000  Uiso   1.00
N1845  N     0.38373   0.45882   0.77368   0.00000  Uiso   1.00
N1846  N     0.25000  -0.00000   0.95240   0.00000  Uiso   1.00
N1847  N     0.25000  -0.00000   0.71427   0.00000  Uiso   1.00
N1848  N     0.00824   0.33314   0.71117   0.00000  Uiso   1.00
N1849  N     0.00352   0.16735   0.95332   0.00000  Uiso   1.00
N1850  N     0.48951   0.16681   0.71451   0.00000  Uiso   1.00
N1851  N     0.49487   0.33386   0.95182   0.00000  Uiso   1.00
N1852  N     0.24640   0.08378   0.71182   0.00000  Uiso   1.00
O1853  O     0.04581   0.20419   0.87154   0.00000  Uiso   1.00
O1854  O     0.20420   0.04581   0.79513   0.00000  Uiso   1.00
O1855  O     0.20420   0.04581   0.87154   0.00000  Uiso   1.00
O1856  O     0.29581   0.45419   0.79513   0.00000  Uiso   1.00
O1857  O     0.20420   0.45419   0.79513   0.00000  Uiso   1.00
O1858  O     0.29581   0.04581   0.87154   0.00000  Uiso   1.00
O1859  O     0.29581   0.04581   0.79513   0.00000  Uiso   1.00
O1860  O     0.20420   0.45419   0.87154   0.00000  Uiso   1.00
O1861  O     0.45420   0.29581   0.79513   0.00000  Uiso   1.00
O1862  O     0.45420   0.29581   0.87154   0.00000  Uiso   1.00
O1863  O     0.04581   0.20419   0.79513   0.00000  Uiso   1.00
O1864  O     0.45420   0.20419   0.79513   0.00000  Uiso   1.00
O1865  O     0.04581   0.29581   0.87154   0.00000  Uiso   1.00
O1866  O     0.04581   0.29581   0.79513   0.00000  Uiso   1.00
O1867  O     0.45420   0.20419   0.87154   0.00000  Uiso   1.00
O1868  O     0.29581   0.45419   0.87154   0.00000  Uiso   1.00
Zn1869 Zn    0.00000   0.25000   0.88437   0.00000  Uiso   1.00
Zn1870 Zn    0.00000   0.25000   0.78229   0.00000  Uiso   1.00
Zn1871 Zn    0.25000  -0.00000   0.88437   0.00000  Uiso   1.00
Zn1872 Zn    0.25000  -0.00000   0.78229   0.00000  Uiso   1.00
C1873  C     0.55900   0.18847   0.83331   0.00000  Uiso   1.00
C1874  C     0.50013   0.20945   0.97660   0.00000  Uiso   1.00
C1875  C     0.99629   0.20946   0.69109   0.00000  Uiso   1.00
C1876  C     0.99902   0.29070   0.97532   0.00000  Uiso   1.00
C1877  C     0.74837   0.04083   0.68944   0.00000  Uiso   1.00
C1878  C     0.74838   0.45931   0.97725   0.00000  Uiso   1.00
C1879  C     0.75341   0.45927   0.69177   0.00000  Uiso   1.00
C1880  C     0.75385   0.04061   0.97503   0.00000  Uiso   1.00
C1881  C     0.87065   0.16823   0.81039   0.00000  Uiso   1.00
C1882  C     0.59494   0.37502   0.86765   0.00000  Uiso   1.00
C1883  C     0.61814   0.35095   0.79403   0.00000  Uiso   1.00
C1884  C     0.94037   0.31063   0.83312   0.00000  Uiso   1.00
C1885  C     0.91120   0.11599   0.85975   0.00000  Uiso   1.00
C1886  C     0.61474   0.14460   0.87132   0.00000  Uiso   1.00
C1887  C     0.91192   0.38417   0.80115   0.00000  Uiso   1.00
C1888  C     0.88124   0.34949   0.86941   0.00000  Uiso   1.00
C1889  C     0.58944   0.11729   0.79924   0.00000  Uiso   1.00
C1890  C     0.64145   0.39179   0.79170   0.00000  Uiso   1.00
C1891  C     0.87839   0.08430   0.86008   0.00000  Uiso   1.00
C1892  C     0.84119   0.13349   0.80514   0.00000  Uiso   1.00
C1893  C     0.63396   0.39449   0.87282   0.00000  Uiso   1.00
C1894  C     0.85919   0.39058   0.87494   0.00000  Uiso   1.00
C1895  C     0.93993   0.19050   0.83391   0.00000  Uiso   1.00
C1896  C     0.62133   0.08372   0.79888   0.00000  Uiso   1.00
C1897  C     0.63661   0.10308   0.87565   0.00000  Uiso   1.00
C1898  C     0.88002   0.41776   0.80097   0.00000  Uiso   1.00
C1899  C     0.59022   0.34642   0.83091   0.00000  Uiso   1.00
C1900  C     0.90667   0.15779   0.83506   0.00000  Uiso   1.00
C1901  C     0.90956   0.34726   0.83313   0.00000  Uiso   1.00
C1902  C     0.58922   0.15080   0.83346   0.00000  Uiso   1.00
C1903  C     0.84397   0.09274   0.83191   0.00000  Uiso   1.00
C1904  C     0.65641   0.40642   0.83341   0.00000  Uiso   1.00
C1905  C     0.64788   0.08096   0.83579   0.00000  Uiso   1.00
C1906  C     0.55893   0.31107   0.83269   0.00000  Uiso   1.00
C1907  C     0.84962   0.41479   0.83513   0.00000  Uiso   1.00
C1908  C     0.54689   0.35719   0.70060   0.00000  Uiso   1.00
C1909  C     0.53899   0.13782   0.96463   0.00000  Uiso   1.00
C1910  C     0.95098   0.14240   0.70571   0.00000  Uiso   1.00
C1911  C     0.95997   0.36331   0.96442   0.00000  Uiso   1.00
C1912  C     0.71488   0.11784   0.69917   0.00000  Uiso   1.00
C1913  C     0.75999   0.38274   0.94463   0.00000  Uiso   1.00
C1914  C     0.74821   0.38141   0.72894   0.00000  Uiso   1.00
C1915  C     0.74647   0.11372   0.93021   0.00000  Uiso   1.00
C1916  C     0.87115   0.23065   0.75224   0.00000  Uiso   1.00
C1917  C     0.81196   0.44253   0.83364   0.00000  Uiso   1.00
C1918  C     0.54645   0.42854   0.90086   0.00000  Uiso   1.00
C1919  C     0.66547   0.30978   0.74214   0.00000  Uiso   1.00
C1920  C     0.98323   0.08953   0.85963   0.00000  Uiso   1.00
C1921  C     0.64507   0.21902   0.88614   0.00000  Uiso   1.00
C1922  C     0.98212   0.41317   0.79550   0.00000  Uiso   1.00
C1923  C     0.83723   0.28861   0.90059   0.00000  Uiso   1.00
C1924  C     0.53272   0.07528   0.76306   0.00000  Uiso   1.00
C1925  C     0.63927   0.42541   0.71473   0.00000  Uiso   1.00
C1926  C     0.87235   0.04448   0.93286   0.00000  Uiso   1.00
C1927  C     0.82819   0.12743   0.72683   0.00000  Uiso   1.00
C1928  C     0.68718   0.05595   0.83370   0.00000  Uiso   1.00
C1929  C     0.65848   0.34544   0.93283   0.00000  Uiso   1.00
C1930  C     0.85887   0.40571   0.95722   0.00000  Uiso   1.00
C1931  C     0.62868   0.05815   0.72049   0.00000  Uiso   1.00
C1932  C     0.62166   0.03629   0.92425   0.00000  Uiso   1.00
C1933  C     0.87421   0.45498   0.72676   0.00000  Uiso   1.00
C1934  C     0.69020   0.43947   0.83371   0.00000  Uiso   1.00
C1935  C     0.80998   0.06009   0.83277   0.00000  Uiso   1.00
C1936  C     0.50265   0.29049   0.68955   0.00000  Uiso   1.00
H1937  H     0.50055   0.33276   0.74440   0.00000  Uiso   1.00
H1938  H     0.93031   0.16225   0.68231   0.00000  Uiso   1.00
H1939  H     0.93348   0.13574   0.73753   0.00000  Uiso   1.00
H1940  H     0.95863   0.10840   0.69104   0.00000  Uiso   1.00
H1941  H     0.99972   0.33336   0.91807   0.00000  Uiso   1.00
H1942  H     0.94351   0.37577   0.93387   0.00000  Uiso   1.00
H1943  H     0.93729   0.34479   0.98688   0.00000  Uiso   1.00
H1944  H     0.97165   0.39411   0.98171   0.00000  Uiso   1.00
H1945  H     0.75173   0.08255   0.74542   0.00000  Uiso   1.00
H1946  H     0.73042   0.15033   0.68789   0.00000  Uiso   1.00
H1947  H     0.69502   0.12610   0.72876   0.00000  Uiso   1.00
H1948  H     0.54082   0.38612   0.67641   0.00000  Uiso   1.00
H1949  H     0.69436   0.10550   0.67238   0.00000  Uiso   1.00
H1950  H     0.70678   0.40758   0.97579   0.00000  Uiso   1.00
H1951  H     0.77433   0.36538   0.97407   0.00000  Uiso   1.00
H1952  H     0.78459   0.39551   0.92213   0.00000  Uiso   1.00
H1953  H     0.74288   0.35641   0.92599   0.00000  Uiso   1.00
H1954  H     0.79979   0.40981   0.69793   0.00000  Uiso   1.00
H1955  H     0.73379   0.36421   0.70049   0.00000  Uiso   1.00
H1956  H     0.72390   0.39145   0.75305   0.00000  Uiso   1.00
H1957  H     0.76884   0.35574   0.74634   0.00000  Uiso   1.00
H1958  H     0.79660   0.09426   0.97048   0.00000  Uiso   1.00
H1959  H     0.57111   0.33360   0.68642   0.00000  Uiso   1.00
H1960  H     0.75585   0.11708   0.89445   0.00000  Uiso   1.00
H1961  H     0.71327   0.10439   0.93249   0.00000  Uiso   1.00
H1962  H     0.75036   0.14820   0.94520   0.00000  Uiso   1.00
H1963  H     0.83192   0.22621   0.80795   0.00000  Uiso   1.00
H1964  H     0.84384   0.22581   0.73016   0.00000  Uiso   1.00
H1965  H     0.89861   0.21204   0.73846   0.00000  Uiso   1.00
H1966  H     0.87850   0.26815   0.75222   0.00000  Uiso   1.00
H1967  H     0.57024   0.36966   0.93178   0.00000  Uiso   1.00
H1968  H     0.51777   0.42973   0.92211   0.00000  Uiso   1.00
H1969  H     0.53833   0.44109   0.86657   0.00000  Uiso   1.00
H1970  H     0.55938   0.37231   0.73134   0.00000  Uiso   1.00
H1971  H     0.57001   0.45204   0.91497   0.00000  Uiso   1.00
H1972  H     0.61471   0.28217   0.77446   0.00000  Uiso   1.00
H1973  H     0.69038   0.30924   0.76789   0.00000  Uiso   1.00
H1974  H     0.67039   0.33814   0.71750   0.00000  Uiso   1.00
H1975  H     0.66733   0.27698   0.72350   0.00000  Uiso   1.00
H1976  H     0.94344   0.08806   0.91463   0.00000  Uiso   1.00
H1977  H     0.50966   0.08098   0.88228   0.00000  Uiso   1.00
H1978  H     0.99392   0.11657   0.83530   0.00000  Uiso   1.00
H1979  H     0.97446   0.05764   0.84199   0.00000  Uiso   1.00
H1980  H     0.62820   0.17091   0.93472   0.00000  Uiso   1.00
H1981  H     0.97566   0.15005   0.95116   0.00000  Uiso   1.00
H1982  H     0.67769   0.20705   0.87937   0.00000  Uiso   1.00
H1983  H     0.64581   0.24618   0.91173   0.00000  Uiso   1.00
H1984  H     0.63169   0.23461   0.85503   0.00000  Uiso   1.00
H1985  H     0.94263   0.40359   0.74187   0.00000  Uiso   1.00
H1986  H     0.97197   0.44813   0.80630   0.00000  Uiso   1.00
H1987  H     0.50910   0.41731   0.77206   0.00000  Uiso   1.00
H1988  H     0.99255   0.39220   0.82504   0.00000  Uiso   1.00
H1989  H     0.88832   0.31756   0.93224   0.00000  Uiso   1.00
H1990  H     0.81245   0.31108   0.91492   0.00000  Uiso   1.00
H1991  H     0.83922   0.25609   0.92110   0.00000  Uiso   1.00
H1992  H     0.55092   0.12126   0.93394   0.00000  Uiso   1.00
H1993  H     0.82867   0.27979   0.86594   0.00000  Uiso   1.00
H1994  H     0.56635   0.13192   0.73587   0.00000  Uiso   1.00
H1995  H     0.53898   0.05825   0.73078   0.00000  Uiso   1.00
H1996  H     0.99897   0.08436   0.76404   0.00000  Uiso   1.00
H1997  H     0.53900   0.05018   0.79107   0.00000  Uiso   1.00
H1998  H     0.59658   0.43682   0.76628   0.00000  Uiso   1.00
H1999  H     0.62552   0.39479   0.69917   0.00000  Uiso   1.00
H2000  H     0.67359   0.42513   0.71085   0.00000  Uiso   1.00
H2001  H     0.62729   0.45669   0.69658   0.00000  Uiso   1.00
H2002  H     0.90818   0.02276   0.87804   0.00000  Uiso   1.00
H2003  H     0.52938   0.11007   0.98889   0.00000  Uiso   1.00
H2004  H     0.84485   0.02258   0.94136   0.00000  Uiso   1.00
H2005  H     0.86559   0.08058   0.94303   0.00000  Uiso   1.00
H2006  H     0.89936   0.03115   0.95266   0.00000  Uiso   1.00
H2007  H     0.79491   0.16930   0.77060   0.00000  Uiso   1.00
H2008  H     0.80714   0.14104   0.70025   0.00000  Uiso   1.00
H2009  H     0.83200   0.08938   0.72381   0.00000  Uiso   1.00
H2010  H     0.85916   0.14359   0.72090   0.00000  Uiso   1.00
H2011  H     0.63704   0.41324   0.93858   0.00000  Uiso   1.00
H2012  H     0.67300   0.34474   0.96630   0.00000  Uiso   1.00
H2013  H     0.67869   0.32568   0.90940   0.00000  Uiso   1.00
H2014  H     0.56490   0.15788   0.97921   0.00000  Uiso   1.00
H2015  H     0.62827   0.32704   0.93688   0.00000  Uiso   1.00
H2016  H     0.87313   0.45338   0.90564   0.00000  Uiso   1.00
H2017  H     0.88696   0.40762   0.97827   0.00000  Uiso   1.00
H2018  H     0.84577   0.37051   0.96040   0.00000  Uiso   1.00
H2019  H     0.83580   0.43133   0.96965   0.00000  Uiso   1.00
H2020  H     0.63224   0.01542   0.77832   0.00000  Uiso   1.00
H2021  H     0.60420   0.04195   0.70018   0.00000  Uiso   1.00
H2022  H     0.65931   0.04327   0.71011   0.00000  Uiso   1.00
H2023  H     0.62821   0.09601   0.71338   0.00000  Uiso   1.00
H2024  H     0.63809   0.10042   0.94628   0.00000  Uiso   1.00
H2025  H     0.99782   0.16615   0.74737   0.00000  Uiso   1.00
H2026  H     0.58709   0.04129   0.92422   0.00000  Uiso   1.00
H2027  H     0.63096   0.01988   0.95669   0.00000  Uiso   1.00
H2028  H     0.63076   0.01226   0.89730   0.00000  Uiso   1.00
H2029  H     0.87343   0.48919   0.78777   0.00000  Uiso   1.00
H2030  H     0.90069   0.46901   0.70634   0.00000  Uiso   1.00
H2031  H     0.84562   0.47553   0.71858   0.00000  Uiso   1.00
H2032  H     0.86924   0.41831   0.71806   0.00000  Uiso   1.00
N2033  N     0.50000   0.25000   0.95240   0.00000  Uiso   1.00
N2034  N     0.73173   0.41966   0.95719   0.00000  Uiso   1.00
N2035  N     0.77294   0.42057   0.71397   0.00000  Uiso   1.00
N2036  N     0.77273   0.07964   0.95283   0.00000  Uiso   1.00
N2037  N     0.86117   0.21519   0.79756   0.00000  Uiso   1.00
N2038  N     0.56266   0.38160   0.90011   0.00000  Uiso   1.00
N2039  N     0.62459   0.31421   0.76298   0.00000  Uiso   1.00
N2040  N     0.94803   0.10669   0.88520   0.00000  Uiso   1.00
N2041  N     0.61985   0.18072   0.90274   0.00000  Uiso   1.00
N2042  N     0.94818   0.39016   0.77352   0.00000  Uiso   1.00
N2043  N     0.87722   0.31172   0.90071   0.00000  Uiso   1.00
N2044  N     0.50000   0.25000   0.71427   0.00000  Uiso   1.00
N2045  N     0.55763   0.11702   0.76624   0.00000  Uiso   1.00
N2046  N     0.62763   0.42772   0.76149   0.00000  Uiso   1.00
N2047  N     0.88158   0.04185   0.88524   0.00000  Uiso   1.00
N2048  N     0.81104   0.13823   0.77065   0.00000  Uiso   1.00
N2049  N     0.65255   0.39278   0.91581   0.00000  Uiso   1.00
N2050  N     0.87026   0.41837   0.91181   0.00000  Uiso   1.00
N2051  N     0.62112   0.04723   0.76739   0.00000  Uiso   1.00
N2052  N     0.64234   0.08058   0.91848   0.00000  Uiso   1.00
N2053  N     0.88373   0.45882   0.77368   0.00000  Uiso   1.00
N2054  N     0.75000  -0.00000   0.95240   0.00000  Uiso   1.00
N2055  N     0.75000  -0.00000   0.71427   0.00000  Uiso   1.00
N2056  N     0.50824   0.33314   0.71117   0.00000  Uiso   1.00
N2057  N     0.50352   0.16735   0.95332   0.00000  Uiso   1.00
N2058  N     0.98951   0.16681   0.71451   0.00000  Uiso   1.00
N2059  N     0.99487   0.33386   0.95182   0.00000  Uiso   1.00
N2060  N     0.74640   0.08378   0.71182   0.00000  Uiso   1.00
O2061  O     0.54581   0.20419   0.87154   0.00000  Uiso   1.00
O2062  O     0.70420   0.04581   0.79513   0.00000  Uiso   1.00
O2063  O     0.70420   0.04581   0.87154   0.00000  Uiso   1.00
O2064  O     0.79581   0.45419   0.79513   0.00000  Uiso   1.00
O2065  O     0.70420   0.45419   0.79513   0.00000  Uiso   1.00
O2066  O     0.79581   0.04581   0.87154   0.00000  Uiso   1.00
O2067  O     0.79581   0.04581   0.79513   0.00000  Uiso   1.00
O2068  O     0.70420   0.45419   0.87154   0.00000  Uiso   1.00
O2069  O     0.95420   0.29581   0.79513   0.00000  Uiso   1.00
O2070  O     0.95420   0.29581   0.87154   0.00000  Uiso   1.00
O2071  O     0.54581   0.20419   0.79513   0.00000  Uiso   1.00
O2072  O     0.95420   0.20419   0.79513   0.00000  Uiso   1.00
O2073  O     0.54581   0.29581   0.87154   0.00000  Uiso   1.00
O2074  O     0.54581   0.29581   0.79513   0.00000  Uiso   1.00
O2075  O     0.95420   0.20419   0.87154   0.00000  Uiso   1.00
O2076  O     0.79581   0.45419   0.87154   0.00000  Uiso   1.00
Zn2077 Zn    0.50000   0.25000   0.88437   0.00000  Uiso   1.00
Zn2078 Zn    0.50000   0.25000   0.78229   0.00000  Uiso   1.00
Zn2079 Zn    0.75000  -0.00000   0.88437   0.00000  Uiso   1.00
Zn2080 Zn    0.75000  -0.00000   0.78229   0.00000  Uiso   1.00
C2081  C     0.05900   0.68847   0.83331   0.00000  Uiso   1.00
C2082  C     0.00013   0.70945   0.97660   0.00000  Uiso   1.00
C2083  C     0.49629   0.70946   0.69109   0.00000  Uiso   1.00
C2084  C     0.49902   0.79070   0.97532   0.00000  Uiso   1.00
C2085  C     0.24837   0.54083   0.68944   0.00000  Uiso   1.00
C2086  C     0.24838   0.95931   0.97725   0.00000  Uiso   1.00
C2087  C     0.25341   0.95927   0.69177   0.00000  Uiso   1.00
C2088  C     0.25385   0.54061   0.97503   0.00000  Uiso   1.00
C2089  C     0.37065   0.66823   0.81039   0.00000  Uiso   1.00
C2090  C     0.09494   0.87502   0.86765   0.00000  Uiso   1.00
C2091  C     0.11814   0.85095   0.79403   0.00000  Uiso   1.00
C2092  C     0.44037   0.81063   0.83312   0.00000  Uiso   1.00
C2093  C     0.41120   0.61599   0.85975   0.00000  Uiso   1.00
C2094  C     0.11474   0.64460   0.87132   0.00000  Uiso   1.00
C2095  C     0.41192   0.88417   0.80115   0.00000  Uiso   1.00
C2096  C     0.38124   0.84949   0.86941   0.00000  Uiso   1.00
C2097  C     0.08944   0.61729   0.79924   0.00000  Uiso   1.00
C2098  C     0.14145   0.89179   0.79170   0.00000  Uiso   1.00
C2099  C     0.37839   0.58430   0.86008   0.00000  Uiso   1.00
C2100  C     0.34119   0.63349   0.80514   0.00000  Uiso   1.00
C2101  C     0.13396   0.89449   0.87282   0.00000  Uiso   1.00
C2102  C     0.35919   0.89058   0.87494   0.00000  Uiso   1.00
C2103  C     0.43993   0.69050   0.83391   0.00000  Uiso   1.00
C2104  C     0.12133   0.58372   0.79888   0.00000  Uiso   1.00
C2105  C     0.13661   0.60308   0.87565   0.00000  Uiso   1.00
C2106  C     0.38002   0.91776   0.80097   0.00000  Uiso   1.00
C2107  C     0.09022   0.84642   0.83091   0.00000  Uiso   1.00
C2108  C     0.40667   0.65779   0.83506   0.00000  Uiso   1.00
C2109  C     0.40956   0.84726   0.83313   0.00000  Uiso   1.00
C2110  C     0.08922   0.65080   0.83346   0.00000  Uiso   1.00
C2111  C     0.34397   0.59274   0.83191   0.00000  Uiso   1.00
C2112  C     0.15641   0.90642   0.83341   0.00000  Uiso   1.00
C2113  C     0.14788   0.58096   0.83579   0.00000  Uiso   1.00
C2114  C     0.05893   0.81107   0.83269   0.00000  Uiso   1.00
C2115  C     0.34962   0.91479   0.83513   0.00000  Uiso   1.00
C2116  C     0.04689   0.85719   0.70060   0.00000  Uiso   1.00
C2117  C     0.03899   0.63782   0.96463   0.00000  Uiso   1.00
C2118  C     0.45098   0.64240   0.70571   0.00000  Uiso   1.00
C2119  C     0.45997   0.86331   0.96442   0.00000  Uiso   1.00
C2120  C     0.21488   0.61784   0.69917   0.00000  Uiso   1.00
C2121  C     0.25999   0.88274   0.94463   0.00000  Uiso   1.00
C2122  C     0.24821   0.88141   0.72894   0.00000  Uiso   1.00
C2123  C     0.24647   0.61372   0.93021   0.00000  Uiso   1.00
C2124  C     0.37115   0.73065   0.75224   0.00000  Uiso   1.00
C2125  C     0.31196   0.94253   0.83364   0.00000  Uiso   1.00
C2126  C     0.04645   0.92854   0.90086   0.00000  Uiso   1.00
C2127  C     0.16547   0.80978   0.74214   0.00000  Uiso   1.00
C2128  C     0.48323   0.58953   0.85963   0.00000  Uiso   1.00
C2129  C     0.14507   0.71902   0.88614   0.00000  Uiso   1.00
C2130  C     0.48212   0.91317   0.79550   0.00000  Uiso   1.00
C2131  C     0.33723   0.78861   0.90059   0.00000  Uiso   1.00
C2132  C     0.03272   0.57528   0.76306   0.00000  Uiso   1.00
C2133  C     0.13927   0.92541   0.71473   0.00000  Uiso   1.00
C2134  C     0.37235   0.54448   0.93286   0.00000  Uiso   1.00
C2135  C     0.32819   0.62743   0.72683   0.00000  Uiso   1.00
C2136  C     0.18718   0.55595   0.83370   0.00000  Uiso   1.00
C2137  C     0.15848   0.84544   0.93283   0.00000  Uiso   1.00
C2138  C     0.35887   0.90571   0.95722   0.00000  Uiso   1.00
C2139  C     0.12868   0.55815   0.72049   0.00000  Uiso   1.00
C2140  C     0.12166   0.53629   0.92425   0.00000  Uiso   1.00
C2141  C     0.37421   0.95498   0.72676   0.00000  Uiso   1.00
C2142  C     0.19020   0.93947   0.83371   0.00000  Uiso   1.00
C2143  C     0.30998   0.56009   0.83277   0.00000  Uiso   1.00
C2144  C     0.00265   0.79049   0.68955   0.00000  Uiso   1.00
H2145  H     0.00055   0.83276   0.74440   0.00000  Uiso   1.00
H2146  H     0.43031   0.66225   0.68231   0.00000  Uiso   1.00
H2147  H     0.43348   0.63574   0.73753   0.00000  Uiso   1.00
H2148  H     0.45863   0.60840   0.69104   0.00000  Uiso   1.00
H2149  H     0.49972   0.83336   0.91807   0.00000  Uiso   1.00
H2150  H     0.44351   0.87577   0.93387   0.00000  Uiso   1.00
H2151  H     0.43729   0.84479   0.98688   0.00000  Uiso   1.00
H2152  H     0.47165   0.89411   0.98171   0.00000  Uiso   1.00
H2153  H     0.25173   0.58255   0.74542   0.00000  Uiso   1.00
H2154  H     0.23042   0.65033   0.68789   0.00000  Uiso   1.00
H2155  H     0.19502   0.62610   0.72876   0.00000  Uiso   1.00
H2156  H     0.04082   0.88612   0.67641   0.00000  Uiso   1.00
H2157  H     0.19436   0.60550   0.67238   0.00000  Uiso   1.00
H2158  H     0.20678   0.90758   0.97579   0.00000  Uiso   1.00
H2159  H     0.27433   0.86538   0.97407   0.00000  Uiso   1.00
H2160  H     0.28459   0.89551   0.92213   0.00000  Uiso   1.00
H2161  H     0.24288   0.85641   0.92599   0.00000  Uiso   1.00
H2162  H     0.29979   0.90981   0.69793   0.00000  Uiso   1.00
H2163  H     0.23379   0.86421   0.70049   0.00000  Uiso   1.00
H2164  H     0.22390   0.89145   0.75305   0.00000  Uiso   1.00
H2165  H     0.26884   0.85574   0.74634   0.00000  Uiso   1.00
H2166  H     0.29660   0.59426   0.97048   0.00000  Uiso   1.00
H2167  H     0.07111   0.83360   0.68642   0.00000  Uiso   1.00
H2168  H     0.25585   0.61708   0.89445   0.00000  Uiso   1.00
H2169  H     0.21327   0.60439   0.93249   0.00000  Uiso   1.00
H2170  H     0.25036   0.64820   0.94520   0.00000  Uiso   1.00
H2171  H     0.33192   0.72621   0.80795   0.00000  Uiso   1.00
H2172  H     0.34384   0.72581   0.73016   0.00000  Uiso   1.00
H2173  H     0.39861   0.71204   0.73846   0.00000  Uiso   1.00
H2174  H     0.37850   0.76815   0.75222   0.00000  Uiso   1.00
H2175  H     0.07024   0.86966   0.93178   0.00000  Uiso   1.00
H2176  H     0.01777   0.92973   0.92211   0.00000  Uiso   1.00
H2177  H     0.03833   0.94109   0.86657   0.00000  Uiso   1.00
H2178  H     0.05938   0.87231   0.73134   0.00000  Uiso   1.00
H2179  H     0.07001   0.95204   0.91497   0.00000  Uiso   1.00
H2180  H     0.11471   0.78217   0.77446   0.00000  Uiso   1.00
H2181  H     0.19038   0.80924   0.76789   0.00000  Uiso   1.00
H2182  H     0.17039   0.83814   0.71750   0.00000  Uiso   1.00
H2183  H     0.16733   0.77698   0.72350   0.00000  Uiso   1.00
H2184  H     0.44344   0.58806   0.91463   0.00000  Uiso   1.00
H2185  H     0.00966   0.58098   0.88228   0.00000  Uiso   1.00
H2186  H     0.49392   0.61657   0.83530   0.00000  Uiso   1.00
H2187  H     0.47446   0.55764   0.84199   0.00000  Uiso   1.00
H2188  H     0.12820   0.67091   0.93472   0.00000  Uiso   1.00
H2189  H     0.47566   0.65005   0.95116   0.00000  Uiso   1.00
H2190  H     0.17769   0.70705   0.87937   0.00000  Uiso   1.00
H2191  H     0.14581   0.74618   0.91173   0.00000  Uiso   1.00
H2192  H     0.13169   0.73461   0.85503   0.00000  Uiso   1.00
H2193  H     0.44263   0.90359   0.74187   0.00000  Uiso   1.00
H2194  H     0.47197   0.94813   0.80630   0.00000  Uiso   1.00
H2195  H     0.00910   0.91731   0.77206   0.00000  Uiso   1.00
H2196  H     0.49255   0.89220   0.82504   0.00000  Uiso   1.00
H2197  H     0.38832   0.81756   0.93224   0.00000  Uiso   1.00
H2198  H     0.31245   0.81108   0.91492   0.00000  Uiso   1.00
H2199  H     0.33922   0.75609   0.92110   0.00000  Uiso   1.00
H2200  H     0.05092   0.62126   0.93394   0.00000  Uiso   1.00
H2201  H     0.32867   0.77979   0.86594   0.00000  Uiso   1.00
H2202  H     0.06635   0.63192   0.73587   0.00000  Uiso   1.00
H2203  H     0.03898   0.55825   0.73078   0.00000  Uiso   1.00
H2204  H     0.49897   0.58436   0.76404   0.00000  Uiso   1.00
H2205  H     0.03900   0.55018   0.79107   0.00000  Uiso   1.00
H2206  H     0.09658   0.93682   0.76628   0.00000  Uiso   1.00
H2207  H     0.12552   0.89479   0.69917   0.00000  Uiso   1.00
H2208  H     0.17359   0.92513   0.71085   0.00000  Uiso   1.00
H2209  H     0.12729   0.95669   0.69658   0.00000  Uiso   1.00
H2210  H     0.40818   0.52276   0.87804   0.00000  Uiso   1.00
H2211  H     0.02938   0.61007   0.98889   0.00000  Uiso   1.00
H2212  H     0.34485   0.52258   0.94136   0.00000  Uiso   1.00
H2213  H     0.36559   0.58058   0.94303   0.00000  Uiso   1.00
H2214  H     0.39936   0.53115   0.95266   0.00000  Uiso   1.00
H2215  H     0.29491   0.66930   0.77060   0.00000  Uiso   1.00
H2216  H     0.30714   0.64104   0.70025   0.00000  Uiso   1.00
H2217  H     0.33200   0.58938   0.72381   0.00000  Uiso   1.00
H2218  H     0.35916   0.64359   0.72090   0.00000  Uiso   1.00
H2219  H     0.13704   0.91324   0.93858   0.00000  Uiso   1.00
H2220  H     0.17300   0.84474   0.96630   0.00000  Uiso   1.00
H2221  H     0.17869   0.82568   0.90940   0.00000  Uiso   1.00
H2222  H     0.06490   0.65788   0.97921   0.00000  Uiso   1.00
H2223  H     0.12827   0.82704   0.93688   0.00000  Uiso   1.00
H2224  H     0.37313   0.95338   0.90564   0.00000  Uiso   1.00
H2225  H     0.38696   0.90762   0.97827   0.00000  Uiso   1.00
H2226  H     0.34577   0.87051   0.96040   0.00000  Uiso   1.00
H2227  H     0.33580   0.93133   0.96965   0.00000  Uiso   1.00
H2228  H     0.13224   0.51542   0.77832   0.00000  Uiso   1.00
H2229  H     0.10420   0.54195   0.70018   0.00000  Uiso   1.00
H2230  H     0.15931   0.54327   0.71011   0.00000  Uiso   1.00
H2231  H     0.12821   0.59601   0.71338   0.00000  Uiso   1.00
H2232  H     0.13809   0.60042   0.94628   0.00000  Uiso   1.00
H2233  H     0.49782   0.66615   0.74737   0.00000  Uiso   1.00
H2234  H     0.08709   0.54129   0.92422   0.00000  Uiso   1.00
H2235  H     0.13096   0.51988   0.95669   0.00000  Uiso   1.00
H2236  H     0.13076   0.51226   0.89730   0.00000  Uiso   1.00
H2237  H     0.37343   0.98919   0.78777   0.00000  Uiso   1.00
H2238  H     0.40069   0.96901   0.70634   0.00000  Uiso   1.00
H2239  H     0.34562   0.97553   0.71858   0.00000  Uiso   1.00
H2240  H     0.36924   0.91831   0.71806   0.00000  Uiso   1.00
N2241  N     0.00000   0.75000   0.95240   0.00000  Uiso   1.00
N2242  N     0.23173   0.91966   0.95719   0.00000  Uiso   1.00
N2243  N     0.27294   0.92057   0.71397   0.00000  Uiso   1.00
N2244  N     0.27273   0.57964   0.95283   0.00000  Uiso   1.00
N2245  N     0.36117   0.71519   0.79756   0.00000  Uiso   1.00
N2246  N     0.06266   0.88160   0.90011   0.00000  Uiso   1.00
N2247  N     0.12459   0.81421   0.76298   0.00000  Uiso   1.00
N2248  N     0.44803   0.60669   0.88520   0.00000  Uiso   1.00
N2249  N     0.11985   0.68072   0.90274   0.00000  Uiso   1.00
N2250  N     0.44818   0.89016   0.77352   0.00000  Uiso   1.00
N2251  N     0.37722   0.81172   0.90071   0.00000  Uiso   1.00
N2252  N     0.00000   0.75000   0.71427   0.00000  Uiso   1.00
N2253  N     0.05763   0.61702   0.76624   0.00000  Uiso   1.00
N2254  N     0.12763   0.92772   0.76149   0.00000  Uiso   1.00
N2255  N     0.38158   0.54185   0.88524   0.00000  Uiso   1.00
N2256  N     0.31104   0.63823   0.77065   0.00000  Uiso   1.00
N2257  N     0.15255   0.89278   0.91581   0.00000  Uiso   1.00
N2258  N     0.37026   0.91837   0.91181   0.00000  Uiso   1.00
N2259  N     0.12112   0.54723   0.76739   0.00000  Uiso   1.00
N2260  N     0.14234   0.58058   0.91848   0.00000  Uiso   1.00
N2261  N     0.38373   0.95882   0.77368   0.00000  Uiso   1.00
N2262  N     0.25000   0.50000   0.95240   0.00000  Uiso   1.00
N2263  N     0.25000   0.50000   0.71427   0.00000  Uiso   1.00
N2264  N     0.00824   0.83314   0.71117   0.00000  Uiso   1.00
N2265  N     0.00352   0.66735   0.95332   0.00000  Uiso   1.00
N2266  N     0.48951   0.66681   0.71451   0.00000  Uiso   1.00
N2267  N     0.49487   0.83386   0.95182   0.00000  Uiso   1.00
N2268  N     0.24640   0.58378   0.71182   0.00000  Uiso   1.00
O2269  O     0.04581   0.70419   0.87154   0.00000  Uiso   1.00
O2270  O     0.20420   0.54581   0.79513   0.00000  Uiso   1.00
O2271  O     0.20420   0.54581   0.87154   0.00000  Uiso   1.00
O2272  O     0.29581   0.95419   0.79513   0.00000  Uiso   1.00
O2273  O     0.20420   0.95419   0.79513   0.00000  Uiso   1.00
O2274  O     0.29581   0.54581   0.87154   0.00000  Uiso   1.00
O2275  O     0.29581   0.54581   0.79513   0.00000  Uiso   1.00
O2276  O     0.20420   0.95419   0.87154   0.00000  Uiso   1.00
O2277  O     0.45420   0.79581   0.79513   0.00000  Uiso   1.00
O2278  O     0.45420   0.79581   0.87154   0.00000  Uiso   1.00
O2279  O     0.04581   0.70419   0.79513   0.00000  Uiso   1.00
O2280  O     0.45420   0.70419   0.79513   0.00000  Uiso   1.00
O2281  O     0.04581   0.79581   0.87154   0.00000  Uiso   1.00
O2282  O     0.04581   0.79581   0.79513   0.00000  Uiso   1.00
O2283  O     0.45420   0.70419   0.87154   0.00000  Uiso   1.00
O2284  O     0.29581   0.95419   0.87154   0.00000  Uiso   1.00
Zn2285 Zn    0.00000   0.75000   0.88437   0.00000  Uiso   1.00
Zn2286 Zn    0.00000   0.75000   0.78229   0.00000  Uiso   1.00
Zn2287 Zn    0.25000   0.50000   0.88437   0.00000  Uiso   1.00
Zn2288 Zn    0.25000   0.50000   0.78229   0.00000  Uiso   1.00
C2289  C     0.55900   0.68847   0.83331   0.00000  Uiso   1.00
C2290  C     0.50013   0.70945   0.97660   0.00000  Uiso   1.00
C2291  C     0.99629   0.70946   0.69109   0.00000  Uiso   1.00
C2292  C     0.99902   0.79070   0.97532   0.00000  Uiso   1.00
C2293  C     0.74837   0.54083   0.68944   0.00000  Uiso   1.00
C2294  C     0.74838   0.95931   0.97725   0.00000  Uiso   1.00
C2295  C     0.75341   0.95927   0.69177   0.00000  Uiso   1.00
C2296  C     0.75385   0.54061   0.97503   0.00000  Uiso   1.00
C2297  C     0.87065   0.66823   0.81039   0.00000  Uiso   1.00
C2298  C     0.59494   0.87502   0.86765   0.00000  Uiso   1.00
C2299  C     0.61814   0.85095   0.79403   0.00000  Uiso   1.00
C2300  C     0.94037   0.81063   0.83312   0.00000  Uiso   1.00
C2301  C     0.91120   0.61599   0.85975   0.00000  Uiso   1.00
C2302  C     0.61474   0.64460   0.87132   0.00000  Uiso   1.00
C2303  C     0.91192   0.88417   0.80115   0.00000  Uiso   1.00
C2304  C     0.88124   0.84949   0.86941   0.00000  Uiso   1.00
C2305  C     0.58944   0.61729   0.79924   0.00000  Uiso   1.00
C2306  C     0.64145   0.89179   0.79170   0.00000  Uiso   1.00
C2307  C     0.87839   0.58430   0.86008   0.00000  Uiso   1.00
C2308  C     0.84119   0.63349   0.80514   0.00000  Uiso   1.00
C2309  C     0.63396   0.89449   0.87282   0.00000  Uiso   1.00
C2310  C     0.85919   0.89058   0.87494   0.00000  Uiso   1.00
C2311  C     0.93993   0.69050   0.83391   0.00000  Uiso   1.00
C2312  C     0.62133   0.58372   0.79888   0.00000  Uiso   1.00
C2313  C     0.63661   0.60308   0.87565   0.00000  Uiso   1.00
C2314  C     0.88002   0.91776   0.80097   0.00000  Uiso   1.00
C2315  C     0.59022   0.84642   0.83091   0.00000  Uiso   1.00
C2316  C     0.90667   0.65779   0.83506   0.00000  Uiso   1.00
C2317  C     0.90956   0.84726   0.83313   0.00000  Uiso   1.00
C2318  C     0.58922   0.65080   0.83346   0.00000  Uiso   1.00
C2319  C     0.84397   0.59274   0.83191   0.00000  Uiso   1.00
C2320  C     0.65641   0.90642   0.83341   0.00000  Uiso   1.00
C2321  C     0.64788   0.58096   0.83579   0.00000  Uiso   1.00
C2322  C     0.55893   0.81107   0.83269   0.00000  Uiso   1.00
C2323  C     0.84962   0.91479   0.83513   0.00000  Uiso   1.00
C2324  C     0.54689   0.85719   0.70060   0.00000  Uiso   1.00
C2325  C     0.53899   0.63782   0.96463   0.00000  Uiso   1.00
C2326  C     0.95098   0.64240   0.70571   0.00000  Uiso   1.00
C2327  C     0.95997   0.86331   0.96442   0.00000  Uiso   1.00
C2328  C     0.71488   0.61784   0.69917   0.00000  Uiso   1.00
C2329  C     0.75999   0.88274   0.94463   0.00000  Uiso   1.00
C2330  C     0.74821   0.88141   0.72894   0.00000  Uiso   1.00
C2331  C     0.74647   0.61372   0.93021   0.00000  Uiso   1.00
C2332  C     0.87115   0.73065   0.75224   0.00000  Uiso   1.00
C2333  C     0.81196   0.94253   0.83364   0.00000  Uiso   1.00
C2334  C     0.54645   0.92854   0.90086   0.00000  Uiso   1.00
C2335  C     0.66547   0.80978   0.74214   0.00000  Uiso   1.00
C2336  C     0.98323   0.58953   0.85963   0.00000  Uiso   1.00
C2337  C     0.64507   0.71902   0.88614   0.00000  Uiso   1.00
C2338  C     0.98212   0.91317   0.79550   0.00000  Uiso   1.00
C2339  C     0.83723   0.78861   0.90059   0.00000  Uiso   1.00
C2340  C     0.53272   0.57528   0.76306   0.00000  Uiso   1.00
C2341  C     0.63927   0.92541   0.71473   0.00000  Uiso   1.00
C2342  C     0.87235   0.54448   0.93286   0.00000  Uiso   1.00
C2343  C     0.82819   0.62743   0.72683   0.00000  Uiso   1.00
C2344  C     0.68718   0.55595   0.83370   0.00000  Uiso   1.00
C2345  C     0.65848   0.84544   0.93283   0.00000  Uiso   1.00
C2346  C     0.85887   0.90571   0.95722   0.00000  Uiso   1.00
C2347  C     0.62868   0.55815   0.72049   0.00000  Uiso   1.00
C2348  C     0.62166   0.53629   0.92425   0.00000  Uiso   1.00
C2349  C     0.87421   0.95498   0.72676   0.00000  Uiso   1.00
C2350  C     0.69020   0.93947   0.83371   0.00000  Uiso   1.00
C2351  C     0.80998   0.56009   0.83277   0.00000  Uiso   1.00
C2352  C     0.50265   0.79049   0.68955   0.00000  Uiso   1.00
H2353  H     0.50055   0.83276   0.74440   0.00000  Uiso   1.00
H2354  H     0.93031   0.66225   0.68231   0.00000  Uiso   1.00
H2355  H     0.93348   0.63574   0.73753   0.00000  Uiso   1.00
H2356  H     0.95863   0.60840   0.69104   0.00000  Uiso   1.00
H2357  H     0.99972   0.83336   0.91807   0.00000  Uiso   1.00
H2358  H     0.94351   0.87577   0.93387   0.00000  Uiso   1.00
H2359  H     0.93729   0.84479   0.98688   0.00000  Uiso   1.00
H2360  H     0.97165   0.89411   0.98171   0.00000  Uiso   1.00
H2361  H     0.75173   0.58255   0.74542   0.00000  Uiso   1.00
H2362  H     0.73042   0.65033   0.68789   0.00000  Uiso   1.00
H2363  H     0.69502   0.62610   0.72876   0.00000  Uiso   1.00
H2364  H     0.54082   0.88612   0.67641   0.00000  Uiso   1.00
H2365  H     0.69436   0.60550   0.67238   0.00000  Uiso   1.00
H2366  H     0.70678   0.90758   0.97579   0.00000  Uiso   1.00
H2367  H     0.77433   0.86538   0.97407   0.00000  Uiso   1.00
H2368  H     0.78459   0.89551   0.92213   0.00000  Uiso   1.00
H2369  H     0.74288   0.85641   0.92599   0.00000  Uiso   1.00
H2370  H     0.79979   0.90981   0.69793   0.00000  Uiso   1.00
H2371  H     0.73379   0.86421   0.70049   0.00000  Uiso   1.00
H2372  H     0.72390   0.89145   0.75305   0.00000  Uiso   1.00
H2373  H     0.76884   0.85574   0.74634   0.00000  Uiso   1.00
H2374  H     0.79660   0.59426   0.97048   0.00000  Uiso   1.00
H2375  H     0.57111   0.83360   0.68642   0.00000  Uiso   1.00
H2376  H     0.75585   0.61708   0.89445   0.00000  Uiso   1.00
H2377  H     0.71327   0.60439   0.93249   0.00000  Uiso   1.00
H2378  H     0.75036   0.64820   0.94520   0.00000  Uiso   1.00
H2379  H     0.83192   0.72621   0.80795   0.00000  Uiso   1.00
H2380  H     0.84384   0.72581   0.73016   0.00000  Uiso   1.00
H2381  H     0.89861   0.71204   0.73846   0.00000  Uiso   1.00
H2382  H     0.87850   0.76815   0.75222   0.00000  Uiso   1.00
H2383  H     0.57024   0.86966   0.93178   0.00000  Uiso   1.00
H2384  H     0.51777   0.92973   0.92211   0.00000  Uiso   1.00
H2385  H     0.53833   0.94109   0.86657   0.00000  Uiso   1.00
H2386  H     0.55938   0.87231   0.73134   0.00000  Uiso   1.00
H2387  H     0.57001   0.95204   0.91497   0.00000  Uiso   1.00
H2388  H     0.61471   0.78217   0.77446   0.00000  Uiso   1.00
H2389  H     0.69038   0.80924   0.76789   0.00000  Uiso   1.00
H2390  H     0.67039   0.83814   0.71750   0.00000  Uiso   1.00
H2391  H     0.66733   0.77698   0.72350   0.00000  Uiso   1.00
H2392  H     0.94344   0.58806   0.91463   0.00000  Uiso   1.00
H2393  H     0.50966   0.58098   0.88228   0.00000  Uiso   1.00
H2394  H     0.99392   0.61657   0.83530   0.00000  Uiso   1.00
H2395  H     0.97446   0.55764   0.84199   0.00000  Uiso   1.00
H2396  H     0.62820   0.67091   0.93472   0.00000  Uiso   1.00
H2397  H     0.97566   0.65005   0.95116   0.00000  Uiso   1.00
H2398  H     0.67769   0.70705   0.87937   0.00000  Uiso   1.00
H2399  H     0.64581   0.74618   0.91173   0.00000  Uiso   1.00
H2400  H     0.63169   0.73461   0.85503   0.00000  Uiso   1.00
H2401  H     0.94263   0.90359   0.74187   0.00000  Uiso   1.00
H2402  H     0.97197   0.94813   0.80630   0.00000  Uiso   1.00
H2403  H     0.50910   0.91731   0.77206   0.00000  Uiso   1.00
H2404  H     0.99255   0.89220   0.82504   0.00000  Uiso   1.00
H2405  H     0.88832   0.81756   0.93224   0.00000  Uiso   1.00
H2406  H     0.81245   0.81108   0.91492   0.00000  Uiso   1.00
H2407  H     0.83922   0.75609   0.92110   0.00000  Uiso   1.00
H2408  H     0.55092   0.62126   0.93394   0.00000  Uiso   1.00
H2409  H     0.82867   0.77979   0.86594   0.00000  Uiso   1.00
H2410  H     0.56635   0.63192   0.73587   0.00000  Uiso   1.00
H2411  H     0.53898   0.55825   0.73078   0.00000  Uiso   1.00
H2412  H     0.99897   0.58436   0.76404   0.00000  Uiso   1.00
H2413  H     0.53900   0.55018   0.79107   0.00000  Uiso   1.00
H2414  H     0.59658   0.93682   0.76628   0.00000  Uiso   1.00
H2415  H     0.62552   0.89479   0.69917   0.00000  Uiso   1.00
H2416  H     0.67359   0.92513   0.71085   0.00000  Uiso   1.00
H2417  H     0.62729   0.95669   0.69658   0.00000  Uiso   1.00
H2418  H     0.90818   0.52276   0.87804   0.00000  Uiso   1.00
H2419  H     0.52938   0.61007   0.98889   0.00000  Uiso   1.00
H2420  H     0.84485   0.52258   0.94136   0.00000  Uiso   1.00
H2421  H     0.86559   0.58058   0.94303   0.00000  Uiso   1.00
H2422  H     0.89936   0.53115   0.95266   0.00000  Uiso   1.00
H2423  H     0.79491   0.66930   0.77060   0.00000  Uiso   1.00
H2424  H     0.80714   0.64104   0.70025   0.00000  Uiso   1.00
H2425  H     0.83200   0.58938   0.72381   0.00000  Uiso   1.00
H2426  H     0.85916   0.64359   0.72090   0.00000  Uiso   1.00
H2427  H     0.63704   0.91324   0.93858   0.00000  Uiso   1.00
H2428  H     0.67300   0.84474   0.96630   0.00000  Uiso   1.00
H2429  H     0.67869   0.82568   0.90940   0.00000  Uiso   1.00
H2430  H     0.56490   0.65788   0.97921   0.00000  Uiso   1.00
H2431  H     0.62827   0.82704   0.93688   0.00000  Uiso   1.00
H2432  H     0.87313   0.95338   0.90564   0.00000  Uiso   1.00
H2433  H     0.88696   0.90762   0.97827   0.00000  Uiso   1.00
H2434  H     0.84577   0.87051   0.96040   0.00000  Uiso   1.00
H2435  H     0.83580   0.93133   0.96965   0.00000  Uiso   1.00
H2436  H     0.63224   0.51542   0.77832   0.00000  Uiso   1.00
H2437  H     0.60420   0.54195   0.70018   0.00000  Uiso   1.00
H2438  H     0.65931   0.54327   0.71011   0.00000  Uiso   1.00
H2439  H     0.62821   0.59601   0.71338   0.00000  Uiso   1.00
H2440  H     0.63809   0.60042   0.94628   0.00000  Uiso   1.00
H2441  H     0.99782   0.66615   0.74737   0.00000  Uiso   1.00
H2442  H     0.58709   0.54129   0.92422   0.00000  Uiso   1.00
H2443  H     0.63096   0.51988   0.95669   0.00000  Uiso   1.00
H2444  H     0.63076   0.51226   0.89730   0.00000  Uiso   1.00
H2445  H     0.87343   0.98919   0.78777   0.00000  Uiso   1.00
H2446  H     0.90069   0.96901   0.70634   0.00000  Uiso   1.00
H2447  H     0.84562   0.97553   0.71858   0.00000  Uiso   1.00
H2448  H     0.86924   0.91831   0.71806   0.00000  Uiso   1.00
N2449  N     0.50000   0.75000   0.95240   0.00000  Uiso   1.00
N2450  N     0.73173   0.91966   0.95719   0.00000  Uiso   1.00
N2451  N     0.77294   0.92057   0.71397   0.00000  Uiso   1.00
N2452  N     0.77273   0.57964   0.95283   0.00000  Uiso   1.00
N2453  N     0.86117   0.71519   0.79756   0.00000  Uiso   1.00
N2454  N     0.56266   0.88160   0.90011   0.00000  Uiso   1.00
N2455  N     0.62459   0.81421   0.76298   0.00000  Uiso   1.00
N2456  N     0.94803   0.60669   0.88520   0.00000  Uiso   1.00
N2457  N     0.61985   0.68072   0.90274   0.00000  Uiso   1.00
N2458  N     0.94818   0.89016   0.77352   0.00000  Uiso   1.00
N2459  N     0.87722   0.81172   0.90071   0.00000  Uiso   1.00
N2460  N     0.50000   0.75000   0.71427   0.00000  Uiso   1.00
N2461  N     0.55763   0.61702   0.76624   0.00000  Uiso   1.00
N2462  N     0.62763   0.92772   0.76149   0.00000  Uiso   1.00
N2463  N     0.88158   0.54185   0.88524   0.00000  Uiso   1.00
N2464  N     0.81104   0.63823   0.77065   0.00000  Uiso   1.00
N2465  N     0.65255   0.89278   0.91581   0.00000  Uiso   1.00
N2466  N     0.87026   0.91837   0.91181   0.00000  Uiso   1.00
N2467  N     0.62112   0.54723   0.76739   0.00000  Uiso   1.00
N2468  N     0.64234   0.58058   0.91848   0.00000  Uiso   1.00
N2469  N     0.88373   0.95882   0.77368   0.00000  Uiso   1.00
N2470  N     0.75000   0.50000   0.95240   0.00000  Uiso   1.00
N2471  N     0.75000   0.50000   0.71427   0.00000  Uiso   1.00
N2472  N     0.50824   0.83314   0.71117   0.00000  Uiso   1.00
N2473  N     0.50352   0.66735   0.95332   0.00000  Uiso   1.00
N2474  N     0.98951   0.66681   0.71451   0.00000  Uiso   1.00
N2475  N     0.99487   0.83386   0.95182   0.00000  Uiso   1.00
N2476  N     0.74640   0.58378   0.71182   0.00000  Uiso   1.00
O2477  O     0.54581   0.70419   0.87154   0.00000  Uiso   1.00
O2478  O     0.70420   0.54581   0.79513   0.00000  Uiso   1.00
O2479  O     0.70420   0.54581   0.87154   0.00000  Uiso   1.00
O2480  O     0.79581   0.95419   0.79513   0.00000  Uiso   1.00
O2481  O     0.70420   0.95419   0.79513   0.00000  Uiso   1.00
O2482  O     0.79581   0.54581   0.87154   0.00000  Uiso   1.00
O2483  O     0.79581   0.54581   0.79513   0.00000  Uiso   1.00
O2484  O     0.70420   0.95419   0.87154   0.00000  Uiso   1.00
O2485  O     0.95420   0.79581   0.79513   0.00000  Uiso   1.00
O2486  O     0.95420   0.79581   0.87154   0.00000  Uiso   1.00
O2487  O     0.54581   0.70419   0.79513   0.00000  Uiso   1.00
O2488  O     0.95420   0.70419   0.79513   0.00000  Uiso   1.00
O2489  O     0.54581   0.79581   0.87154   0.00000  Uiso   1.00
O2490  O     0.54581   0.79581   0.79513   0.00000  Uiso   1.00
O2491  O     0.95420   0.70419   0.87154   0.00000  Uiso   1.00
O2492  O     0.79581   0.95419   0.87154   0.00000  Uiso   1.00
Zn2493 Zn    0.50000   0.75000   0.88437   0.00000  Uiso   1.00
Zn2494 Zn    0.50000   0.75000   0.78229   0.00000  Uiso   1.00
Zn2495 Zn    0.75000   0.50000   0.88437   0.00000  Uiso   1.00
Zn2496 Zn    0.75000   0.50000   0.78229   0.00000  Uiso   1.00
loop_
_geom_bond_atom_site_label_1
_geom_bond_atom_site_label_2
_geom_bond_distance
_geom_bond_site_symmetry_2
_ccdc_geom_bond_type
C1     O199    1.291   .     A
C1     C30     1.448   .     S
C1     O189    1.303   .     A
C2     N161    1.361   .     A
C2     N185    1.418   .     S
C2     C1043   1.432   1_455 S
C3     N186    1.418   .     S
C3     C1874   1.432   1_554 S
C3     N380    1.381   .     S
C4     N187    1.421   .     S
C4     C1104   1.426   .     S
C4     N369    1.374   .     S
C5     N188    1.424   .     S
C5     N183    1.378   .     A
C5     C1672   1.435   1_554 S
C6     N162    1.415   .     S
C6     C839    1.440   .     S
C6     N598    1.375   .     S
C7     N163    1.427   .     S
C7     C1670   1.440   1_554 S
C7     N599    1.372   .     S
C8     N164    1.428   .     S
C8     N182    1.375   .     A
C8     C837    1.435   .     S
C9     N165    1.431   .     S
C9     C20     1.393   .     A
C9     C28     1.399   .     A
C10    C27     1.399   .     A
C10    N166    1.421   .     S
C10    C21     1.382   .     A
C11    C18     1.399   .     A
C11    N167    1.438   .     S
C11    C27     1.413   .     A
C12    C29     1.438   .     S
C12    O197    1.294   .     A
C12    O198    1.295   .     A
C13    C28     1.406   .     A
C13    C19     1.396   .     A
C13    N168    1.427   .     S
C14    C30     1.407   .     A
C14    N169    1.431   .     S
C14    C25     1.387   .     A
C15    C29     1.415   .     A
C15    C26     1.400   .     A
C15    N170    1.423   .     S
C16    C22     1.387   .     A
C16    C29     1.405   .     A
C16    N171    1.424   .     S
C17    C30     1.424   .     A
C17    N173    1.422   .     S
C17    C24     1.400   .     A
C18    C32     1.414   .     A
C18    N174    1.428   .     S
C19    C31     1.407   .     A
C19    N175    1.426   .     S
C20    N176    1.420   .     S
C20    C31     1.409   .     A
C21    N177    1.420   .     S
C21    C32     1.408   .     A
C22    N178    1.427   .     S
C22    C35     1.400   .     A
C23    O200    1.294   .     A
C23    C28     1.426   .     S
C23    O203    1.289   .     A
C24    N179    1.430   .     S
C24    C33     1.398   .     A
C25    N180    1.433   .     S
C25    C33     1.406   .     A
C26    N181    1.427   .     S
C26    C35     1.401   .     A
C27    C34     1.433   .     S
C31    C63     1.442   .     S
C32    C62     1.446   .     S
C33    C56     1.443   .     S
C34    O201    1.297   .     A
C34    O202    1.290   .     A
C35    C45     1.439   .     S
C36    H87     1.113   .     S
C36    N184    1.448   .     S
C36    H76     1.108   .     S
C36    H98     1.106   .     S
C37    H142    1.112   .     S
C37    H131    1.110   .     S
C37    N185    1.449   .     S
C37    H120    1.106   .     S
C38    N186    1.451   .     S
C38    H68     1.109   .     S
C38    H66     1.112   .     S
C38    H67     1.110   .     S
C39    H72     1.108   .     S
C39    N187    1.447   .     S
C39    H71     1.112   .     S
C39    H70     1.109   .     S
C40    N188    1.448   .     S
C40    H75     1.111   .     S
C40    H74     1.108   .     S
C40    H77     1.107   .     S
C41    H80     1.088   .     S
C41    H81     1.105   .     S
C41    H79     1.103   .     S
C41    N162    1.445   .     S
C42    H84     1.094   .     S
C42    H85     1.111   .     S
C42    N163    1.443   .     S
C42    H83     1.101   .     S
C43    H89     1.096   .     S
C43    H88     1.108   .     S
C43    N164    1.447   .     S
C43    H90     1.110   .     S
C44    N165    1.447   .     S
C44    H93     1.105   .     S
C44    H92     1.110   .     S
C44    H94     1.110   .     S
C45    O192    1.301   .     A
C45    O204    1.289   .     A
C46    H99     1.110   .     S
C46    H96     1.108   .     S
C46    H97     1.110   .     S
C46    N166    1.448   .     S
C47    H101    1.111   .     S
C47    H102    1.098   .     S
C47    H103    1.111   .     S
C47    N167    1.445   .     S
C48    H107    1.111   .     S
C48    H106    1.107   .     S
C48    N168    1.442   .     S
C48    H313    1.109   .     S
C49    N169    1.447   .     S
C49    H111    1.109   .     S
C49    H112    1.110   .     S
C49    H110    1.112   .     S
C50    H114    1.112   .     S
C50    N170    1.447   .     S
C50    H116    1.110   .     S
C50    H323    1.109   .     S
C51    H118    1.108   .     S
C51    H119    1.110   .     S
C51    H121    1.109   .     S
C51    N171    1.445   .     S
C52    H123    1.108   .     S
C52    H125    1.112   .     S
C52    N173    1.455   .     S
C52    H332    1.106   1_455 S
C53    H127    1.105   .     S
C53    N174    1.444   .     S
C53    H128    1.100   .     S
C53    H129    1.109   .     S
C54    H134    1.111   .     S
C54    H133    1.112   .     S
C54    N175    1.452   .     S
C54    H132    1.109   .     S
C55    H138    1.106   .     S
C55    H136    1.108   .     S
C55    H137    1.110   .     S
C55    N176    1.452   .     S
C56    O191    1.285   .     A
C56    O190    1.306   .     A
C57    H143    1.108   .     S
C57    H140    1.106   .     S
C57    H141    1.111   .     S
C57    N177    1.459   .     S
C58    H145    1.103   .     S
C58    N178    1.439   .     S
C58    H147    1.107   .     S
C58    H146    1.104   .     S
C59    H149    1.108   .     S
C59    H150    1.108   .     S
C59    H151    1.109   .     S
C59    N179    1.446   .     S
C60    H154    1.111   .     S
C60    H156    1.110   .     S
C60    N180    1.450   .     S
C60    H155    1.110   .     S
C61    H159    1.110   .     S
C61    H160    1.110   .     S
C61    N181    1.444   .     S
C61    H158    1.110   .     S
C62    O196    1.301   .     A
C62    O193    1.294   .     A
C63    O194    1.297   .     A
C63    O195    1.294   .     A
C64    N172    1.370   .     A
C64    N184    1.418   .     S
C64    C1876   1.426   1_454 S
H65    N184    1.019   .     S
H69    N187    1.018   .     S
H73    N188    1.019   .     S
H78    N162    1.024   .     S
H82    N163    1.026   .     S
H86    N164    1.030   .     S
H91    N165    1.031   .     S
H95    N166    1.029   .     S
H100   N167    1.029   .     S
H104   N168    1.029   .     S
H105   C256    1.109   1_455 S
H108   N169    1.027   .     S
H109   N393    1.027   .     S
H113   N170    1.029   .     S
H115   C258    1.109   1_455 S
H117   N171    1.028   .     S
H122   N173    1.030   .     S
H124   C260    1.106   .     S
H126   N174    1.032   .     S
H130   N175    1.032   .     S
H135   N176    1.031   .     S
H139   N177    1.031   .     S
H144   N178    1.028   .     S
H148   N179    1.029   .     S
H152   N180    1.027   .     S
H153   N186    1.019   .     S
H157   N181    1.032   .     S
N161   Zn205   2.031   .     S
N161   C212    1.374   1_455 S
N172   Zn206   2.031   .     S
N172   C211    1.381   1_455 S
N182   Zn207   2.031   .     S
N182   C422    1.375   1_545 S
N183   Zn208   2.031   .     S
N183   C423    1.372   1_545 S
N185   H317    1.027   1_455 S
O189   Zn205   2.003   .     S
O190   Zn208   2.003   .     S
O191   Zn207   1.997   .     S
O192   Zn624   1.997   .     S
O193   Zn624   2.006   .     S
O194   Zn207   2.006   .     S
O195   Zn208   2.025   .     S
O196   Zn623   2.025   .     S
O197   Zn414   2.003   .     S
O198   Zn413   1.997   .     S
O199   Zn206   1.997   .     S
O200   Zn414   2.006   .     S
O201   Zn205   2.006   .     S
O202   Zn206   2.025   .     S
O203   Zn413   2.025   .     S
O204   Zn623   2.003   .     S
Zn205  O411    2.025   1_455 S
Zn205  O406    1.997   1_455 S
Zn206  O408    2.006   1_455 S
Zn206  O405    2.003   1_455 S
Zn207  O612    2.025   1_545 S
Zn207  O620    2.003   1_545 S
Zn208  O609    2.006   1_545 S
Zn208  O608    1.997   1_545 S
C209   O407    1.291   .     A
C209   C238    1.448   .     S
C209   O397    1.303   .     A
C210   N369    1.361   .     A
C210   N393    1.418   .     S
C210   C835    1.432   .     S
C211   N394    1.418   .     S
C211   C1666   1.432   1_654 S
C211   N172    1.381   1_655 S
C212   N395    1.421   .     S
C212   C896    1.426   1_655 S
C212   N161    1.374   1_655 S
C213   N396    1.424   .     S
C213   N391    1.378   .     A
C213   C1880   1.435   1_554 S
C214   N370    1.415   .     S
C214   C1047   1.440   .     S
C214   N806    1.375   .     S
C215   N371    1.427   .     S
C215   C1878   1.440   1_554 S
C215   N807    1.372   .     S
C216   N372    1.428   .     S
C216   N390    1.375   .     A
C216   C1045   1.435   .     S
C217   N373    1.431   .     S
C217   C228    1.393   .     A
C217   C236    1.399   .     A
C218   C235    1.399   .     A
C218   N374    1.421   .     S
C218   C229    1.382   .     A
C219   C226    1.399   .     A
C219   N375    1.438   .     S
C219   C235    1.413   .     A
C220   C237    1.438   .     S
C220   O405    1.294   .     A
C220   O406    1.295   .     A
C221   C236    1.406   .     A
C221   C227    1.396   .     A
C221   N376    1.427   .     S
C222   C238    1.407   .     A
C222   N377    1.431   .     S
C222   C233    1.387   .     A
C223   C237    1.415   .     A
C223   C234    1.400   .     A
C223   N378    1.423   .     S
C224   C230    1.387   .     A
C224   C237    1.405   .     A
C224   N379    1.424   .     S
C225   C238    1.424   .     A
C225   N381    1.422   .     S
C225   C232    1.400   .     A
C226   C240    1.414   .     A
C226   N382    1.428   .     S
C227   C239    1.407   .     A
C227   N383    1.426   .     S
C228   N384    1.420   .     S
C228   C239    1.409   .     A
C229   N385    1.420   .     S
C229   C240    1.408   .     A
C230   N386    1.427   .     S
C230   C243    1.400   .     A
C231   O408    1.294   .     A
C231   C236    1.426   .     S
C231   O411    1.289   .     A
C232   N387    1.430   .     S
C232   C241    1.398   .     A
C233   N388    1.433   .     S
C233   C241    1.406   .     A
C234   N389    1.427   .     S
C234   C243    1.401   .     A
C235   C242    1.433   .     S
C239   C271    1.442   .     S
C240   C270    1.446   .     S
C241   C264    1.443   .     S
C242   O409    1.297   .     A
C242   O410    1.290   .     A
C243   C253    1.439   .     S
C244   H295    1.113   .     S
C244   N392    1.448   .     S
C244   H284    1.108   .     S
C244   H306    1.106   .     S
C245   H350    1.112   .     S
C245   H339    1.110   .     S
C245   N393    1.449   .     S
C245   H328    1.106   .     S
C246   N394    1.451   .     S
C246   H276    1.109   .     S
C246   H274    1.112   .     S
C246   H275    1.110   .     S
C247   H280    1.108   .     S
C247   N395    1.447   .     S
C247   H279    1.112   .     S
C247   H278    1.109   .     S
C248   N396    1.448   .     S
C248   H283    1.111   .     S
C248   H282    1.108   .     S
C248   H285    1.107   .     S
C249   H288    1.088   .     S
C249   H289    1.105   .     S
C249   H287    1.103   .     S
C249   N370    1.445   .     S
C250   H292    1.094   .     S
C250   H293    1.111   .     S
C250   N371    1.443   .     S
C250   H291    1.101   .     S
C251   H297    1.096   .     S
C251   H296    1.108   .     S
C251   N372    1.447   .     S
C251   H298    1.110   .     S
C252   N373    1.447   .     S
C252   H301    1.105   .     S
C252   H300    1.110   .     S
C252   H302    1.110   .     S
C253   O400    1.301   .     A
C253   O412    1.289   .     A
C254   H307    1.110   .     S
C254   H304    1.108   .     S
C254   H305    1.110   .     S
C254   N374    1.448   .     S
C255   H309    1.111   .     S
C255   H310    1.098   .     S
C255   H311    1.111   .     S
C255   N375    1.445   .     S
C256   H315    1.111   .     S
C256   H314    1.107   .     S
C256   N376    1.442   .     S
C256   H105    1.109   1_655 S
C257   N377    1.447   .     S
C257   H319    1.109   .     S
C257   H320    1.110   .     S
C257   H318    1.112   .     S
C258   H322    1.112   .     S
C258   N378    1.447   .     S
C258   H324    1.110   .     S
C258   H115    1.109   1_655 S
C259   H326    1.108   .     S
C259   H327    1.110   .     S
C259   H329    1.109   .     S
C259   N379    1.445   .     S
C260   H331    1.108   .     S
C260   H333    1.112   .     S
C260   N381    1.455   .     S
C261   H335    1.105   .     S
C261   N382    1.444   .     S
C261   H336    1.100   .     S
C261   H337    1.109   .     S
C262   H342    1.111   .     S
C262   H341    1.112   .     S
C262   N383    1.452   .     S
C262   H340    1.109   .     S
C263   H346    1.106   .     S
C263   H344    1.108   .     S
C263   H345    1.110   .     S
C263   N384    1.452   .     S
C264   O399    1.285   .     A
C264   O398    1.306   .     A
C265   H351    1.108   .     S
C265   H348    1.106   .     S
C265   H349    1.111   .     S
C265   N385    1.459   .     S
C266   H353    1.103   .     S
C266   N386    1.439   .     S
C266   H355    1.107   .     S
C266   H354    1.104   .     S
C267   H357    1.108   .     S
C267   H358    1.108   .     S
C267   H359    1.109   .     S
C267   N387    1.446   .     S
C268   H362    1.111   .     S
C268   H364    1.110   .     S
C268   N388    1.450   .     S
C268   H363    1.110   .     S
C269   H367    1.110   .     S
C269   H368    1.110   .     S
C269   N389    1.444   .     S
C269   H366    1.110   .     S
C270   O404    1.301   .     A
C270   O401    1.294   .     A
C271   O402    1.297   .     A
C271   O403    1.294   .     A
C272   N380    1.370   .     A
C272   N392    1.418   .     S
C272   C1668   1.426   1_554 S
H273   N392    1.019   .     S
H277   N395    1.018   .     S
H281   N396    1.019   .     S
H286   N370    1.024   .     S
H290   N371    1.026   .     S
H294   N372    1.030   .     S
H299   N373    1.031   .     S
H303   N374    1.029   .     S
H308   N375    1.029   .     S
H312   N376    1.029   .     S
H316   N377    1.027   .     S
H317   N185    1.027   1_655 S
H321   N378    1.029   .     S
H325   N379    1.028   .     S
H330   N381    1.030   .     S
H332   C52     1.106   1_655 S
H334   N382    1.032   .     S
H338   N383    1.032   .     S
H343   N384    1.031   .     S
H347   N385    1.031   .     S
H352   N386    1.028   .     S
H356   N387    1.029   .     S
H360   N388    1.027   .     S
H361   N394    1.019   .     S
H365   N389    1.032   .     S
N369   Zn413   2.031   .     S
N380   Zn414   2.031   .     S
N390   Zn415   2.031   .     S
N390   C630    1.375   1_545 S
N391   Zn416   2.031   .     S
N391   C631    1.372   1_545 S
O397   Zn413   2.003   .     S
O398   Zn416   2.003   .     S
O399   Zn415   1.997   .     S
O400   Zn832   1.997   .     S
O401   Zn832   2.006   .     S
O402   Zn415   2.006   .     S
O403   Zn416   2.025   .     S
O404   Zn831   2.025   .     S
O405   Zn206   2.003   1_655 S
O406   Zn205   1.997   1_655 S
O407   Zn414   1.997   .     S
O408   Zn206   2.006   1_655 S
O409   Zn413   2.006   .     S
O410   Zn414   2.025   .     S
O411   Zn205   2.025   1_655 S
O412   Zn831   2.003   .     S
Zn415  O820    2.025   1_545 S
Zn415  O828    2.003   1_545 S
Zn416  O817    2.006   1_545 S
Zn416  O816    1.997   1_545 S
C417   O615    1.291   .     A
C417   C446    1.448   .     S
C417   O605    1.303   .     A
C418   N577    1.361   .     A
C418   N601    1.418   .     S
C418   C1459   1.432   1_455 S
C419   N602    1.418   .     S
C419   C2290   1.432   1_554 S
C419   N796    1.381   .     S
C420   N603    1.421   .     S
C420   C1520   1.426   .     S
C420   N785    1.374   .     S
C421   N604    1.424   .     S
C421   N599    1.378   .     A
C421   C2088   1.435   1_554 S
C422   N578    1.415   .     S
C422   C1255   1.440   .     S
C422   N182    1.375   1_565 S
C423   N579    1.427   .     S
C423   C2086   1.440   1_554 S
C423   N183    1.372   1_565 S
C424   N580    1.428   .     S
C424   N598    1.375   .     A
C424   C1253   1.435   .     S
C425   N581    1.431   .     S
C425   C436    1.393   .     A
C425   C444    1.399   .     A
C426   C443    1.399   .     A
C426   N582    1.421   .     S
C426   C437    1.382   .     A
C427   C434    1.399   .     A
C427   N583    1.438   .     S
C427   C443    1.413   .     A
C428   C445    1.438   .     S
C428   O613    1.294   .     A
C428   O614    1.295   .     A
C429   C444    1.406   .     A
C429   C435    1.396   .     A
C429   N584    1.427   .     S
C430   C446    1.407   .     A
C430   N585    1.431   .     S
C430   C441    1.387   .     A
C431   C445    1.415   .     A
C431   C442    1.400   .     A
C431   N586    1.423   .     S
C432   C438    1.387   .     A
C432   C445    1.405   .     A
C432   N587    1.424   .     S
C433   C446    1.424   .     A
C433   N589    1.422   .     S
C433   C440    1.400   .     A
C434   C448    1.414   .     A
C434   N590    1.428   .     S
C435   C447    1.407   .     A
C435   N591    1.426   .     S
C436   N592    1.420   .     S
C436   C447    1.409   .     A
C437   N593    1.420   .     S
C437   C448    1.408   .     A
C438   N594    1.427   .     S
C438   C451    1.400   .     A
C439   O616    1.294   .     A
C439   C444    1.426   .     S
C439   O619    1.289   .     A
C440   N595    1.430   .     S
C440   C449    1.398   .     A
C441   N596    1.433   .     S
C441   C449    1.406   .     A
C442   N597    1.427   .     S
C442   C451    1.401   .     A
C443   C450    1.433   .     S
C447   C479    1.442   .     S
C448   C478    1.446   .     S
C449   C472    1.443   .     S
C450   O617    1.297   .     A
C450   O618    1.290   .     A
C451   C461    1.439   .     S
C452   H503    1.113   .     S
C452   N600    1.448   .     S
C452   H492    1.108   .     S
C452   H514    1.106   .     S
C453   H558    1.112   .     S
C453   H547    1.110   .     S
C453   N601    1.449   .     S
C453   H536    1.106   .     S
C454   N602    1.451   .     S
C454   H484    1.109   .     S
C454   H482    1.112   .     S
C454   H483    1.110   .     S
C455   H488    1.108   .     S
C455   N603    1.447   .     S
C455   H487    1.112   .     S
C455   H486    1.109   .     S
C456   N604    1.448   .     S
C456   H491    1.111   .     S
C456   H490    1.108   .     S
C456   H493    1.107   .     S
C457   H496    1.088   .     S
C457   H497    1.105   .     S
C457   H495    1.103   .     S
C457   N578    1.445   .     S
C458   H500    1.094   .     S
C458   H501    1.111   .     S
C458   N579    1.443   .     S
C458   H499    1.101   .     S
C459   H505    1.096   .     S
C459   H504    1.108   .     S
C459   N580    1.447   .     S
C459   H506    1.110   .     S
C460   N581    1.447   .     S
C460   H509    1.105   .     S
C460   H508    1.110   .     S
C460   H510    1.110   .     S
C461   O608    1.301   .     A
C461   O620    1.289   .     A
C462   H515    1.110   .     S
C462   H512    1.108   .     S
C462   H513    1.110   .     S
C462   N582    1.448   .     S
C463   H517    1.111   .     S
C463   H518    1.098   .     S
C463   H519    1.111   .     S
C463   N583    1.445   .     S
C464   H523    1.111   .     S
C464   H522    1.107   .     S
C464   N584    1.442   .     S
C464   H729    1.109   .     S
C465   N585    1.447   .     S
C465   H527    1.109   .     S
C465   H528    1.110   .     S
C465   H526    1.112   .     S
C466   H530    1.112   .     S
C466   N586    1.447   .     S
C466   H532    1.110   .     S
C466   H739    1.109   .     S
C467   H534    1.108   .     S
C467   H535    1.110   .     S
C467   H537    1.109   .     S
C467   N587    1.445   .     S
C468   H539    1.108   .     S
C468   H541    1.112   .     S
C468   N589    1.455   .     S
C468   H748    1.106   1_455 S
C469   H543    1.105   .     S
C469   N590    1.444   .     S
C469   H544    1.100   .     S
C469   H545    1.109   .     S
C470   H550    1.111   .     S
C470   H549    1.112   .     S
C470   N591    1.452   .     S
C470   H548    1.109   .     S
C471   H554    1.106   .     S
C471   H552    1.108   .     S
C471   H553    1.110   .     S
C471   N592    1.452   .     S
C472   O607    1.285   .     A
C472   O606    1.306   .     A
C473   H559    1.108   .     S
C473   H556    1.106   .     S
C473   H557    1.111   .     S
C473   N593    1.459   .     S
C474   H561    1.103   .     S
C474   N594    1.439   .     S
C474   H563    1.107   .     S
C474   H562    1.104   .     S
C475   H565    1.108   .     S
C475   H566    1.108   .     S
C475   H567    1.109   .     S
C475   N595    1.446   .     S
C476   H570    1.111   .     S
C476   H572    1.110   .     S
C476   N596    1.450   .     S
C476   H571    1.110   .     S
C477   H575    1.110   .     S
C477   H576    1.110   .     S
C477   N597    1.444   .     S
C477   H574    1.110   .     S
C478   O612    1.301   .     A
C478   O609    1.294   .     A
C479   O610    1.297   .     A
C479   O611    1.294   .     A
C480   N588    1.370   .     A
C480   N600    1.418   .     S
C480   C2292   1.426   1_454 S
H481   N600    1.019   .     S
H485   N603    1.018   .     S
H489   N604    1.019   .     S
H494   N578    1.024   .     S
H498   N579    1.026   .     S
H502   N580    1.030   .     S
H507   N581    1.031   .     S
H511   N582    1.029   .     S
H516   N583    1.029   .     S
H520   N584    1.029   .     S
H521   C672    1.109   1_455 S
H524   N585    1.027   .     S
H525   N809    1.027   .     S
H529   N586    1.029   .     S
H531   C674    1.109   1_455 S
H533   N587    1.028   .     S
H538   N589    1.030   .     S
H540   C676    1.106   .     S
H542   N590    1.032   .     S
H546   N591    1.032   .     S
H551   N592    1.031   .     S
H555   N593    1.031   .     S
H560   N594    1.028   .     S
H564   N595    1.029   .     S
H568   N596    1.027   .     S
H569   N602    1.019   .     S
H573   N597    1.032   .     S
N577   Zn621   2.031   .     S
N577   C628    1.374   1_455 S
N588   Zn622   2.031   .     S
N588   C627    1.381   1_455 S
N598   Zn623   2.031   .     S
N599   Zn624   2.031   .     S
N601   H733    1.027   1_455 S
O605   Zn621   2.003   .     S
O606   Zn624   2.003   .     S
O607   Zn623   1.997   .     S
O608   Zn208   1.997   1_565 S
O609   Zn208   2.006   1_565 S
O610   Zn623   2.006   .     S
O611   Zn624   2.025   .     S
O612   Zn207   2.025   1_565 S
O613   Zn830   2.003   .     S
O614   Zn829   1.997   .     S
O615   Zn622   1.997   .     S
O616   Zn830   2.006   .     S
O617   Zn621   2.006   .     S
O618   Zn622   2.025   .     S
O619   Zn829   2.025   .     S
O620   Zn207   2.003   1_565 S
Zn621  O827    2.025   1_455 S
Zn621  O822    1.997   1_455 S
Zn622  O824    2.006   1_455 S
Zn622  O821    2.003   1_455 S
C625   O823    1.291   .     A
C625   C654    1.448   .     S
C625   O813    1.303   .     A
C626   N785    1.361   .     A
C626   N809    1.418   .     S
C626   C1251   1.432   .     S
C627   N810    1.418   .     S
C627   C2082   1.432   1_654 S
C627   N588    1.381   1_655 S
C628   N811    1.421   .     S
C628   C1312   1.426   1_655 S
C628   N577    1.374   1_655 S
C629   N812    1.424   .     S
C629   N807    1.378   .     A
C629   C2296   1.435   1_554 S
C630   N786    1.415   .     S
C630   C1463   1.440   .     S
C630   N390    1.375   1_565 S
C631   N787    1.427   .     S
C631   C2294   1.440   1_554 S
C631   N391    1.372   1_565 S
C632   N788    1.428   .     S
C632   N806    1.375   .     A
C632   C1461   1.435   .     S
C633   N789    1.431   .     S
C633   C644    1.393   .     A
C633   C652    1.399   .     A
C634   C651    1.399   .     A
C634   N790    1.421   .     S
C634   C645    1.382   .     A
C635   C642    1.399   .     A
C635   N791    1.438   .     S
C635   C651    1.413   .     A
C636   C653    1.438   .     S
C636   O821    1.294   .     A
C636   O822    1.295   .     A
C637   C652    1.406   .     A
C637   C643    1.396   .     A
C637   N792    1.427   .     S
C638   C654    1.407   .     A
C638   N793    1.431   .     S
C638   C649    1.387   .     A
C639   C653    1.415   .     A
C639   C650    1.400   .     A
C639   N794    1.423   .     S
C640   C646    1.387   .     A
C640   C653    1.405   .     A
C640   N795    1.424   .     S
C641   C654    1.424   .     A
C641   N797    1.422   .     S
C641   C648    1.400   .     A
C642   C656    1.414   .     A
C642   N798    1.428   .     S
C643   C655    1.407   .     A
C643   N799    1.426   .     S
C644   N800    1.420   .     S
C644   C655    1.409   .     A
C645   N801    1.420   .     S
C645   C656    1.408   .     A
C646   N802    1.427   .     S
C646   C659    1.400   .     A
C647   O824    1.294   .     A
C647   C652    1.426   .     S
C647   O827    1.289   .     A
C648   N803    1.430   .     S
C648   C657    1.398   .     A
C649   N804    1.433   .     S
C649   C657    1.406   .     A
C650   N805    1.427   .     S
C650   C659    1.401   .     A
C651   C658    1.433   .     S
C655   C687    1.442   .     S
C656   C686    1.446   .     S
C657   C680    1.443   .     S
C658   O825    1.297   .     A
C658   O826    1.290   .     A
C659   C669    1.439   .     S
C660   H711    1.113   .     S
C660   N808    1.448   .     S
C660   H700    1.108   .     S
C660   H722    1.106   .     S
C661   H766    1.112   .     S
C661   H755    1.110   .     S
C661   N809    1.449   .     S
C661   H744    1.106   .     S
C662   N810    1.451   .     S
C662   H692    1.109   .     S
C662   H690    1.112   .     S
C662   H691    1.110   .     S
C663   H696    1.108   .     S
C663   N811    1.447   .     S
C663   H695    1.112   .     S
C663   H694    1.109   .     S
C664   N812    1.448   .     S
C664   H699    1.111   .     S
C664   H698    1.108   .     S
C664   H701    1.107   .     S
C665   H704    1.088   .     S
C665   H705    1.105   .     S
C665   H703    1.103   .     S
C665   N786    1.445   .     S
C666   H708    1.094   .     S
C666   H709    1.111   .     S
C666   N787    1.443   .     S
C666   H707    1.101   .     S
C667   H713    1.096   .     S
C667   H712    1.108   .     S
C667   N788    1.447   .     S
C667   H714    1.110   .     S
C668   N789    1.447   .     S
C668   H717    1.105   .     S
C668   H716    1.110   .     S
C668   H718    1.110   .     S
C669   O816    1.301   .     A
C669   O828    1.289   .     A
C670   H723    1.110   .     S
C670   H720    1.108   .     S
C670   H721    1.110   .     S
C670   N790    1.448   .     S
C671   H725    1.111   .     S
C671   H726    1.098   .     S
C671   H727    1.111   .     S
C671   N791    1.445   .     S
C672   H731    1.111   .     S
C672   H730    1.107   .     S
C672   N792    1.442   .     S
C672   H521    1.109   1_655 S
C673   N793    1.447   .     S
C673   H735    1.109   .     S
C673   H736    1.110   .     S
C673   H734    1.112   .     S
C674   H738    1.112   .     S
C674   N794    1.447   .     S
C674   H740    1.110   .     S
C674   H531    1.109   1_655 S
C675   H742    1.108   .     S
C675   H743    1.110   .     S
C675   H745    1.109   .     S
C675   N795    1.445   .     S
C676   H747    1.108   .     S
C676   H749    1.112   .     S
C676   N797    1.455   .     S
C677   H751    1.105   .     S
C677   N798    1.444   .     S
C677   H752    1.100   .     S
C677   H753    1.109   .     S
C678   H758    1.111   .     S
C678   H757    1.112   .     S
C678   N799    1.452   .     S
C678   H756    1.109   .     S
C679   H762    1.106   .     S
C679   H760    1.108   .     S
C679   H761    1.110   .     S
C679   N800    1.452   .     S
C680   O815    1.285   .     A
C680   O814    1.306   .     A
C681   H767    1.108   .     S
C681   H764    1.106   .     S
C681   H765    1.111   .     S
C681   N801    1.459   .     S
C682   H769    1.103   .     S
C682   N802    1.439   .     S
C682   H771    1.107   .     S
C682   H770    1.104   .     S
C683   H773    1.108   .     S
C683   H774    1.108   .     S
C683   H775    1.109   .     S
C683   N803    1.446   .     S
C684   H778    1.111   .     S
C684   H780    1.110   .     S
C684   N804    1.450   .     S
C684   H779    1.110   .     S
C685   H783    1.110   .     S
C685   H784    1.110   .     S
C685   N805    1.444   .     S
C685   H782    1.110   .     S
C686   O820    1.301   .     A
C686   O817    1.294   .     A
C687   O818    1.297   .     A
C687   O819    1.294   .     A
C688   N796    1.370   .     A
C688   N808    1.418   .     S
C688   C2084   1.426   1_554 S
H689   N808    1.019   .     S
H693   N811    1.018   .     S
H697   N812    1.019   .     S
H702   N786    1.024   .     S
H706   N787    1.026   .     S
H710   N788    1.030   .     S
H715   N789    1.031   .     S
H719   N790    1.029   .     S
H724   N791    1.029   .     S
H728   N792    1.029   .     S
H732   N793    1.027   .     S
H733   N601    1.027   1_655 S
H737   N794    1.029   .     S
H741   N795    1.028   .     S
H746   N797    1.030   .     S
H748   C468    1.106   1_655 S
H750   N798    1.032   .     S
H754   N799    1.032   .     S
H759   N800    1.031   .     S
H763   N801    1.031   .     S
H768   N802    1.028   .     S
H772   N803    1.029   .     S
H776   N804    1.027   .     S
H777   N810    1.019   .     S
H781   N805    1.032   .     S
N785   Zn829   2.031   .     S
N796   Zn830   2.031   .     S
N806   Zn831   2.031   .     S
N807   Zn832   2.031   .     S
O813   Zn829   2.003   .     S
O814   Zn832   2.003   .     S
O815   Zn831   1.997   .     S
O816   Zn416   1.997   1_565 S
O817   Zn416   2.006   1_565 S
O818   Zn831   2.006   .     S
O819   Zn832   2.025   .     S
O820   Zn415   2.025   1_565 S
O821   Zn622   2.003   1_655 S
O822   Zn621   1.997   1_655 S
O823   Zn830   1.997   .     S
O824   Zn622   2.006   1_655 S
O825   Zn829   2.006   .     S
O826   Zn830   2.025   .     S
O827   Zn621   2.025   1_655 S
O828   Zn415   2.003   1_565 S
C833   O1031   1.291   .     A
C833   C862    1.448   .     S
C833   O1021   1.303   .     A
C834   N993    1.361   .     A
C834   N1017   1.418   .     S
C834   C1875   1.432   1_455 S
C835   N1018   1.418   .     S
C835   N1212   1.381   .     S
C836   N1019   1.421   .     S
C836   C1936   1.426   .     S
C836   N1201   1.374   .     S
C837   N1020   1.424   .     S
C837   N1015   1.378   .     A
C838   N994    1.415   .     S
C838   C1671   1.440   .     S
C838   N1430   1.375   .     S
C839   N995    1.427   .     S
C839   N1431   1.372   .     S
C840   N996    1.428   .     S
C840   N1014   1.375   .     A
C840   C1669   1.435   .     S
C841   N997    1.431   .     S
C841   C852    1.393   .     A
C841   C860    1.399   .     A
C842   C859    1.399   .     A
C842   N998    1.421   .     S
C842   C853    1.382   .     A
C843   C850    1.399   .     A
C843   N999    1.438   .     S
C843   C859    1.413   .     A
C844   C861    1.438   .     S
C844   O1029   1.294   .     A
C844   O1030   1.295   .     A
C845   C860    1.406   .     A
C845   C851    1.396   .     A
C845   N1000   1.427   .     S
C846   C862    1.407   .     A
C846   N1001   1.431   .     S
C846   C857    1.387   .     A
C847   C861    1.415   .     A
C847   C858    1.400   .     A
C847   N1002   1.423   .     S
C848   C854    1.387   .     A
C848   C861    1.405   .     A
C848   N1003   1.424   .     S
C849   C862    1.424   .     A
C849   N1005   1.422   .     S
C849   C856    1.400   .     A
C850   C864    1.414   .     A
C850   N1006   1.428   .     S
C851   C863    1.407   .     A
C851   N1007   1.426   .     S
C852   N1008   1.420   .     S
C852   C863    1.409   .     A
C853   N1009   1.420   .     S
C853   C864    1.408   .     A
C854   N1010   1.427   .     S
C854   C867    1.400   .     A
C855   O1032   1.294   .     A
C855   C860    1.426   .     S
C855   O1035   1.289   .     A
C856   N1011   1.430   .     S
C856   C865    1.398   .     A
C857   N1012   1.433   .     S
C857   C865    1.406   .     A
C858   N1013   1.427   .     S
C858   C867    1.401   .     A
C859   C866    1.433   .     S
C863   C895    1.442   .     S
C864   C894    1.446   .     S
C865   C888    1.443   .     S
C866   O1033   1.297   .     A
C866   O1034   1.290   .     A
C867   C877    1.439   .     S
C868   H919    1.113   .     S
C868   N1016   1.448   .     S
C868   H908    1.108   .     S
C868   H930    1.106   .     S
C869   H974    1.112   .     S
C869   H963    1.110   .     S
C869   N1017   1.449   .     S
C869   H952    1.106   .     S
C870   N1018   1.451   .     S
C870   H900    1.109   .     S
C870   H898    1.112   .     S
C870   H899    1.110   .     S
C871   H904    1.108   .     S
C871   N1019   1.447   .     S
C871   H903    1.112   .     S
C871   H902    1.109   .     S
C872   N1020   1.448   .     S
C872   H907    1.111   .     S
C872   H906    1.108   .     S
C872   H909    1.107   .     S
C873   H912    1.088   .     S
C873   H913    1.105   .     S
C873   H911    1.103   .     S
C873   N994    1.445   .     S
C874   H916    1.094   .     S
C874   H917    1.111   .     S
C874   N995    1.443   .     S
C874   H915    1.101   .     S
C875   H921    1.096   .     S
C875   H920    1.108   .     S
C875   N996    1.447   .     S
C875   H922    1.110   .     S
C876   N997    1.447   .     S
C876   H925    1.105   .     S
C876   H924    1.110   .     S
C876   H926    1.110   .     S
C877   O1024   1.301   .     A
C877   O1036   1.289   .     A
C878   H931    1.110   .     S
C878   H928    1.108   .     S
C878   H929    1.110   .     S
C878   N998    1.448   .     S
C879   H933    1.111   .     S
C879   H934    1.098   .     S
C879   H935    1.111   .     S
C879   N999    1.445   .     S
C880   H939    1.111   .     S
C880   H938    1.107   .     S
C880   N1000   1.442   .     S
C880   H1145   1.109   .     S
C881   N1001   1.447   .     S
C881   H943    1.109   .     S
C881   H944    1.110   .     S
C881   H942    1.112   .     S
C882   H946    1.112   .     S
C882   N1002   1.447   .     S
C882   H948    1.110   .     S
C882   H1155   1.109   .     S
C883   H950    1.108   .     S
C883   H951    1.110   .     S
C883   H953    1.109   .     S
C883   N1003   1.445   .     S
C884   H955    1.108   .     S
C884   H957    1.112   .     S
C884   N1005   1.455   .     S
C884   H1164   1.106   1_455 S
C885   H959    1.105   .     S
C885   N1006   1.444   .     S
C885   H960    1.100   .     S
C885   H961    1.109   .     S
C886   H966    1.111   .     S
C886   H965    1.112   .     S
C886   N1007   1.452   .     S
C886   H964    1.109   .     S
C887   H970    1.106   .     S
C887   H968    1.108   .     S
C887   H969    1.110   .     S
C887   N1008   1.452   .     S
C888   O1023   1.285   .     A
C888   O1022   1.306   .     A
C889   H975    1.108   .     S
C889   H972    1.106   .     S
C889   H973    1.111   .     S
C889   N1009   1.459   .     S
C890   H977    1.103   .     S
C890   N1010   1.439   .     S
C890   H979    1.107   .     S
C890   H978    1.104   .     S
C891   H981    1.108   .     S
C891   H982    1.108   .     S
C891   H983    1.109   .     S
C891   N1011   1.446   .     S
C892   H986    1.111   .     S
C892   H988    1.110   .     S
C892   N1012   1.450   .     S
C892   H987    1.110   .     S
C893   H991    1.110   .     S
C893   H992    1.110   .     S
C893   N1013   1.444   .     S
C893   H990    1.110   .     S
C894   O1028   1.301   .     A
C894   O1025   1.294   .     A
C895   O1026   1.297   .     A
C895   O1027   1.294   .     A
C896   N1004   1.370   .     A
C896   N1016   1.418   .     S
C896   C212    1.426   1_455 S
H897   N1016   1.019   .     S
H901   N1019   1.018   .     S
H905   N1020   1.019   .     S
H910   N994    1.024   .     S
H914   N995    1.026   .     S
H918   N996    1.030   .     S
H923   N997    1.031   .     S
H927   N998    1.029   .     S
H932   N999    1.029   .     S
H936   N1000   1.029   .     S
H937   C1088   1.109   1_455 S
H940   N1001   1.027   .     S
H941   N1225   1.027   .     S
H945   N1002   1.029   .     S
H947   C1090   1.109   1_455 S
H949   N1003   1.028   .     S
H954   N1005   1.030   .     S
H956   C1092   1.106   .     S
H958   N1006   1.032   .     S
H962   N1007   1.032   .     S
H967   N1008   1.031   .     S
H971   N1009   1.031   .     S
H976   N1010   1.028   .     S
H980   N1011   1.029   .     S
H984   N1012   1.027   .     S
H985   N1018   1.019   .     S
H989   N1013   1.032   .     S
N993   Zn1037  2.031   .     S
N993   C1044   1.374   1_455 S
N1004  Zn1038  2.031   .     S
N1004  C1043   1.381   1_455 S
N1014  Zn1039  2.031   .     S
N1014  C1254   1.375   1_545 S
N1015  Zn1040  2.031   .     S
N1015  C1255   1.372   1_545 S
N1017  H1149   1.027   1_455 S
O1021  Zn1037  2.003   .     S
O1022  Zn1040  2.003   .     S
O1023  Zn1039  1.997   .     S
O1024  Zn1456  1.997   .     S
O1025  Zn1456  2.006   .     S
O1026  Zn1039  2.006   .     S
O1027  Zn1040  2.025   .     S
O1028  Zn1455  2.025   .     S
O1029  Zn1246  2.003   .     S
O1030  Zn1245  1.997   .     S
O1031  Zn1038  1.997   .     S
O1032  Zn1246  2.006   .     S
O1033  Zn1037  2.006   .     S
O1034  Zn1038  2.025   .     S
O1035  Zn1245  2.025   .     S
O1036  Zn1455  2.003   .     S
Zn1037 O1243   2.025   1_455 S
Zn1037 O1238   1.997   1_455 S
Zn1038 O1240   2.006   1_455 S
Zn1038 O1237   2.003   1_455 S
Zn1039 O1444   2.025   1_545 S
Zn1039 O1452   2.003   1_545 S
Zn1040 O1441   2.006   1_545 S
Zn1040 O1440   1.997   1_545 S
C1041  O1239   1.291   .     A
C1041  C1070   1.448   .     S
C1041  O1229   1.303   .     A
C1042  N1201   1.361   .     A
C1042  N1225   1.418   .     S
C1042  C1667   1.432   .     S
C1043  N1226   1.418   .     S
C1043  C2      1.432   1_655 S
C1043  N1004   1.381   1_655 S
C1044  N1227   1.421   .     S
C1044  C1728   1.426   1_655 S
C1044  N993    1.374   1_655 S
C1045  N1228   1.424   .     S
C1045  N1223   1.378   .     A
C1046  N1202   1.415   .     S
C1046  C1879   1.440   .     S
C1046  N1638   1.375   .     S
C1047  N1203   1.427   .     S
C1047  N1639   1.372   .     S
C1048  N1204   1.428   .     S
C1048  N1222   1.375   .     A
C1048  C1877   1.435   .     S
C1049  N1205   1.431   .     S
C1049  C1060   1.393   .     A
C1049  C1068   1.399   .     A
C1050  C1067   1.399   .     A
C1050  N1206   1.421   .     S
C1050  C1061   1.382   .     A
C1051  C1058   1.399   .     A
C1051  N1207   1.438   .     S
C1051  C1067   1.413   .     A
C1052  C1069   1.438   .     S
C1052  O1237   1.294   .     A
C1052  O1238   1.295   .     A
C1053  C1068   1.406   .     A
C1053  C1059   1.396   .     A
C1053  N1208   1.427   .     S
C1054  C1070   1.407   .     A
C1054  N1209   1.431   .     S
C1054  C1065   1.387   .     A
C1055  C1069   1.415   .     A
C1055  C1066   1.400   .     A
C1055  N1210   1.423   .     S
C1056  C1062   1.387   .     A
C1056  C1069   1.405   .     A
C1056  N1211   1.424   .     S
C1057  C1070   1.424   .     A
C1057  N1213   1.422   .     S
C1057  C1064   1.400   .     A
C1058  C1072   1.414   .     A
C1058  N1214   1.428   .     S
C1059  C1071   1.407   .     A
C1059  N1215   1.426   .     S
C1060  N1216   1.420   .     S
C1060  C1071   1.409   .     A
C1061  N1217   1.420   .     S
C1061  C1072   1.408   .     A
C1062  N1218   1.427   .     S
C1062  C1075   1.400   .     A
C1063  O1240   1.294   .     A
C1063  C1068   1.426   .     S
C1063  O1243   1.289   .     A
C1064  N1219   1.430   .     S
C1064  C1073   1.398   .     A
C1065  N1220   1.433   .     S
C1065  C1073   1.406   .     A
C1066  N1221   1.427   .     S
C1066  C1075   1.401   .     A
C1067  C1074   1.433   .     S
C1071  C1103   1.442   .     S
C1072  C1102   1.446   .     S
C1073  C1096   1.443   .     S
C1074  O1241   1.297   .     A
C1074  O1242   1.290   .     A
C1075  C1085   1.439   .     S
C1076  H1127   1.113   .     S
C1076  N1224   1.448   .     S
C1076  H1116   1.108   .     S
C1076  H1138   1.106   .     S
C1077  H1182   1.112   .     S
C1077  H1171   1.110   .     S
C1077  N1225   1.449   .     S
C1077  H1160   1.106   .     S
C1078  N1226   1.451   .     S
C1078  H1108   1.109   .     S
C1078  H1106   1.112   .     S
C1078  H1107   1.110   .     S
C1079  H1112   1.108   .     S
C1079  N1227   1.447   .     S
C1079  H1111   1.112   .     S
C1079  H1110   1.109   .     S
C1080  N1228   1.448   .     S
C1080  H1115   1.111   .     S
C1080  H1114   1.108   .     S
C1080  H1117   1.107   .     S
C1081  H1120   1.088   .     S
C1081  H1121   1.105   .     S
C1081  H1119   1.103   .     S
C1081  N1202   1.445   .     S
C1082  H1124   1.094   .     S
C1082  H1125   1.111   .     S
C1082  N1203   1.443   .     S
C1082  H1123   1.101   .     S
C1083  H1129   1.096   .     S
C1083  H1128   1.108   .     S
C1083  N1204   1.447   .     S
C1083  H1130   1.110   .     S
C1084  N1205   1.447   .     S
C1084  H1133   1.105   .     S
C1084  H1132   1.110   .     S
C1084  H1134   1.110   .     S
C1085  O1232   1.301   .     A
C1085  O1244   1.289   .     A
C1086  H1139   1.110   .     S
C1086  H1136   1.108   .     S
C1086  H1137   1.110   .     S
C1086  N1206   1.448   .     S
C1087  H1141   1.111   .     S
C1087  H1142   1.098   .     S
C1087  H1143   1.111   .     S
C1087  N1207   1.445   .     S
C1088  H1147   1.111   .     S
C1088  H1146   1.107   .     S
C1088  N1208   1.442   .     S
C1088  H937    1.109   1_655 S
C1089  N1209   1.447   .     S
C1089  H1151   1.109   .     S
C1089  H1152   1.110   .     S
C1089  H1150   1.112   .     S
C1090  H1154   1.112   .     S
C1090  N1210   1.447   .     S
C1090  H1156   1.110   .     S
C1090  H947    1.109   1_655 S
C1091  H1158   1.108   .     S
C1091  H1159   1.110   .     S
C1091  H1161   1.109   .     S
C1091  N1211   1.445   .     S
C1092  H1163   1.108   .     S
C1092  H1165   1.112   .     S
C1092  N1213   1.455   .     S
C1093  H1167   1.105   .     S
C1093  N1214   1.444   .     S
C1093  H1168   1.100   .     S
C1093  H1169   1.109   .     S
C1094  H1174   1.111   .     S
C1094  H1173   1.112   .     S
C1094  N1215   1.452   .     S
C1094  H1172   1.109   .     S
C1095  H1178   1.106   .     S
C1095  H1176   1.108   .     S
C1095  H1177   1.110   .     S
C1095  N1216   1.452   .     S
C1096  O1231   1.285   .     A
C1096  O1230   1.306   .     A
C1097  H1183   1.108   .     S
C1097  H1180   1.106   .     S
C1097  H1181   1.111   .     S
C1097  N1217   1.459   .     S
C1098  H1185   1.103   .     S
C1098  N1218   1.439   .     S
C1098  H1187   1.107   .     S
C1098  H1186   1.104   .     S
C1099  H1189   1.108   .     S
C1099  H1190   1.108   .     S
C1099  H1191   1.109   .     S
C1099  N1219   1.446   .     S
C1100  H1194   1.111   .     S
C1100  H1196   1.110   .     S
C1100  N1220   1.450   .     S
C1100  H1195   1.110   .     S
C1101  H1199   1.110   .     S
C1101  H1200   1.110   .     S
C1101  N1221   1.444   .     S
C1101  H1198   1.110   .     S
C1102  O1236   1.301   .     A
C1102  O1233   1.294   .     A
C1103  O1234   1.297   .     A
C1103  O1235   1.294   .     A
C1104  N1212   1.370   .     A
C1104  N1224   1.418   .     S
H1105  N1224   1.019   .     S
H1109  N1227   1.018   .     S
H1113  N1228   1.019   .     S
H1118  N1202   1.024   .     S
H1122  N1203   1.026   .     S
H1126  N1204   1.030   .     S
H1131  N1205   1.031   .     S
H1135  N1206   1.029   .     S
H1140  N1207   1.029   .     S
H1144  N1208   1.029   .     S
H1148  N1209   1.027   .     S
H1149  N1017   1.027   1_655 S
H1153  N1210   1.029   .     S
H1157  N1211   1.028   .     S
H1162  N1213   1.030   .     S
H1164  C884    1.106   1_655 S
H1166  N1214   1.032   .     S
H1170  N1215   1.032   .     S
H1175  N1216   1.031   .     S
H1179  N1217   1.031   .     S
H1184  N1218   1.028   .     S
H1188  N1219   1.029   .     S
H1192  N1220   1.027   .     S
H1193  N1226   1.019   .     S
H1197  N1221   1.032   .     S
N1201  Zn1245  2.031   .     S
N1212  Zn1246  2.031   .     S
N1222  Zn1247  2.031   .     S
N1222  C1462   1.375   1_545 S
N1223  Zn1248  2.031   .     S
N1223  C1463   1.372   1_545 S
O1229  Zn1245  2.003   .     S
O1230  Zn1248  2.003   .     S
O1231  Zn1247  1.997   .     S
O1232  Zn1664  1.997   .     S
O1233  Zn1664  2.006   .     S
O1234  Zn1247  2.006   .     S
O1235  Zn1248  2.025   .     S
O1236  Zn1663  2.025   .     S
O1237  Zn1038  2.003   1_655 S
O1238  Zn1037  1.997   1_655 S
O1239  Zn1246  1.997   .     S
O1240  Zn1038  2.006   1_655 S
O1241  Zn1245  2.006   .     S
O1242  Zn1246  2.025   .     S
O1243  Zn1037  2.025   1_655 S
O1244  Zn1663  2.003   .     S
Zn1247 O1652   2.025   1_545 S
Zn1247 O1660   2.003   1_545 S
Zn1248 O1649   2.006   1_545 S
Zn1248 O1648   1.997   1_545 S
C1249  O1447   1.291   .     A
C1249  C1278   1.448   .     S
C1249  O1437   1.303   .     A
C1250  N1409   1.361   .     A
C1250  N1433   1.418   .     S
C1250  C2291   1.432   1_455 S
C1251  N1434   1.418   .     S
C1251  N1628   1.381   .     S
C1252  N1435   1.421   .     S
C1252  C2352   1.426   .     S
C1252  N1617   1.374   .     S
C1253  N1436   1.424   .     S
C1253  N1431   1.378   .     A
C1254  N1410   1.415   .     S
C1254  C2087   1.440   .     S
C1254  N1014   1.375   1_565 S
C1255  N1411   1.427   .     S
C1255  N1015   1.372   1_565 S
C1256  N1412   1.428   .     S
C1256  N1430   1.375   .     A
C1256  C2085   1.435   .     S
C1257  N1413   1.431   .     S
C1257  C1268   1.393   .     A
C1257  C1276   1.399   .     A
C1258  C1275   1.399   .     A
C1258  N1414   1.421   .     S
C1258  C1269   1.382   .     A
C1259  C1266   1.399   .     A
C1259  N1415   1.438   .     S
C1259  C1275   1.413   .     A
C1260  C1277   1.438   .     S
C1260  O1445   1.294   .     A
C1260  O1446   1.295   .     A
C1261  C1276   1.406   .     A
C1261  C1267   1.396   .     A
C1261  N1416   1.427   .     S
C1262  C1278   1.407   .     A
C1262  N1417   1.431   .     S
C1262  C1273   1.387   .     A
C1263  C1277   1.415   .     A
C1263  C1274   1.400   .     A
C1263  N1418   1.423   .     S
C1264  C1270   1.387   .     A
C1264  C1277   1.405   .     A
C1264  N1419   1.424   .     S
C1265  C1278   1.424   .     A
C1265  N1421   1.422   .     S
C1265  C1272   1.400   .     A
C1266  C1280   1.414   .     A
C1266  N1422   1.428   .     S
C1267  C1279   1.407   .     A
C1267  N1423   1.426   .     S
C1268  N1424   1.420   .     S
C1268  C1279   1.409   .     A
C1269  N1425   1.420   .     S
C1269  C1280   1.408   .     A
C1270  N1426   1.427   .     S
C1270  C1283   1.400   .     A
C1271  O1448   1.294   .     A
C1271  C1276   1.426   .     S
C1271  O1451   1.289   .     A
C1272  N1427   1.430   .     S
C1272  C1281   1.398   .     A
C1273  N1428   1.433   .     S
C1273  C1281   1.406   .     A
C1274  N1429   1.427   .     S
C1274  C1283   1.401   .     A
C1275  C1282   1.433   .     S
C1279  C1311   1.442   .     S
C1280  C1310   1.446   .     S
C1281  C1304   1.443   .     S
C1282  O1449   1.297   .     A
C1282  O1450   1.290   .     A
C1283  C1293   1.439   .     S
C1284  H1335   1.113   .     S
C1284  N1432   1.448   .     S
C1284  H1324   1.108   .     S
C1284  H1346   1.106   .     S
C1285  H1390   1.112   .     S
C1285  H1379   1.110   .     S
C1285  N1433   1.449   .     S
C1285  H1368   1.106   .     S
C1286  N1434   1.451   .     S
C1286  H1316   1.109   .     S
C1286  H1314   1.112   .     S
C1286  H1315   1.110   .     S
C1287  H1320   1.108   .     S
C1287  N1435   1.447   .     S
C1287  H1319   1.112   .     S
C1287  H1318   1.109   .     S
C1288  N1436   1.448   .     S
C1288  H1323   1.111   .     S
C1288  H1322   1.108   .     S
C1288  H1325   1.107   .     S
C1289  H1328   1.088   .     S
C1289  H1329   1.105   .     S
C1289  H1327   1.103   .     S
C1289  N1410   1.445   .     S
C1290  H1332   1.094   .     S
C1290  H1333   1.111   .     S
C1290  N1411   1.443   .     S
C1290  H1331   1.101   .     S
C1291  H1337   1.096   .     S
C1291  H1336   1.108   .     S
C1291  N1412   1.447   .     S
C1291  H1338   1.110   .     S
C1292  N1413   1.447   .     S
C1292  H1341   1.105   .     S
C1292  H1340   1.110   .     S
C1292  H1342   1.110   .     S
C1293  O1440   1.301   .     A
C1293  O1452   1.289   .     A
C1294  H1347   1.110   .     S
C1294  H1344   1.108   .     S
C1294  H1345   1.110   .     S
C1294  N1414   1.448   .     S
C1295  H1349   1.111   .     S
C1295  H1350   1.098   .     S
C1295  H1351   1.111   .     S
C1295  N1415   1.445   .     S
C1296  H1355   1.111   .     S
C1296  H1354   1.107   .     S
C1296  N1416   1.442   .     S
C1296  H1561   1.109   .     S
C1297  N1417   1.447   .     S
C1297  H1359   1.109   .     S
C1297  H1360   1.110   .     S
C1297  H1358   1.112   .     S
C1298  H1362   1.112   .     S
C1298  N1418   1.447   .     S
C1298  H1364   1.110   .     S
C1298  H1571   1.109   .     S
C1299  H1366   1.108   .     S
C1299  H1367   1.110   .     S
C1299  H1369   1.109   .     S
C1299  N1419   1.445   .     S
C1300  H1371   1.108   .     S
C1300  H1373   1.112   .     S
C1300  N1421   1.455   .     S
C1300  H1580   1.106   1_455 S
C1301  H1375   1.105   .     S
C1301  N1422   1.444   .     S
C1301  H1376   1.100   .     S
C1301  H1377   1.109   .     S
C1302  H1382   1.111   .     S
C1302  H1381   1.112   .     S
C1302  N1423   1.452   .     S
C1302  H1380   1.109   .     S
C1303  H1386   1.106   .     S
C1303  H1384   1.108   .     S
C1303  H1385   1.110   .     S
C1303  N1424   1.452   .     S
C1304  O1439   1.285   .     A
C1304  O1438   1.306   .     A
C1305  H1391   1.108   .     S
C1305  H1388   1.106   .     S
C1305  H1389   1.111   .     S
C1305  N1425   1.459   .     S
C1306  H1393   1.103   .     S
C1306  N1426   1.439   .     S
C1306  H1395   1.107   .     S
C1306  H1394   1.104   .     S
C1307  H1397   1.108   .     S
C1307  H1398   1.108   .     S
C1307  H1399   1.109   .     S
C1307  N1427   1.446   .     S
C1308  H1402   1.111   .     S
C1308  H1404   1.110   .     S
C1308  N1428   1.450   .     S
C1308  H1403   1.110   .     S
C1309  H1407   1.110   .     S
C1309  H1408   1.110   .     S
C1309  N1429   1.444   .     S
C1309  H1406   1.110   .     S
C1310  O1444   1.301   .     A
C1310  O1441   1.294   .     A
C1311  O1442   1.297   .     A
C1311  O1443   1.294   .     A
C1312  N1420   1.370   .     A
C1312  N1432   1.418   .     S
C1312  C628    1.426   1_455 S
H1313  N1432   1.019   .     S
H1317  N1435   1.018   .     S
H1321  N1436   1.019   .     S
H1326  N1410   1.024   .     S
H1330  N1411   1.026   .     S
H1334  N1412   1.030   .     S
H1339  N1413   1.031   .     S
H1343  N1414   1.029   .     S
H1348  N1415   1.029   .     S
H1352  N1416   1.029   .     S
H1353  C1504   1.109   1_455 S
H1356  N1417   1.027   .     S
H1357  N1641   1.027   .     S
H1361  N1418   1.029   .     S
H1363  C1506   1.109   1_455 S
H1365  N1419   1.028   .     S
H1370  N1421   1.030   .     S
H1372  C1508   1.106   .     S
H1374  N1422   1.032   .     S
H1378  N1423   1.032   .     S
H1383  N1424   1.031   .     S
H1387  N1425   1.031   .     S
H1392  N1426   1.028   .     S
H1396  N1427   1.029   .     S
H1400  N1428   1.027   .     S
H1401  N1434   1.019   .     S
H1405  N1429   1.032   .     S
N1409  Zn1453  2.031   .     S
N1409  C1460   1.374   1_455 S
N1420  Zn1454  2.031   .     S
N1420  C1459   1.381   1_455 S
N1430  Zn1455  2.031   .     S
N1431  Zn1456  2.031   .     S
N1433  H1565   1.027   1_455 S
O1437  Zn1453  2.003   .     S
O1438  Zn1456  2.003   .     S
O1439  Zn1455  1.997   .     S
O1440  Zn1040  1.997   1_565 S
O1441  Zn1040  2.006   1_565 S
O1442  Zn1455  2.006   .     S
O1443  Zn1456  2.025   .     S
O1444  Zn1039  2.025   1_565 S
O1445  Zn1662  2.003   .     S
O1446  Zn1661  1.997   .     S
O1447  Zn1454  1.997   .     S
O1448  Zn1662  2.006   .     S
O1449  Zn1453  2.006   .     S
O1450  Zn1454  2.025   .     S
O1451  Zn1661  2.025   .     S
O1452  Zn1039  2.003   1_565 S
Zn1453 O1659   2.025   1_455 S
Zn1453 O1654   1.997   1_455 S
Zn1454 O1656   2.006   1_455 S
Zn1454 O1653   2.003   1_455 S
C1457  O1655   1.291   .     A
C1457  C1486   1.448   .     S
C1457  O1645   1.303   .     A
C1458  N1617   1.361   .     A
C1458  N1641   1.418   .     S
C1458  C2083   1.432   .     S
C1459  N1642   1.418   .     S
C1459  C418    1.432   1_655 S
C1459  N1420   1.381   1_655 S
C1460  N1643   1.421   .     S
C1460  C2144   1.426   1_655 S
C1460  N1409   1.374   1_655 S
C1461  N1644   1.424   .     S
C1461  N1639   1.378   .     A
C1462  N1618   1.415   .     S
C1462  C2295   1.440   .     S
C1462  N1222   1.375   1_565 S
C1463  N1619   1.427   .     S
C1463  N1223   1.372   1_565 S
C1464  N1620   1.428   .     S
C1464  N1638   1.375   .     A
C1464  C2293   1.435   .     S
C1465  N1621   1.431   .     S
C1465  C1476   1.393   .     A
C1465  C1484   1.399   .     A
C1466  C1483   1.399   .     A
C1466  N1622   1.421   .     S
C1466  C1477   1.382   .     A
C1467  C1474   1.399   .     A
C1467  N1623   1.438   .     S
C1467  C1483   1.413   .     A
C1468  C1485   1.438   .     S
C1468  O1653   1.294   .     A
C1468  O1654   1.295   .     A
C1469  C1484   1.406   .     A
C1469  C1475   1.396   .     A
C1469  N1624   1.427   .     S
C1470  C1486   1.407   .     A
C1470  N1625   1.431   .     S
C1470  C1481   1.387   .     A
C1471  C1485   1.415   .     A
C1471  C1482   1.400   .     A
C1471  N1626   1.423   .     S
C1472  C1478   1.387   .     A
C1472  C1485   1.405   .     A
C1472  N1627   1.424   .     S
C1473  C1486   1.424   .     A
C1473  N1629   1.422   .     S
C1473  C1480   1.400   .     A
C1474  C1488   1.414   .     A
C1474  N1630   1.428   .     S
C1475  C1487   1.407   .     A
C1475  N1631   1.426   .     S
C1476  N1632   1.420   .     S
C1476  C1487   1.409   .     A
C1477  N1633   1.420   .     S
C1477  C1488   1.408   .     A
C1478  N1634   1.427   .     S
C1478  C1491   1.400   .     A
C1479  O1656   1.294   .     A
C1479  C1484   1.426   .     S
C1479  O1659   1.289   .     A
C1480  N1635   1.430   .     S
C1480  C1489   1.398   .     A
C1481  N1636   1.433   .     S
C1481  C1489   1.406   .     A
C1482  N1637   1.427   .     S
C1482  C1491   1.401   .     A
C1483  C1490   1.433   .     S
C1487  C1519   1.442   .     S
C1488  C1518   1.446   .     S
C1489  C1512   1.443   .     S
C1490  O1657   1.297   .     A
C1490  O1658   1.290   .     A
C1491  C1501   1.439   .     S
C1492  H1543   1.113   .     S
C1492  N1640   1.448   .     S
C1492  H1532   1.108   .     S
C1492  H1554   1.106   .     S
C1493  H1598   1.112   .     S
C1493  H1587   1.110   .     S
C1493  N1641   1.449   .     S
C1493  H1576   1.106   .     S
C1494  N1642   1.451   .     S
C1494  H1524   1.109   .     S
C1494  H1522   1.112   .     S
C1494  H1523   1.110   .     S
C1495  H1528   1.108   .     S
C1495  N1643   1.447   .     S
C1495  H1527   1.112   .     S
C1495  H1526   1.109   .     S
C1496  N1644   1.448   .     S
C1496  H1531   1.111   .     S
C1496  H1530   1.108   .     S
C1496  H1533   1.107   .     S
C1497  H1536   1.088   .     S
C1497  H1537   1.105   .     S
C1497  H1535   1.103   .     S
C1497  N1618   1.445   .     S
C1498  H1540   1.094   .     S
C1498  H1541   1.111   .     S
C1498  N1619   1.443   .     S
C1498  H1539   1.101   .     S
C1499  H1545   1.096   .     S
C1499  H1544   1.108   .     S
C1499  N1620   1.447   .     S
C1499  H1546   1.110   .     S
C1500  N1621   1.447   .     S
C1500  H1549   1.105   .     S
C1500  H1548   1.110   .     S
C1500  H1550   1.110   .     S
C1501  O1648   1.301   .     A
C1501  O1660   1.289   .     A
C1502  H1555   1.110   .     S
C1502  H1552   1.108   .     S
C1502  H1553   1.110   .     S
C1502  N1622   1.448   .     S
C1503  H1557   1.111   .     S
C1503  H1558   1.098   .     S
C1503  H1559   1.111   .     S
C1503  N1623   1.445   .     S
C1504  H1563   1.111   .     S
C1504  H1562   1.107   .     S
C1504  N1624   1.442   .     S
C1504  H1353   1.109   1_655 S
C1505  N1625   1.447   .     S
C1505  H1567   1.109   .     S
C1505  H1568   1.110   .     S
C1505  H1566   1.112   .     S
C1506  H1570   1.112   .     S
C1506  N1626   1.447   .     S
C1506  H1572   1.110   .     S
C1506  H1363   1.109   1_655 S
C1507  H1574   1.108   .     S
C1507  H1575   1.110   .     S
C1507  H1577   1.109   .     S
C1507  N1627   1.445   .     S
C1508  H1579   1.108   .     S
C1508  H1581   1.112   .     S
C1508  N1629   1.455   .     S
C1509  H1583   1.105   .     S
C1509  N1630   1.444   .     S
C1509  H1584   1.100   .     S
C1509  H1585   1.109   .     S
C1510  H1590   1.111   .     S
C1510  H1589   1.112   .     S
C1510  N1631   1.452   .     S
C1510  H1588   1.109   .     S
C1511  H1594   1.106   .     S
C1511  H1592   1.108   .     S
C1511  H1593   1.110   .     S
C1511  N1632   1.452   .     S
C1512  O1647   1.285   .     A
C1512  O1646   1.306   .     A
C1513  H1599   1.108   .     S
C1513  H1596   1.106   .     S
C1513  H1597   1.111   .     S
C1513  N1633   1.459   .     S
C1514  H1601   1.103   .     S
C1514  N1634   1.439   .     S
C1514  H1603   1.107   .     S
C1514  H1602   1.104   .     S
C1515  H1605   1.108   .     S
C1515  H1606   1.108   .     S
C1515  H1607   1.109   .     S
C1515  N1635   1.446   .     S
C1516  H1610   1.111   .     S
C1516  H1612   1.110   .     S
C1516  N1636   1.450   .     S
C1516  H1611   1.110   .     S
C1517  H1615   1.110   .     S
C1517  H1616   1.110   .     S
C1517  N1637   1.444   .     S
C1517  H1614   1.110   .     S
C1518  O1652   1.301   .     A
C1518  O1649   1.294   .     A
C1519  O1650   1.297   .     A
C1519  O1651   1.294   .     A
C1520  N1628   1.370   .     A
C1520  N1640   1.418   .     S
H1521  N1640   1.019   .     S
H1525  N1643   1.018   .     S
H1529  N1644   1.019   .     S
H1534  N1618   1.024   .     S
H1538  N1619   1.026   .     S
H1542  N1620   1.030   .     S
H1547  N1621   1.031   .     S
H1551  N1622   1.029   .     S
H1556  N1623   1.029   .     S
H1560  N1624   1.029   .     S
H1564  N1625   1.027   .     S
H1565  N1433   1.027   1_655 S
H1569  N1626   1.029   .     S
H1573  N1627   1.028   .     S
H1578  N1629   1.030   .     S
H1580  C1300   1.106   1_655 S
H1582  N1630   1.032   .     S
H1586  N1631   1.032   .     S
H1591  N1632   1.031   .     S
H1595  N1633   1.031   .     S
H1600  N1634   1.028   .     S
H1604  N1635   1.029   .     S
H1608  N1636   1.027   .     S
H1609  N1642   1.019   .     S
H1613  N1637   1.032   .     S
N1617  Zn1661  2.031   .     S
N1628  Zn1662  2.031   .     S
N1638  Zn1663  2.031   .     S
N1639  Zn1664  2.031   .     S
O1645  Zn1661  2.003   .     S
O1646  Zn1664  2.003   .     S
O1647  Zn1663  1.997   .     S
O1648  Zn1248  1.997   1_565 S
O1649  Zn1248  2.006   1_565 S
O1650  Zn1663  2.006   .     S
O1651  Zn1664  2.025   .     S
O1652  Zn1247  2.025   1_565 S
O1653  Zn1454  2.003   1_655 S
O1654  Zn1453  1.997   1_655 S
O1655  Zn1662  1.997   .     S
O1656  Zn1454  2.006   1_655 S
O1657  Zn1661  2.006   .     S
O1658  Zn1662  2.025   .     S
O1659  Zn1453  2.025   1_655 S
O1660  Zn1247  2.003   1_565 S
C1665  O1863   1.291   .     A
C1665  C1694   1.448   .     S
C1665  O1853   1.303   .     A
C1666  N1825   1.361   .     A
C1666  N1849   1.418   .     S
C1666  C211    1.432   1_456 S
C1667  N1850   1.418   .     S
C1667  N2044   1.381   .     S
C1668  N1851   1.421   .     S
C1668  C272    1.426   1_556 S
C1668  N2033   1.374   .     S
C1669  N1852   1.424   .     S
C1669  N1847   1.378   .     A
C1670  N1826   1.415   .     S
C1670  C7      1.440   1_556 S
C1670  N2262   1.375   .     S
C1671  N1827   1.427   .     S
C1671  N2263   1.372   .     S
C1672  N1828   1.428   .     S
C1672  N1846   1.375   .     A
C1672  C5      1.435   1_556 S
C1673  N1829   1.431   .     S
C1673  C1684   1.393   .     A
C1673  C1692   1.399   .     A
C1674  C1691   1.399   .     A
C1674  N1830   1.421   .     S
C1674  C1685   1.382   .     A
C1675  C1682   1.399   .     A
C1675  N1831   1.438   .     S
C1675  C1691   1.413   .     A
C1676  C1693   1.438   .     S
C1676  O1861   1.294   .     A
C1676  O1862   1.295   .     A
C1677  C1692   1.406   .     A
C1677  C1683   1.396   .     A
C1677  N1832   1.427   .     S
C1678  C1694   1.407   .     A
C1678  N1833   1.431   .     S
C1678  C1689   1.387   .     A
C1679  C1693   1.415   .     A
C1679  C1690   1.400   .     A
C1679  N1834   1.423   .     S
C1680  C1686   1.387   .     A
C1680  C1693   1.405   .     A
C1680  N1835   1.424   .     S
C1681  C1694   1.424   .     A
C1681  N1837   1.422   .     S
C1681  C1688   1.400   .     A
C1682  C1696   1.414   .     A
C1682  N1838   1.428   .     S
C1683  C1695   1.407   .     A
C1683  N1839   1.426   .     S
C1684  N1840   1.420   .     S
C1684  C1695   1.409   .     A
C1685  N1841   1.420   .     S
C1685  C1696   1.408   .     A
C1686  N1842   1.427   .     S
C1686  C1699   1.400   .     A
C1687  O1864   1.294   .     A
C1687  C1692   1.426   .     S
C1687  O1867   1.289   .     A
C1688  N1843   1.430   .     S
C1688  C1697   1.398   .     A
C1689  N1844   1.433   .     S
C1689  C1697   1.406   .     A
C1690  N1845   1.427   .     S
C1690  C1699   1.401   .     A
C1691  C1698   1.433   .     S
C1695  C1727   1.442   .     S
C1696  C1726   1.446   .     S
C1697  C1720   1.443   .     S
C1698  O1865   1.297   .     A
C1698  O1866   1.290   .     A
C1699  C1709   1.439   .     S
C1700  H1751   1.113   .     S
C1700  N1848   1.448   .     S
C1700  H1740   1.108   .     S
C1700  H1762   1.106   .     S
C1701  H1806   1.112   .     S
C1701  H1795   1.110   .     S
C1701  N1849   1.449   .     S
C1701  H1784   1.106   .     S
C1702  N1850   1.451   .     S
C1702  H1732   1.109   .     S
C1702  H1730   1.112   .     S
C1702  H1731   1.110   .     S
C1703  H1736   1.108   .     S
C1703  N1851   1.447   .     S
C1703  H1735   1.112   .     S
C1703  H1734   1.109   .     S
C1704  N1852   1.448   .     S
C1704  H1739   1.111   .     S
C1704  H1738   1.108   .     S
C1704  H1741   1.107   .     S
C1705  H1744   1.088   .     S
C1705  H1745   1.105   .     S
C1705  H1743   1.103   .     S
C1705  N1826   1.445   .     S
C1706  H1748   1.094   .     S
C1706  H1749   1.111   .     S
C1706  N1827   1.443   .     S
C1706  H1747   1.101   .     S
C1707  H1753   1.096   .     S
C1707  H1752   1.108   .     S
C1707  N1828   1.447   .     S
C1707  H1754   1.110   .     S
C1708  N1829   1.447   .     S
C1708  H1757   1.105   .     S
C1708  H1756   1.110   .     S
C1708  H1758   1.110   .     S
C1709  O1856   1.301   .     A
C1709  O1868   1.289   .     A
C1710  H1763   1.110   .     S
C1710  H1760   1.108   .     S
C1710  H1761   1.110   .     S
C1710  N1830   1.448   .     S
C1711  H1765   1.111   .     S
C1711  H1766   1.098   .     S
C1711  H1767   1.111   .     S
C1711  N1831   1.445   .     S
C1712  H1771   1.111   .     S
C1712  H1770   1.107   .     S
C1712  N1832   1.442   .     S
C1712  H1977   1.109   .     S
C1713  N1833   1.447   .     S
C1713  H1775   1.109   .     S
C1713  H1776   1.110   .     S
C1713  H1774   1.112   .     S
C1714  H1778   1.112   .     S
C1714  N1834   1.447   .     S
C1714  H1780   1.110   .     S
C1714  H1987   1.109   .     S
C1715  H1782   1.108   .     S
C1715  H1783   1.110   .     S
C1715  H1785   1.109   .     S
C1715  N1835   1.445   .     S
C1716  H1787   1.108   .     S
C1716  H1789   1.112   .     S
C1716  N1837   1.455   .     S
C1716  H1996   1.106   1_455 S
C1717  H1791   1.105   .     S
C1717  N1838   1.444   .     S
C1717  H1792   1.100   .     S
C1717  H1793   1.109   .     S
C1718  H1798   1.111   .     S
C1718  H1797   1.112   .     S
C1718  N1839   1.452   .     S
C1718  H1796   1.109   .     S
C1719  H1802   1.106   .     S
C1719  H1800   1.108   .     S
C1719  H1801   1.110   .     S
C1719  N1840   1.452   .     S
C1720  O1855   1.285   .     A
C1720  O1854   1.306   .     A
C1721  H1807   1.108   .     S
C1721  H1804   1.106   .     S
C1721  H1805   1.111   .     S
C1721  N1841   1.459   .     S
C1722  H1809   1.103   .     S
C1722  N1842   1.439   .     S
C1722  H1811   1.107   .     S
C1722  H1810   1.104   .     S
C1723  H1813   1.108   .     S
C1723  H1814   1.108   .     S
C1723  H1815   1.109   .     S
C1723  N1843   1.446   .     S
C1724  H1818   1.111   .     S
C1724  H1820   1.110   .     S
C1724  N1844   1.450   .     S
C1724  H1819   1.110   .     S
C1725  H1823   1.110   .     S
C1725  H1824   1.110   .     S
C1725  N1845   1.444   .     S
C1725  H1822   1.110   .     S
C1726  O1860   1.301   .     A
C1726  O1857   1.294   .     A
C1727  O1858   1.297   .     A
C1727  O1859   1.294   .     A
C1728  N1836   1.370   .     A
C1728  N1848   1.418   .     S
C1728  C1044   1.426   1_455 S
H1729  N1848   1.019   .     S
H1733  N1851   1.018   .     S
H1737  N1852   1.019   .     S
H1742  N1826   1.024   .     S
H1746  N1827   1.026   .     S
H1750  N1828   1.030   .     S
H1755  N1829   1.031   .     S
H1759  N1830   1.029   .     S
H1764  N1831   1.029   .     S
H1768  N1832   1.029   .     S
H1769  C1920   1.109   1_455 S
H1772  N1833   1.027   .     S
H1773  N2057   1.027   .     S
H1777  N1834   1.029   .     S
H1779  C1922   1.109   1_455 S
H1781  N1835   1.028   .     S
H1786  N1837   1.030   .     S
H1788  C1924   1.106   .     S
H1790  N1838   1.032   .     S
H1794  N1839   1.032   .     S
H1799  N1840   1.031   .     S
H1803  N1841   1.031   .     S
H1808  N1842   1.028   .     S
H1812  N1843   1.029   .     S
H1816  N1844   1.027   .     S
H1817  N1850   1.019   .     S
H1821  N1845   1.032   .     S
N1825  Zn1869  2.031   .     S
N1825  C1876   1.374   1_455 S
N1836  Zn1870  2.031   .     S
N1836  C1875   1.381   1_455 S
N1846  Zn1871  2.031   .     S
N1846  C2086   1.375   1_545 S
N1847  Zn1872  2.031   .     S
N1847  C2087   1.372   1_545 S
N1849  H1981   1.027   1_455 S
O1853  Zn1869  2.003   .     S
O1854  Zn1872  2.003   .     S
O1855  Zn1871  1.997   .     S
O1856  Zn2288  1.997   .     S
O1857  Zn2288  2.006   .     S
O1858  Zn1871  2.006   .     S
O1859  Zn1872  2.025   .     S
O1860  Zn2287  2.025   .     S
O1861  Zn2078  2.003   .     S
O1862  Zn2077  1.997   .     S
O1863  Zn1870  1.997   .     S
O1864  Zn2078  2.006   .     S
O1865  Zn1869  2.006   .     S
O1866  Zn1870  2.025   .     S
O1867  Zn2077  2.025   .     S
O1868  Zn2287  2.003   .     S
Zn1869 O2075   2.025   1_455 S
Zn1869 O2070   1.997   1_455 S
Zn1870 O2072   2.006   1_455 S
Zn1870 O2069   2.003   1_455 S
Zn1871 O2276   2.025   1_545 S
Zn1871 O2284   2.003   1_545 S
Zn1872 O2273   2.006   1_545 S
Zn1872 O2272   1.997   1_545 S
C1873  O2071   1.291   .     A
C1873  C1902   1.448   .     S
C1873  O2061   1.303   .     A
C1874  N2033   1.361   .     A
C1874  N2057   1.418   .     S
C1874  C3      1.432   1_556 S
C1875  N2058   1.418   .     S
C1875  C834    1.432   1_655 S
C1875  N1836   1.381   1_655 S
C1876  N2059   1.421   .     S
C1876  C64     1.426   1_656 S
C1876  N1825   1.374   1_655 S
C1877  N2060   1.424   .     S
C1877  N2055   1.378   .     A
C1878  N2034   1.415   .     S
C1878  C215    1.440   1_556 S
C1878  N2470   1.375   .     S
C1879  N2035   1.427   .     S
C1879  N2471   1.372   .     S
C1880  N2036   1.428   .     S
C1880  N2054   1.375   .     A
C1880  C213    1.435   1_556 S
C1881  N2037   1.431   .     S
C1881  C1892   1.393   .     A
C1881  C1900   1.399   .     A
C1882  C1899   1.399   .     A
C1882  N2038   1.421   .     S
C1882  C1893   1.382   .     A
C1883  C1890   1.399   .     A
C1883  N2039   1.438   .     S
C1883  C1899   1.413   .     A
C1884  C1901   1.438   .     S
C1884  O2069   1.294   .     A
C1884  O2070   1.295   .     A
C1885  C1900   1.406   .     A
C1885  C1891   1.396   .     A
C1885  N2040   1.427   .     S
C1886  C1902   1.407   .     A
C1886  N2041   1.431   .     S
C1886  C1897   1.387   .     A
C1887  C1901   1.415   .     A
C1887  C1898   1.400   .     A
C1887  N2042   1.423   .     S
C1888  C1894   1.387   .     A
C1888  C1901   1.405   .     A
C1888  N2043   1.424   .     S
C1889  C1902   1.424   .     A
C1889  N2045   1.422   .     S
C1889  C1896   1.400   .     A
C1890  C1904   1.414   .     A
C1890  N2046   1.428   .     S
C1891  C1903   1.407   .     A
C1891  N2047   1.426   .     S
C1892  N2048   1.420   .     S
C1892  C1903   1.409   .     A
C1893  N2049   1.420   .     S
C1893  C1904   1.408   .     A
C1894  N2050   1.427   .     S
C1894  C1907   1.400   .     A
C1895  O2072   1.294   .     A
C1895  C1900   1.426   .     S
C1895  O2075   1.289   .     A
C1896  N2051   1.430   .     S
C1896  C1905   1.398   .     A
C1897  N2052   1.433   .     S
C1897  C1905   1.406   .     A
C1898  N2053   1.427   .     S
C1898  C1907   1.401   .     A
C1899  C1906   1.433   .     S
C1903  C1935   1.442   .     S
C1904  C1934   1.446   .     S
C1905  C1928   1.443   .     S
C1906  O2073   1.297   .     A
C1906  O2074   1.290   .     A
C1907  C1917   1.439   .     S
C1908  H1959   1.113   .     S
C1908  N2056   1.448   .     S
C1908  H1948   1.108   .     S
C1908  H1970   1.106   .     S
C1909  H2014   1.112   .     S
C1909  H2003   1.110   .     S
C1909  N2057   1.449   .     S
C1909  H1992   1.106   .     S
C1910  N2058   1.451   .     S
C1910  H1940   1.109   .     S
C1910  H1938   1.112   .     S
C1910  H1939   1.110   .     S
C1911  H1944   1.108   .     S
C1911  N2059   1.447   .     S
C1911  H1943   1.112   .     S
C1911  H1942   1.109   .     S
C1912  N2060   1.448   .     S
C1912  H1947   1.111   .     S
C1912  H1946   1.108   .     S
C1912  H1949   1.107   .     S
C1913  H1952   1.088   .     S
C1913  H1953   1.105   .     S
C1913  H1951   1.103   .     S
C1913  N2034   1.445   .     S
C1914  H1956   1.094   .     S
C1914  H1957   1.111   .     S
C1914  N2035   1.443   .     S
C1914  H1955   1.101   .     S
C1915  H1961   1.096   .     S
C1915  H1960   1.108   .     S
C1915  N2036   1.447   .     S
C1915  H1962   1.110   .     S
C1916  N2037   1.447   .     S
C1916  H1965   1.105   .     S
C1916  H1964   1.110   .     S
C1916  H1966   1.110   .     S
C1917  O2064   1.301   .     A
C1917  O2076   1.289   .     A
C1918  H1971   1.110   .     S
C1918  H1968   1.108   .     S
C1918  H1969   1.110   .     S
C1918  N2038   1.448   .     S
C1919  H1973   1.111   .     S
C1919  H1974   1.098   .     S
C1919  H1975   1.111   .     S
C1919  N2039   1.445   .     S
C1920  H1979   1.111   .     S
C1920  H1978   1.107   .     S
C1920  N2040   1.442   .     S
C1920  H1769   1.109   1_655 S
C1921  N2041   1.447   .     S
C1921  H1983   1.109   .     S
C1921  H1984   1.110   .     S
C1921  H1982   1.112   .     S
C1922  H1986   1.112   .     S
C1922  N2042   1.447   .     S
C1922  H1988   1.110   .     S
C1922  H1779   1.109   1_655 S
C1923  H1990   1.108   .     S
C1923  H1991   1.110   .     S
C1923  H1993   1.109   .     S
C1923  N2043   1.445   .     S
C1924  H1995   1.108   .     S
C1924  H1997   1.112   .     S
C1924  N2045   1.455   .     S
C1925  H1999   1.105   .     S
C1925  N2046   1.444   .     S
C1925  H2000   1.100   .     S
C1925  H2001   1.109   .     S
C1926  H2006   1.111   .     S
C1926  H2005   1.112   .     S
C1926  N2047   1.452   .     S
C1926  H2004   1.109   .     S
C1927  H2010   1.106   .     S
C1927  H2008   1.108   .     S
C1927  H2009   1.110   .     S
C1927  N2048   1.452   .     S
C1928  O2063   1.285   .     A
C1928  O2062   1.306   .     A
C1929  H2015   1.108   .     S
C1929  H2012   1.106   .     S
C1929  H2013   1.111   .     S
C1929  N2049   1.459   .     S
C1930  H2017   1.103   .     S
C1930  N2050   1.439   .     S
C1930  H2019   1.107   .     S
C1930  H2018   1.104   .     S
C1931  H2021   1.108   .     S
C1931  H2022   1.108   .     S
C1931  H2023   1.109   .     S
C1931  N2051   1.446   .     S
C1932  H2026   1.111   .     S
C1932  H2028   1.110   .     S
C1932  N2052   1.450   .     S
C1932  H2027   1.110   .     S
C1933  H2031   1.110   .     S
C1933  H2032   1.110   .     S
C1933  N2053   1.444   .     S
C1933  H2030   1.110   .     S
C1934  O2068   1.301   .     A
C1934  O2065   1.294   .     A
C1935  O2066   1.297   .     A
C1935  O2067   1.294   .     A
C1936  N2044   1.370   .     A
C1936  N2056   1.418   .     S
H1937  N2056   1.019   .     S
H1941  N2059   1.018   .     S
H1945  N2060   1.019   .     S
H1950  N2034   1.024   .     S
H1954  N2035   1.026   .     S
H1958  N2036   1.030   .     S
H1963  N2037   1.031   .     S
H1967  N2038   1.029   .     S
H1972  N2039   1.029   .     S
H1976  N2040   1.029   .     S
H1980  N2041   1.027   .     S
H1981  N1849   1.027   1_655 S
H1985  N2042   1.029   .     S
H1989  N2043   1.028   .     S
H1994  N2045   1.030   .     S
H1996  C1716   1.106   1_655 S
H1998  N2046   1.032   .     S
H2002  N2047   1.032   .     S
H2007  N2048   1.031   .     S
H2011  N2049   1.031   .     S
H2016  N2050   1.028   .     S
H2020  N2051   1.029   .     S
H2024  N2052   1.027   .     S
H2025  N2058   1.019   .     S
H2029  N2053   1.032   .     S
N2033  Zn2077  2.031   .     S
N2044  Zn2078  2.031   .     S
N2054  Zn2079  2.031   .     S
N2054  C2294   1.375   1_545 S
N2055  Zn2080  2.031   .     S
N2055  C2295   1.372   1_545 S
O2061  Zn2077  2.003   .     S
O2062  Zn2080  2.003   .     S
O2063  Zn2079  1.997   .     S
O2064  Zn2496  1.997   .     S
O2065  Zn2496  2.006   .     S
O2066  Zn2079  2.006   .     S
O2067  Zn2080  2.025   .     S
O2068  Zn2495  2.025   .     S
O2069  Zn1870  2.003   1_655 S
O2070  Zn1869  1.997   1_655 S
O2071  Zn2078  1.997   .     S
O2072  Zn1870  2.006   1_655 S
O2073  Zn2077  2.006   .     S
O2074  Zn2078  2.025   .     S
O2075  Zn1869  2.025   1_655 S
O2076  Zn2495  2.003   .     S
Zn2079 O2484   2.025   1_545 S
Zn2079 O2492   2.003   1_545 S
Zn2080 O2481   2.006   1_545 S
Zn2080 O2480   1.997   1_545 S
C2081  O2279   1.291   .     A
C2081  C2110   1.448   .     S
C2081  O2269   1.303   .     A
C2082  N2241   1.361   .     A
C2082  N2265   1.418   .     S
C2082  C627    1.432   1_456 S
C2083  N2266   1.418   .     S
C2083  N2460   1.381   .     S
C2084  N2267   1.421   .     S
C2084  C688    1.426   1_556 S
C2084  N2449   1.374   .     S
C2085  N2268   1.424   .     S
C2085  N2263   1.378   .     A
C2086  N2242   1.415   .     S
C2086  C423    1.440   1_556 S
C2086  N1846   1.375   1_565 S
C2087  N2243   1.427   .     S
C2087  N1847   1.372   1_565 S
C2088  N2244   1.428   .     S
C2088  N2262   1.375   .     A
C2088  C421    1.435   1_556 S
C2089  N2245   1.431   .     S
C2089  C2100   1.393   .     A
C2089  C2108   1.399   .     A
C2090  C2107   1.399   .     A
C2090  N2246   1.421   .     S
C2090  C2101   1.382   .     A
C2091  C2098   1.399   .     A
C2091  N2247   1.438   .     S
C2091  C2107   1.413   .     A
C2092  C2109   1.438   .     S
C2092  O2277   1.294   .     A
C2092  O2278   1.295   .     A
C2093  C2108   1.406   .     A
C2093  C2099   1.396   .     A
C2093  N2248   1.427   .     S
C2094  C2110   1.407   .     A
C2094  N2249   1.431   .     S
C2094  C2105   1.387   .     A
C2095  C2109   1.415   .     A
C2095  C2106   1.400   .     A
C2095  N2250   1.423   .     S
C2096  C2102   1.387   .     A
C2096  C2109   1.405   .     A
C2096  N2251   1.424   .     S
C2097  C2110   1.424   .     A
C2097  N2253   1.422   .     S
C2097  C2104   1.400   .     A
C2098  C2112   1.414   .     A
C2098  N2254   1.428   .     S
C2099  C2111   1.407   .     A
C2099  N2255   1.426   .     S
C2100  N2256   1.420   .     S
C2100  C2111   1.409   .     A
C2101  N2257   1.420   .     S
C2101  C2112   1.408   .     A
C2102  N2258   1.427   .     S
C2102  C2115   1.400   .     A
C2103  O2280   1.294   .     A
C2103  C2108   1.426   .     S
C2103  O2283   1.289   .     A
C2104  N2259   1.430   .     S
C2104  C2113   1.398   .     A
C2105  N2260   1.433   .     S
C2105  C2113   1.406   .     A
C2106  N2261   1.427   .     S
C2106  C2115   1.401   .     A
C2107  C2114   1.433   .     S
C2111  C2143   1.442   .     S
C2112  C2142   1.446   .     S
C2113  C2136   1.443   .     S
C2114  O2281   1.297   .     A
C2114  O2282   1.290   .     A
C2115  C2125   1.439   .     S
C2116  H2167   1.113   .     S
C2116  N2264   1.448   .     S
C2116  H2156   1.108   .     S
C2116  H2178   1.106   .     S
C2117  H2222   1.112   .     S
C2117  H2211   1.110   .     S
C2117  N2265   1.449   .     S
C2117  H2200   1.106   .     S
C2118  N2266   1.451   .     S
C2118  H2148   1.109   .     S
C2118  H2146   1.112   .     S
C2118  H2147   1.110   .     S
C2119  H2152   1.108   .     S
C2119  N2267   1.447   .     S
C2119  H2151   1.112   .     S
C2119  H2150   1.109   .     S
C2120  N2268   1.448   .     S
C2120  H2155   1.111   .     S
C2120  H2154   1.108   .     S
C2120  H2157   1.107   .     S
C2121  H2160   1.088   .     S
C2121  H2161   1.105   .     S
C2121  H2159   1.103   .     S
C2121  N2242   1.445   .     S
C2122  H2164   1.094   .     S
C2122  H2165   1.111   .     S
C2122  N2243   1.443   .     S
C2122  H2163   1.101   .     S
C2123  H2169   1.096   .     S
C2123  H2168   1.108   .     S
C2123  N2244   1.447   .     S
C2123  H2170   1.110   .     S
C2124  N2245   1.447   .     S
C2124  H2173   1.105   .     S
C2124  H2172   1.110   .     S
C2124  H2174   1.110   .     S
C2125  O2272   1.301   .     A
C2125  O2284   1.289   .     A
C2126  H2179   1.110   .     S
C2126  H2176   1.108   .     S
C2126  H2177   1.110   .     S
C2126  N2246   1.448   .     S
C2127  H2181   1.111   .     S
C2127  H2182   1.098   .     S
C2127  H2183   1.111   .     S
C2127  N2247   1.445   .     S
C2128  H2187   1.111   .     S
C2128  H2186   1.107   .     S
C2128  N2248   1.442   .     S
C2128  H2393   1.109   .     S
C2129  N2249   1.447   .     S
C2129  H2191   1.109   .     S
C2129  H2192   1.110   .     S
C2129  H2190   1.112   .     S
C2130  H2194   1.112   .     S
C2130  N2250   1.447   .     S
C2130  H2196   1.110   .     S
C2130  H2403   1.109   .     S
C2131  H2198   1.108   .     S
C2131  H2199   1.110   .     S
C2131  H2201   1.109   .     S
C2131  N2251   1.445   .     S
C2132  H2203   1.108   .     S
C2132  H2205   1.112   .     S
C2132  N2253   1.455   .     S
C2132  H2412   1.106   1_455 S
C2133  H2207   1.105   .     S
C2133  N2254   1.444   .     S
C2133  H2208   1.100   .     S
C2133  H2209   1.109   .     S
C2134  H2214   1.111   .     S
C2134  H2213   1.112   .     S
C2134  N2255   1.452   .     S
C2134  H2212   1.109   .     S
C2135  H2218   1.106   .     S
C2135  H2216   1.108   .     S
C2135  H2217   1.110   .     S
C2135  N2256   1.452   .     S
C2136  O2271   1.285   .     A
C2136  O2270   1.306   .     A
C2137  H2223   1.108   .     S
C2137  H2220   1.106   .     S
C2137  H2221   1.111   .     S
C2137  N2257   1.459   .     S
C2138  H2225   1.103   .     S
C2138  N2258   1.439   .     S
C2138  H2227   1.107   .     S
C2138  H2226   1.104   .     S
C2139  H2229   1.108   .     S
C2139  H2230   1.108   .     S
C2139  H2231   1.109   .     S
C2139  N2259   1.446   .     S
C2140  H2234   1.111   .     S
C2140  H2236   1.110   .     S
C2140  N2260   1.450   .     S
C2140  H2235   1.110   .     S
C2141  H2239   1.110   .     S
C2141  H2240   1.110   .     S
C2141  N2261   1.444   .     S
C2141  H2238   1.110   .     S
C2142  O2276   1.301   .     A
C2142  O2273   1.294   .     A
C2143  O2274   1.297   .     A
C2143  O2275   1.294   .     A
C2144  N2252   1.370   .     A
C2144  N2264   1.418   .     S
C2144  C1460   1.426   1_455 S
H2145  N2264   1.019   .     S
H2149  N2267   1.018   .     S
H2153  N2268   1.019   .     S
H2158  N2242   1.024   .     S
H2162  N2243   1.026   .     S
H2166  N2244   1.030   .     S
H2171  N2245   1.031   .     S
H2175  N2246   1.029   .     S
H2180  N2247   1.029   .     S
H2184  N2248   1.029   .     S
H2185  C2336   1.109   1_455 S
H2188  N2249   1.027   .     S
H2189  N2473   1.027   .     S
H2193  N2250   1.029   .     S
H2195  C2338   1.109   1_455 S
H2197  N2251   1.028   .     S
H2202  N2253   1.030   .     S
H2204  C2340   1.106   .     S
H2206  N2254   1.032   .     S
H2210  N2255   1.032   .     S
H2215  N2256   1.031   .     S
H2219  N2257   1.031   .     S
H2224  N2258   1.028   .     S
H2228  N2259   1.029   .     S
H2232  N2260   1.027   .     S
H2233  N2266   1.019   .     S
H2237  N2261   1.032   .     S
N2241  Zn2285  2.031   .     S
N2241  C2292   1.374   1_455 S
N2252  Zn2286  2.031   .     S
N2252  C2291   1.381   1_455 S
N2262  Zn2287  2.031   .     S
N2263  Zn2288  2.031   .     S
N2265  H2397   1.027   1_455 S
O2269  Zn2285  2.003   .     S
O2270  Zn2288  2.003   .     S
O2271  Zn2287  1.997   .     S
O2272  Zn1872  1.997   1_565 S
O2273  Zn1872  2.006   1_565 S
O2274  Zn2287  2.006   .     S
O2275  Zn2288  2.025   .     S
O2276  Zn1871  2.025   1_565 S
O2277  Zn2494  2.003   .     S
O2278  Zn2493  1.997   .     S
O2279  Zn2286  1.997   .     S
O2280  Zn2494  2.006   .     S
O2281  Zn2285  2.006   .     S
O2282  Zn2286  2.025   .     S
O2283  Zn2493  2.025   .     S
O2284  Zn1871  2.003   1_565 S
Zn2285 O2491   2.025   1_455 S
Zn2285 O2486   1.997   1_455 S
Zn2286 O2488   2.006   1_455 S
Zn2286 O2485   2.003   1_455 S
C2289  O2487   1.291   .     A
C2289  C2318   1.448   .     S
C2289  O2477   1.303   .     A
C2290  N2449   1.361   .     A
C2290  N2473   1.418   .     S
C2290  C419    1.432   1_556 S
C2291  N2474   1.418   .     S
C2291  C1250   1.432   1_655 S
C2291  N2252   1.381   1_655 S
C2292  N2475   1.421   .     S
C2292  C480    1.426   1_656 S
C2292  N2241   1.374   1_655 S
C2293  N2476   1.424   .     S
C2293  N2471   1.378   .     A
C2294  N2450   1.415   .     S
C2294  C631    1.440   1_556 S
C2294  N2054   1.375   1_565 S
C2295  N2451   1.427   .     S
C2295  N2055   1.372   1_565 S
C2296  N2452   1.428   .     S
C2296  N2470   1.375   .     A
C2296  C629    1.435   1_556 S
C2297  N2453   1.431   .     S
C2297  C2308   1.393   .     A
C2297  C2316   1.399   .     A
C2298  C2315   1.399   .     A
C2298  N2454   1.421   .     S
C2298  C2309   1.382   .     A
C2299  C2306   1.399   .     A
C2299  N2455   1.438   .     S
C2299  C2315   1.413   .     A
C2300  C2317   1.438   .     S
C2300  O2485   1.294   .     A
C2300  O2486   1.295   .     A
C2301  C2316   1.406   .     A
C2301  C2307   1.396   .     A
C2301  N2456   1.427   .     S
C2302  C2318   1.407   .     A
C2302  N2457   1.431   .     S
C2302  C2313   1.387   .     A
C2303  C2317   1.415   .     A
C2303  C2314   1.400   .     A
C2303  N2458   1.423   .     S
C2304  C2310   1.387   .     A
C2304  C2317   1.405   .     A
C2304  N2459   1.424   .     S
C2305  C2318   1.424   .     A
C2305  N2461   1.422   .     S
C2305  C2312   1.400   .     A
C2306  C2320   1.414   .     A
C2306  N2462   1.428   .     S
C2307  C2319   1.407   .     A
C2307  N2463   1.426   .     S
C2308  N2464   1.420   .     S
C2308  C2319   1.409   .     A
C2309  N2465   1.420   .     S
C2309  C2320   1.408   .     A
C2310  N2466   1.427   .     S
C2310  C2323   1.400   .     A
C2311  O2488   1.294   .     A
C2311  C2316   1.426   .     S
C2311  O2491   1.289   .     A
C2312  N2467   1.430   .     S
C2312  C2321   1.398   .     A
C2313  N2468   1.433   .     S
C2313  C2321   1.406   .     A
C2314  N2469   1.427   .     S
C2314  C2323   1.401   .     A
C2315  C2322   1.433   .     S
C2319  C2351   1.442   .     S
C2320  C2350   1.446   .     S
C2321  C2344   1.443   .     S
C2322  O2489   1.297   .     A
C2322  O2490   1.290   .     A
C2323  C2333   1.439   .     S
C2324  H2375   1.113   .     S
C2324  N2472   1.448   .     S
C2324  H2364   1.108   .     S
C2324  H2386   1.106   .     S
C2325  H2430   1.112   .     S
C2325  H2419   1.110   .     S
C2325  N2473   1.449   .     S
C2325  H2408   1.106   .     S
C2326  N2474   1.451   .     S
C2326  H2356   1.109   .     S
C2326  H2354   1.112   .     S
C2326  H2355   1.110   .     S
C2327  H2360   1.108   .     S
C2327  N2475   1.447   .     S
C2327  H2359   1.112   .     S
C2327  H2358   1.109   .     S
C2328  N2476   1.448   .     S
C2328  H2363   1.111   .     S
C2328  H2362   1.108   .     S
C2328  H2365   1.107   .     S
C2329  H2368   1.088   .     S
C2329  H2369   1.105   .     S
C2329  H2367   1.103   .     S
C2329  N2450   1.445   .     S
C2330  H2372   1.094   .     S
C2330  H2373   1.111   .     S
C2330  N2451   1.443   .     S
C2330  H2371   1.101   .     S
C2331  H2377   1.096   .     S
C2331  H2376   1.108   .     S
C2331  N2452   1.447   .     S
C2331  H2378   1.110   .     S
C2332  N2453   1.447   .     S
C2332  H2381   1.105   .     S
C2332  H2380   1.110   .     S
C2332  H2382   1.110   .     S
C2333  O2480   1.301   .     A
C2333  O2492   1.289   .     A
C2334  H2387   1.110   .     S
C2334  H2384   1.108   .     S
C2334  H2385   1.110   .     S
C2334  N2454   1.448   .     S
C2335  H2389   1.111   .     S
C2335  H2390   1.098   .     S
C2335  H2391   1.111   .     S
C2335  N2455   1.445   .     S
C2336  H2395   1.111   .     S
C2336  H2394   1.107   .     S
C2336  N2456   1.442   .     S
C2336  H2185   1.109   1_655 S
C2337  N2457   1.447   .     S
C2337  H2399   1.109   .     S
C2337  H2400   1.110   .     S
C2337  H2398   1.112   .     S
C2338  H2402   1.112   .     S
C2338  N2458   1.447   .     S
C2338  H2404   1.110   .     S
C2338  H2195   1.109   1_655 S
C2339  H2406   1.108   .     S
C2339  H2407   1.110   .     S
C2339  H2409   1.109   .     S
C2339  N2459   1.445   .     S
C2340  H2411   1.108   .     S
C2340  H2413   1.112   .     S
C2340  N2461   1.455   .     S
C2341  H2415   1.105   .     S
C2341  N2462   1.444   .     S
C2341  H2416   1.100   .     S
C2341  H2417   1.109   .     S
C2342  H2422   1.111   .     S
C2342  H2421   1.112   .     S
C2342  N2463   1.452   .     S
C2342  H2420   1.109   .     S
C2343  H2426   1.106   .     S
C2343  H2424   1.108   .     S
C2343  H2425   1.110   .     S
C2343  N2464   1.452   .     S
C2344  O2479   1.285   .     A
C2344  O2478   1.306   .     A
C2345  H2431   1.108   .     S
C2345  H2428   1.106   .     S
C2345  H2429   1.111   .     S
C2345  N2465   1.459   .     S
C2346  H2433   1.103   .     S
C2346  N2466   1.439   .     S
C2346  H2435   1.107   .     S
C2346  H2434   1.104   .     S
C2347  H2437   1.108   .     S
C2347  H2438   1.108   .     S
C2347  H2439   1.109   .     S
C2347  N2467   1.446   .     S
C2348  H2442   1.111   .     S
C2348  H2444   1.110   .     S
C2348  N2468   1.450   .     S
C2348  H2443   1.110   .     S
C2349  H2447   1.110   .     S
C2349  H2448   1.110   .     S
C2349  N2469   1.444   .     S
C2349  H2446   1.110   .     S
C2350  O2484   1.301   .     A
C2350  O2481   1.294   .     A
C2351  O2482   1.297   .     A
C2351  O2483   1.294   .     A
C2352  N2460   1.370   .     A
C2352  N2472   1.418   .     S
H2353  N2472   1.019   .     S
H2357  N2475   1.018   .     S
H2361  N2476   1.019   .     S
H2366  N2450   1.024   .     S
H2370  N2451   1.026   .     S
H2374  N2452   1.030   .     S
H2379  N2453   1.031   .     S
H2383  N2454   1.029   .     S
H2388  N2455   1.029   .     S
H2392  N2456   1.029   .     S
H2396  N2457   1.027   .     S
H2397  N2265   1.027   1_655 S
H2401  N2458   1.029   .     S
H2405  N2459   1.028   .     S
H2410  N2461   1.030   .     S
H2412  C2132   1.106   1_655 S
H2414  N2462   1.032   .     S
H2418  N2463   1.032   .     S
H2423  N2464   1.031   .     S
H2427  N2465   1.031   .     S
H2432  N2466   1.028   .     S
H2436  N2467   1.029   .     S
H2440  N2468   1.027   .     S
H2441  N2474   1.019   .     S
H2445  N2469   1.032   .     S
N2449  Zn2493  2.031   .     S
N2460  Zn2494  2.031   .     S
N2470  Zn2495  2.031   .     S
N2471  Zn2496  2.031   .     S
O2477  Zn2493  2.003   .     S
O2478  Zn2496  2.003   .     S
O2479  Zn2495  1.997   .     S
O2480  Zn2080  1.997   1_565 S
O2481  Zn2080  2.006   1_565 S
O2482  Zn2495  2.006   .     S
O2483  Zn2496  2.025   .     S
O2484  Zn2079  2.025   1_565 S
O2485  Zn2286  2.003   1_655 S
O2486  Zn2285  1.997   1_655 S
O2487  Zn2494  1.997   .     S
O2488  Zn2286  2.006   1_655 S
O2489  Zn2493  2.006   .     S
O2490  Zn2494  2.025   .     S
O2491  Zn2285  2.025   1_655 S
O2492  Zn2079  2.003   1_565 S
