data_str_m3_o1_o2_pcu_sym.19
_audit_creation_date              2020-01-03
_audit_creation_method            'Materials Studio'
_symmetry_space_group_name_H-M    'P1'
_symmetry_Int_Tables_number       1
_symmetry_cell_setting            triclinic
loop_
_symmetry_equiv_pos_as_xyz
  x,y,z
_cell_length_a                    32.1422
_cell_length_b                    29.4822
_cell_length_c                    30.0201
_cell_angle_alpha                 90.0162
_cell_angle_beta                  90.1210
_cell_angle_gamma                 90.0134
loop_
_atom_site_label
_atom_site_type_symbol
_atom_site_fract_x
_atom_site_fract_y
_atom_site_fract_z
_atom_site_U_iso_or_equiv
_atom_site_adp_type
_atom_site_occupancy
C1     C     0.08661   0.16666   0.24996   0.00000  Uiso   1.00
C2     C     0.31201   0.20686   0.24032   0.00000  Uiso   1.00
C3     C     0.31204   0.12649   0.25972   0.00000  Uiso   1.00
C4     C     0.02130   0.20684   0.24026   0.00000  Uiso   1.00
C5     C     0.14370   0.20074   0.04667   0.00000  Uiso   1.00
C6     C     0.14395   0.13246   0.45325   0.00000  Uiso   1.00
C7     C     0.18555   0.20128   0.45398   0.00000  Uiso   1.00
C8     C     0.18572   0.13224   0.04612   0.00000  Uiso   1.00
C9     C     0.14384   0.20087   0.09284   0.00000  Uiso   1.00
C10    C     0.14414   0.13229   0.40709   0.00000  Uiso   1.00
C11    C     0.18684   0.20127   0.40785   0.00000  Uiso   1.00
C12    C     0.24672   0.16667   0.25003   0.00000  Uiso   1.00
C13    C     0.18696   0.13221   0.09226   0.00000  Uiso   1.00
C14    C     0.16583   0.16662   0.11577   0.00000  Uiso   1.00
C15    C     0.16592   0.16670   0.38424   0.00000  Uiso   1.00
C16    C     0.16442   0.16651   0.02383   0.00000  Uiso   1.00
C17    C     0.16443   0.16688   0.47618   0.00000  Uiso   1.00
C18    C     0.29086   0.16668   0.25004   0.00000  Uiso   1.00
C19    C     0.04248   0.16666   0.24996   0.00000  Uiso   1.00
C20    C     0.16652   0.16666   0.16386   0.00000  Uiso   1.00
C21    C     0.16658   0.16667   0.33614   0.00000  Uiso   1.00
C22    C     0.19293   0.02401   0.27731   0.00000  Uiso   1.00
C23    C     0.14039   0.30932   0.22271   0.00000  Uiso   1.00
C24    C     0.14040   0.02398   0.22270   0.00000  Uiso   1.00
C25    C     0.19294   0.30935   0.27729   0.00000  Uiso   1.00
C26    C     0.02133   0.12648   0.25969   0.00000  Uiso   1.00
H27    H     0.21391   0.04225   0.29912   0.00000  Uiso   1.00
H28    H     0.29575   0.23806   0.23249   0.00000  Uiso   1.00
H29    H     0.29579   0.09530   0.26760   0.00000  Uiso   1.00
H30    H     0.03755   0.23803   0.23235   0.00000  Uiso   1.00
H31    H     0.08972   0.23296   0.10629   0.00000  Uiso   1.00
H32    H     0.13224   0.26676   0.10669   0.00000  Uiso   1.00
H33    H     0.09027   0.09966   0.39342   0.00000  Uiso   1.00
H34    H     0.13305   0.06628   0.39327   0.00000  Uiso   1.00
H35    H     0.19834   0.26721   0.39417   0.00000  Uiso   1.00
H36    H     0.24111   0.23388   0.39634   0.00000  Uiso   1.00
H37    H     0.19876   0.06634   0.10592   0.00000  Uiso   1.00
H38    H     0.11937   0.29109   0.20095   0.00000  Uiso   1.00
H39    H     0.24137   0.09994   0.10406   0.00000  Uiso   1.00
H40    H     0.11943   0.04219   0.20088   0.00000  Uiso   1.00
H41    H     0.21395   0.29114   0.29907   0.00000  Uiso   1.00
H42    H     0.12704   0.22694   0.02862   0.00000  Uiso   1.00
H43    H     0.12746   0.10614   0.47124   0.00000  Uiso   1.00
H44    H     0.20166   0.22753   0.47254   0.00000  Uiso   1.00
H45    H     0.20199   0.10612   0.02763   0.00000  Uiso   1.00
H46    H     0.03759   0.09529   0.26755   0.00000  Uiso   1.00
N47    N     0.16667   0.28573   0.25000   0.00000  Uiso   1.00
N48    N     0.16667   0.04760   0.25000   0.00000  Uiso   1.00
N49    N     0.12085   0.23501   0.11627   0.00000  Uiso   1.00
N50    N     0.12141   0.09790   0.38358   0.00000  Uiso   1.00
N51    N     0.21032   0.23554   0.38516   0.00000  Uiso   1.00
N52    N     0.21057   0.09807   0.11505   0.00000  Uiso   1.00
O53    O     0.10559   0.20487   0.24999   0.00000  Uiso   1.00
O54    O     0.22774   0.12846   0.25001   0.00000  Uiso   1.00
O55    O     0.22774   0.20487   0.25001   0.00000  Uiso   1.00
O56    O     0.10559   0.12846   0.25000   0.00000  Uiso   1.00
O57    O     0.16666   0.20489   0.18453   0.00000  Uiso   1.00
O58    O     0.16667   0.12845   0.31547   0.00000  Uiso   1.00
O59    O     0.16667   0.20489   0.31547   0.00000  Uiso   1.00
O60    O     0.16666   0.12845   0.18453   0.00000  Uiso   1.00
Zn61   Zn    0.16667   0.21771   0.25000   0.00000  Uiso   1.00
Zn62   Zn    0.16667   0.11563   0.25000   0.00000  Uiso   1.00
C63    C     0.41995   0.16666   0.24996   0.00000  Uiso   1.00
C64    C     0.64535   0.20686   0.24032   0.00000  Uiso   1.00
C65    C     0.64537   0.12649   0.25972   0.00000  Uiso   1.00
C66    C     0.35464   0.20684   0.24026   0.00000  Uiso   1.00
C67    C     0.47703   0.20074   0.04667   0.00000  Uiso   1.00
C68    C     0.47728   0.13246   0.45325   0.00000  Uiso   1.00
C69    C     0.51888   0.20128   0.45398   0.00000  Uiso   1.00
C70    C     0.51905   0.13224   0.04612   0.00000  Uiso   1.00
C71    C     0.47718   0.20087   0.09284   0.00000  Uiso   1.00
C72    C     0.47747   0.13229   0.40709   0.00000  Uiso   1.00
C73    C     0.52018   0.20127   0.40785   0.00000  Uiso   1.00
C74    C     0.58005   0.16667   0.25003   0.00000  Uiso   1.00
C75    C     0.52029   0.13221   0.09226   0.00000  Uiso   1.00
C76    C     0.49917   0.16662   0.11577   0.00000  Uiso   1.00
C77    C     0.49925   0.16670   0.38424   0.00000  Uiso   1.00
C78    C     0.49776   0.16651   0.02383   0.00000  Uiso   1.00
C79    C     0.49776   0.16688   0.47618   0.00000  Uiso   1.00
C80    C     0.62419   0.16668   0.25004   0.00000  Uiso   1.00
C81    C     0.37581   0.16666   0.24996   0.00000  Uiso   1.00
C82    C     0.49986   0.16666   0.16386   0.00000  Uiso   1.00
C83    C     0.49991   0.16667   0.33614   0.00000  Uiso   1.00
C84    C     0.52626   0.02401   0.27731   0.00000  Uiso   1.00
C85    C     0.47372   0.30932   0.22271   0.00000  Uiso   1.00
C86    C     0.47374   0.02398   0.22270   0.00000  Uiso   1.00
C87    C     0.52627   0.30935   0.27729   0.00000  Uiso   1.00
C88    C     0.35466   0.12648   0.25969   0.00000  Uiso   1.00
H89    H     0.54724   0.04225   0.29912   0.00000  Uiso   1.00
H90    H     0.62909   0.23806   0.23249   0.00000  Uiso   1.00
H91    H     0.62913   0.09530   0.26760   0.00000  Uiso   1.00
H92    H     0.37088   0.23803   0.23235   0.00000  Uiso   1.00
H93    H     0.42305   0.23296   0.10629   0.00000  Uiso   1.00
H94    H     0.46557   0.26676   0.10669   0.00000  Uiso   1.00
H95    H     0.42360   0.09966   0.39342   0.00000  Uiso   1.00
H96    H     0.46638   0.06628   0.39327   0.00000  Uiso   1.00
H97    H     0.53167   0.26721   0.39417   0.00000  Uiso   1.00
H98    H     0.57444   0.23388   0.39634   0.00000  Uiso   1.00
H99    H     0.53210   0.06634   0.10592   0.00000  Uiso   1.00
H100   H     0.45270   0.29109   0.20095   0.00000  Uiso   1.00
H101   H     0.57470   0.09994   0.10406   0.00000  Uiso   1.00
H102   H     0.45276   0.04219   0.20088   0.00000  Uiso   1.00
H103   H     0.54728   0.29114   0.29907   0.00000  Uiso   1.00
H104   H     0.46038   0.22694   0.02862   0.00000  Uiso   1.00
H105   H     0.46079   0.10614   0.47124   0.00000  Uiso   1.00
H106   H     0.53499   0.22753   0.47254   0.00000  Uiso   1.00
H107   H     0.53533   0.10612   0.02763   0.00000  Uiso   1.00
H108   H     0.37092   0.09529   0.26755   0.00000  Uiso   1.00
N109   N     0.50000   0.28573   0.25000   0.00000  Uiso   1.00
N110   N     0.50000   0.04760   0.25000   0.00000  Uiso   1.00
N111   N     0.45418   0.23501   0.11627   0.00000  Uiso   1.00
N112   N     0.45475   0.09790   0.38358   0.00000  Uiso   1.00
N113   N     0.54365   0.23554   0.38516   0.00000  Uiso   1.00
N114   N     0.54390   0.09807   0.11505   0.00000  Uiso   1.00
O115   O     0.43892   0.20487   0.24999   0.00000  Uiso   1.00
O116   O     0.56108   0.12846   0.25001   0.00000  Uiso   1.00
O117   O     0.56108   0.20487   0.25001   0.00000  Uiso   1.00
O118   O     0.43892   0.12846   0.25000   0.00000  Uiso   1.00
O119   O     0.50000   0.20489   0.18453   0.00000  Uiso   1.00
O120   O     0.50000   0.12845   0.31547   0.00000  Uiso   1.00
O121   O     0.50000   0.20489   0.31547   0.00000  Uiso   1.00
O122   O     0.50000   0.12845   0.18453   0.00000  Uiso   1.00
Zn123  Zn    0.50000   0.21771   0.25000   0.00000  Uiso   1.00
Zn124  Zn    0.50000   0.11563   0.25000   0.00000  Uiso   1.00
C125   C     0.75328   0.16666   0.24996   0.00000  Uiso   1.00
C126   C     0.97868   0.20686   0.24032   0.00000  Uiso   1.00
C127   C     0.97870   0.12649   0.25972   0.00000  Uiso   1.00
C128   C     0.68797   0.20684   0.24026   0.00000  Uiso   1.00
C129   C     0.81037   0.20074   0.04667   0.00000  Uiso   1.00
C130   C     0.81062   0.13246   0.45325   0.00000  Uiso   1.00
C131   C     0.85221   0.20128   0.45398   0.00000  Uiso   1.00
C132   C     0.85238   0.13224   0.04612   0.00000  Uiso   1.00
C133   C     0.81051   0.20087   0.09284   0.00000  Uiso   1.00
C134   C     0.81081   0.13229   0.40709   0.00000  Uiso   1.00
C135   C     0.85351   0.20127   0.40785   0.00000  Uiso   1.00
C136   C     0.91339   0.16667   0.25003   0.00000  Uiso   1.00
C137   C     0.85363   0.13221   0.09226   0.00000  Uiso   1.00
C138   C     0.83250   0.16662   0.11577   0.00000  Uiso   1.00
C139   C     0.83258   0.16670   0.38424   0.00000  Uiso   1.00
C140   C     0.83109   0.16651   0.02383   0.00000  Uiso   1.00
C141   C     0.83109   0.16688   0.47618   0.00000  Uiso   1.00
C142   C     0.95753   0.16668   0.25004   0.00000  Uiso   1.00
C143   C     0.70914   0.16666   0.24996   0.00000  Uiso   1.00
C144   C     0.83319   0.16666   0.16386   0.00000  Uiso   1.00
C145   C     0.83325   0.16667   0.33614   0.00000  Uiso   1.00
C146   C     0.85959   0.02401   0.27731   0.00000  Uiso   1.00
C147   C     0.80705   0.30932   0.22271   0.00000  Uiso   1.00
C148   C     0.80707   0.02398   0.22270   0.00000  Uiso   1.00
C149   C     0.85961   0.30935   0.27729   0.00000  Uiso   1.00
C150   C     0.68799   0.12648   0.25969   0.00000  Uiso   1.00
H151   H     0.88057   0.04225   0.29912   0.00000  Uiso   1.00
H152   H     0.96242   0.23806   0.23249   0.00000  Uiso   1.00
H153   H     0.96246   0.09530   0.26760   0.00000  Uiso   1.00
H154   H     0.70422   0.23803   0.23235   0.00000  Uiso   1.00
H155   H     0.75638   0.23296   0.10629   0.00000  Uiso   1.00
H156   H     0.79890   0.26676   0.10669   0.00000  Uiso   1.00
H157   H     0.75693   0.09966   0.39342   0.00000  Uiso   1.00
H158   H     0.79971   0.06628   0.39327   0.00000  Uiso   1.00
H159   H     0.86500   0.26721   0.39417   0.00000  Uiso   1.00
H160   H     0.90778   0.23388   0.39634   0.00000  Uiso   1.00
H161   H     0.86543   0.06634   0.10592   0.00000  Uiso   1.00
H162   H     0.78603   0.29109   0.20095   0.00000  Uiso   1.00
H163   H     0.90804   0.09994   0.10406   0.00000  Uiso   1.00
H164   H     0.78609   0.04219   0.20088   0.00000  Uiso   1.00
H165   H     0.88061   0.29114   0.29907   0.00000  Uiso   1.00
H166   H     0.79371   0.22694   0.02862   0.00000  Uiso   1.00
H167   H     0.79413   0.10614   0.47124   0.00000  Uiso   1.00
H168   H     0.86833   0.22753   0.47254   0.00000  Uiso   1.00
H169   H     0.86866   0.10612   0.02763   0.00000  Uiso   1.00
H170   H     0.70426   0.09529   0.26755   0.00000  Uiso   1.00
N171   N     0.83333   0.28573   0.25000   0.00000  Uiso   1.00
N172   N     0.83333   0.04760   0.25000   0.00000  Uiso   1.00
N173   N     0.78751   0.23501   0.11627   0.00000  Uiso   1.00
N174   N     0.78808   0.09790   0.38358   0.00000  Uiso   1.00
N175   N     0.87698   0.23554   0.38516   0.00000  Uiso   1.00
N176   N     0.87724   0.09807   0.11505   0.00000  Uiso   1.00
O177   O     0.77226   0.20487   0.24999   0.00000  Uiso   1.00
O178   O     0.89441   0.12846   0.25001   0.00000  Uiso   1.00
O179   O     0.89441   0.20487   0.25001   0.00000  Uiso   1.00
O180   O     0.77226   0.12846   0.25000   0.00000  Uiso   1.00
O181   O     0.83333   0.20489   0.18453   0.00000  Uiso   1.00
O182   O     0.83334   0.12845   0.31547   0.00000  Uiso   1.00
O183   O     0.83334   0.20489   0.31547   0.00000  Uiso   1.00
O184   O     0.83333   0.12845   0.18453   0.00000  Uiso   1.00
Zn185  Zn    0.83333   0.21771   0.25000   0.00000  Uiso   1.00
Zn186  Zn    0.83333   0.11563   0.25000   0.00000  Uiso   1.00
C187   C     0.08661   0.50000   0.24996   0.00000  Uiso   1.00
C188   C     0.31201   0.54019   0.24032   0.00000  Uiso   1.00
C189   C     0.31204   0.45982   0.25972   0.00000  Uiso   1.00
C190   C     0.02130   0.54018   0.24026   0.00000  Uiso   1.00
C191   C     0.14370   0.53408   0.04667   0.00000  Uiso   1.00
C192   C     0.14395   0.46579   0.45325   0.00000  Uiso   1.00
C193   C     0.18555   0.53461   0.45398   0.00000  Uiso   1.00
C194   C     0.18572   0.46558   0.04612   0.00000  Uiso   1.00
C195   C     0.14384   0.53420   0.09284   0.00000  Uiso   1.00
C196   C     0.14414   0.46562   0.40709   0.00000  Uiso   1.00
C197   C     0.18684   0.53460   0.40785   0.00000  Uiso   1.00
C198   C     0.24672   0.50000   0.25003   0.00000  Uiso   1.00
C199   C     0.18696   0.46555   0.09226   0.00000  Uiso   1.00
C200   C     0.16583   0.49996   0.11577   0.00000  Uiso   1.00
C201   C     0.16592   0.50003   0.38424   0.00000  Uiso   1.00
C202   C     0.16442   0.49984   0.02383   0.00000  Uiso   1.00
C203   C     0.16443   0.50021   0.47618   0.00000  Uiso   1.00
C204   C     0.29086   0.50001   0.25004   0.00000  Uiso   1.00
C205   C     0.04248   0.49999   0.24996   0.00000  Uiso   1.00
C206   C     0.16652   0.49999   0.16386   0.00000  Uiso   1.00
C207   C     0.16658   0.50001   0.33614   0.00000  Uiso   1.00
C208   C     0.19293   0.35735   0.27731   0.00000  Uiso   1.00
C209   C     0.14039   0.64265   0.22271   0.00000  Uiso   1.00
C210   C     0.14040   0.35732   0.22270   0.00000  Uiso   1.00
C211   C     0.19294   0.64268   0.27729   0.00000  Uiso   1.00
C212   C     0.02133   0.45981   0.25969   0.00000  Uiso   1.00
H213   H     0.21391   0.37558   0.29912   0.00000  Uiso   1.00
H214   H     0.29575   0.57139   0.23249   0.00000  Uiso   1.00
H215   H     0.29579   0.42863   0.26760   0.00000  Uiso   1.00
H216   H     0.03755   0.57136   0.23235   0.00000  Uiso   1.00
H217   H     0.08972   0.56629   0.10629   0.00000  Uiso   1.00
H218   H     0.13224   0.60009   0.10669   0.00000  Uiso   1.00
H219   H     0.09027   0.43299   0.39342   0.00000  Uiso   1.00
H220   H     0.13305   0.39961   0.39327   0.00000  Uiso   1.00
H221   H     0.19834   0.60054   0.39417   0.00000  Uiso   1.00
H222   H     0.24111   0.56721   0.39634   0.00000  Uiso   1.00
H223   H     0.19876   0.39967   0.10592   0.00000  Uiso   1.00
H224   H     0.11937   0.62442   0.20095   0.00000  Uiso   1.00
H225   H     0.24137   0.43328   0.10406   0.00000  Uiso   1.00
H226   H     0.11943   0.37553   0.20088   0.00000  Uiso   1.00
H227   H     0.21395   0.62448   0.29907   0.00000  Uiso   1.00
H228   H     0.12704   0.56027   0.02862   0.00000  Uiso   1.00
H229   H     0.12746   0.43947   0.47124   0.00000  Uiso   1.00
H230   H     0.20166   0.56086   0.47254   0.00000  Uiso   1.00
H231   H     0.20199   0.43945   0.02763   0.00000  Uiso   1.00
H232   H     0.03759   0.42862   0.26755   0.00000  Uiso   1.00
N233   N     0.16667   0.61907   0.25000   0.00000  Uiso   1.00
N234   N     0.16667   0.38093   0.25000   0.00000  Uiso   1.00
N235   N     0.12085   0.56834   0.11627   0.00000  Uiso   1.00
N236   N     0.12141   0.43124   0.38358   0.00000  Uiso   1.00
N237   N     0.21032   0.56887   0.38516   0.00000  Uiso   1.00
N238   N     0.21057   0.43140   0.11505   0.00000  Uiso   1.00
O239   O     0.10559   0.53821   0.24999   0.00000  Uiso   1.00
O240   O     0.22774   0.46179   0.25001   0.00000  Uiso   1.00
O241   O     0.22774   0.53821   0.25001   0.00000  Uiso   1.00
O242   O     0.10559   0.46179   0.25000   0.00000  Uiso   1.00
O243   O     0.16666   0.53822   0.18453   0.00000  Uiso   1.00
O244   O     0.16667   0.46178   0.31547   0.00000  Uiso   1.00
O245   O     0.16667   0.53822   0.31547   0.00000  Uiso   1.00
O246   O     0.16666   0.46178   0.18453   0.00000  Uiso   1.00
Zn247  Zn    0.16667   0.55104   0.25000   0.00000  Uiso   1.00
Zn248  Zn    0.16667   0.44896   0.25000   0.00000  Uiso   1.00
C249   C     0.41995   0.50000   0.24996   0.00000  Uiso   1.00
C250   C     0.64535   0.54019   0.24032   0.00000  Uiso   1.00
C251   C     0.64537   0.45982   0.25972   0.00000  Uiso   1.00
C252   C     0.35464   0.54018   0.24026   0.00000  Uiso   1.00
C253   C     0.47703   0.53408   0.04667   0.00000  Uiso   1.00
C254   C     0.47728   0.46579   0.45325   0.00000  Uiso   1.00
C255   C     0.51888   0.53461   0.45398   0.00000  Uiso   1.00
C256   C     0.51905   0.46558   0.04612   0.00000  Uiso   1.00
C257   C     0.47718   0.53420   0.09284   0.00000  Uiso   1.00
C258   C     0.47747   0.46562   0.40709   0.00000  Uiso   1.00
C259   C     0.52018   0.53460   0.40785   0.00000  Uiso   1.00
C260   C     0.58005   0.50000   0.25003   0.00000  Uiso   1.00
C261   C     0.52029   0.46555   0.09226   0.00000  Uiso   1.00
C262   C     0.49917   0.49996   0.11577   0.00000  Uiso   1.00
C263   C     0.49925   0.50003   0.38424   0.00000  Uiso   1.00
C264   C     0.49776   0.49984   0.02383   0.00000  Uiso   1.00
C265   C     0.49776   0.50021   0.47618   0.00000  Uiso   1.00
C266   C     0.62419   0.50001   0.25004   0.00000  Uiso   1.00
C267   C     0.37581   0.49999   0.24996   0.00000  Uiso   1.00
C268   C     0.49986   0.49999   0.16386   0.00000  Uiso   1.00
C269   C     0.49991   0.50001   0.33614   0.00000  Uiso   1.00
C270   C     0.52626   0.35735   0.27731   0.00000  Uiso   1.00
C271   C     0.47372   0.64265   0.22271   0.00000  Uiso   1.00
C272   C     0.47374   0.35732   0.22270   0.00000  Uiso   1.00
C273   C     0.52627   0.64268   0.27729   0.00000  Uiso   1.00
C274   C     0.35466   0.45981   0.25969   0.00000  Uiso   1.00
H275   H     0.54724   0.37558   0.29912   0.00000  Uiso   1.00
H276   H     0.62909   0.57139   0.23249   0.00000  Uiso   1.00
H277   H     0.62913   0.42863   0.26760   0.00000  Uiso   1.00
H278   H     0.37088   0.57136   0.23235   0.00000  Uiso   1.00
H279   H     0.42305   0.56629   0.10629   0.00000  Uiso   1.00
H280   H     0.46557   0.60009   0.10669   0.00000  Uiso   1.00
H281   H     0.42360   0.43299   0.39342   0.00000  Uiso   1.00
H282   H     0.46638   0.39961   0.39327   0.00000  Uiso   1.00
H283   H     0.53167   0.60054   0.39417   0.00000  Uiso   1.00
H284   H     0.57444   0.56721   0.39634   0.00000  Uiso   1.00
H285   H     0.53210   0.39967   0.10592   0.00000  Uiso   1.00
H286   H     0.45270   0.62442   0.20095   0.00000  Uiso   1.00
H287   H     0.57470   0.43328   0.10406   0.00000  Uiso   1.00
H288   H     0.45276   0.37553   0.20088   0.00000  Uiso   1.00
H289   H     0.54728   0.62448   0.29907   0.00000  Uiso   1.00
H290   H     0.46038   0.56027   0.02862   0.00000  Uiso   1.00
H291   H     0.46079   0.43947   0.47124   0.00000  Uiso   1.00
H292   H     0.53499   0.56086   0.47254   0.00000  Uiso   1.00
H293   H     0.53533   0.43945   0.02763   0.00000  Uiso   1.00
H294   H     0.37092   0.42862   0.26755   0.00000  Uiso   1.00
N295   N     0.50000   0.61907   0.25000   0.00000  Uiso   1.00
N296   N     0.50000   0.38093   0.25000   0.00000  Uiso   1.00
N297   N     0.45418   0.56834   0.11627   0.00000  Uiso   1.00
N298   N     0.45475   0.43124   0.38358   0.00000  Uiso   1.00
N299   N     0.54365   0.56887   0.38516   0.00000  Uiso   1.00
N300   N     0.54390   0.43140   0.11505   0.00000  Uiso   1.00
O301   O     0.43892   0.53821   0.24999   0.00000  Uiso   1.00
O302   O     0.56108   0.46179   0.25001   0.00000  Uiso   1.00
O303   O     0.56108   0.53821   0.25001   0.00000  Uiso   1.00
O304   O     0.43892   0.46179   0.25000   0.00000  Uiso   1.00
O305   O     0.50000   0.53822   0.18453   0.00000  Uiso   1.00
O306   O     0.50000   0.46178   0.31547   0.00000  Uiso   1.00
O307   O     0.50000   0.53822   0.31547   0.00000  Uiso   1.00
O308   O     0.50000   0.46178   0.18453   0.00000  Uiso   1.00
Zn309  Zn    0.50000   0.55104   0.25000   0.00000  Uiso   1.00
Zn310  Zn    0.50000   0.44896   0.25000   0.00000  Uiso   1.00
C311   C     0.75328   0.50000   0.24996   0.00000  Uiso   1.00
C312   C     0.97868   0.54019   0.24032   0.00000  Uiso   1.00
C313   C     0.97870   0.45982   0.25972   0.00000  Uiso   1.00
C314   C     0.68797   0.54018   0.24026   0.00000  Uiso   1.00
C315   C     0.81037   0.53408   0.04667   0.00000  Uiso   1.00
C316   C     0.81062   0.46579   0.45325   0.00000  Uiso   1.00
C317   C     0.85221   0.53461   0.45398   0.00000  Uiso   1.00
C318   C     0.85238   0.46558   0.04612   0.00000  Uiso   1.00
C319   C     0.81051   0.53420   0.09284   0.00000  Uiso   1.00
C320   C     0.81081   0.46562   0.40709   0.00000  Uiso   1.00
C321   C     0.85351   0.53460   0.40785   0.00000  Uiso   1.00
C322   C     0.91339   0.50000   0.25003   0.00000  Uiso   1.00
C323   C     0.85363   0.46555   0.09226   0.00000  Uiso   1.00
C324   C     0.83250   0.49996   0.11577   0.00000  Uiso   1.00
C325   C     0.83258   0.50003   0.38424   0.00000  Uiso   1.00
C326   C     0.83109   0.49984   0.02383   0.00000  Uiso   1.00
C327   C     0.83109   0.50021   0.47618   0.00000  Uiso   1.00
C328   C     0.95753   0.50001   0.25004   0.00000  Uiso   1.00
C329   C     0.70914   0.49999   0.24996   0.00000  Uiso   1.00
C330   C     0.83319   0.49999   0.16386   0.00000  Uiso   1.00
C331   C     0.83325   0.50001   0.33614   0.00000  Uiso   1.00
C332   C     0.85959   0.35735   0.27731   0.00000  Uiso   1.00
C333   C     0.80705   0.64265   0.22271   0.00000  Uiso   1.00
C334   C     0.80707   0.35732   0.22270   0.00000  Uiso   1.00
C335   C     0.85961   0.64268   0.27729   0.00000  Uiso   1.00
C336   C     0.68799   0.45981   0.25969   0.00000  Uiso   1.00
H337   H     0.88057   0.37558   0.29912   0.00000  Uiso   1.00
H338   H     0.96242   0.57139   0.23249   0.00000  Uiso   1.00
H339   H     0.96246   0.42863   0.26760   0.00000  Uiso   1.00
H340   H     0.70422   0.57136   0.23235   0.00000  Uiso   1.00
H341   H     0.75638   0.56629   0.10629   0.00000  Uiso   1.00
H342   H     0.79890   0.60009   0.10669   0.00000  Uiso   1.00
H343   H     0.75693   0.43299   0.39342   0.00000  Uiso   1.00
H344   H     0.79971   0.39961   0.39327   0.00000  Uiso   1.00
H345   H     0.86500   0.60054   0.39417   0.00000  Uiso   1.00
H346   H     0.90778   0.56721   0.39634   0.00000  Uiso   1.00
H347   H     0.86543   0.39967   0.10592   0.00000  Uiso   1.00
H348   H     0.78603   0.62442   0.20095   0.00000  Uiso   1.00
H349   H     0.90804   0.43328   0.10406   0.00000  Uiso   1.00
H350   H     0.78609   0.37553   0.20088   0.00000  Uiso   1.00
H351   H     0.88061   0.62448   0.29907   0.00000  Uiso   1.00
H352   H     0.79371   0.56027   0.02862   0.00000  Uiso   1.00
H353   H     0.79413   0.43947   0.47124   0.00000  Uiso   1.00
H354   H     0.86833   0.56086   0.47254   0.00000  Uiso   1.00
H355   H     0.86866   0.43945   0.02763   0.00000  Uiso   1.00
H356   H     0.70426   0.42862   0.26755   0.00000  Uiso   1.00
N357   N     0.83333   0.61907   0.25000   0.00000  Uiso   1.00
N358   N     0.83333   0.38093   0.25000   0.00000  Uiso   1.00
N359   N     0.78751   0.56834   0.11627   0.00000  Uiso   1.00
N360   N     0.78808   0.43124   0.38358   0.00000  Uiso   1.00
N361   N     0.87698   0.56887   0.38516   0.00000  Uiso   1.00
N362   N     0.87724   0.43140   0.11505   0.00000  Uiso   1.00
O363   O     0.77226   0.53821   0.24999   0.00000  Uiso   1.00
O364   O     0.89441   0.46179   0.25001   0.00000  Uiso   1.00
O365   O     0.89441   0.53821   0.25001   0.00000  Uiso   1.00
O366   O     0.77226   0.46179   0.25000   0.00000  Uiso   1.00
O367   O     0.83333   0.53822   0.18453   0.00000  Uiso   1.00
O368   O     0.83334   0.46178   0.31547   0.00000  Uiso   1.00
O369   O     0.83334   0.53822   0.31547   0.00000  Uiso   1.00
O370   O     0.83333   0.46178   0.18453   0.00000  Uiso   1.00
Zn371  Zn    0.83333   0.55104   0.25000   0.00000  Uiso   1.00
Zn372  Zn    0.83333   0.44896   0.25000   0.00000  Uiso   1.00
C373   C     0.08661   0.83333   0.24996   0.00000  Uiso   1.00
C374   C     0.31201   0.87352   0.24032   0.00000  Uiso   1.00
C375   C     0.31204   0.79315   0.25972   0.00000  Uiso   1.00
C376   C     0.02130   0.87351   0.24026   0.00000  Uiso   1.00
C377   C     0.14370   0.86741   0.04667   0.00000  Uiso   1.00
C378   C     0.14395   0.79912   0.45325   0.00000  Uiso   1.00
C379   C     0.18555   0.86794   0.45398   0.00000  Uiso   1.00
C380   C     0.18572   0.79891   0.04612   0.00000  Uiso   1.00
C381   C     0.14384   0.86753   0.09284   0.00000  Uiso   1.00
C382   C     0.14414   0.79895   0.40709   0.00000  Uiso   1.00
C383   C     0.18684   0.86793   0.40785   0.00000  Uiso   1.00
C384   C     0.24672   0.83334   0.25003   0.00000  Uiso   1.00
C385   C     0.18696   0.79888   0.09226   0.00000  Uiso   1.00
C386   C     0.16583   0.83329   0.11577   0.00000  Uiso   1.00
C387   C     0.16592   0.83337   0.38424   0.00000  Uiso   1.00
C388   C     0.16442   0.83317   0.02383   0.00000  Uiso   1.00
C389   C     0.16443   0.83355   0.47618   0.00000  Uiso   1.00
C390   C     0.29086   0.83334   0.25004   0.00000  Uiso   1.00
C391   C     0.04248   0.83332   0.24996   0.00000  Uiso   1.00
C392   C     0.16652   0.83333   0.16386   0.00000  Uiso   1.00
C393   C     0.16658   0.83334   0.33614   0.00000  Uiso   1.00
C394   C     0.19293   0.69068   0.27731   0.00000  Uiso   1.00
C395   C     0.14039   0.97599   0.22271   0.00000  Uiso   1.00
C396   C     0.14040   0.69065   0.22270   0.00000  Uiso   1.00
C397   C     0.19294   0.97602   0.27729   0.00000  Uiso   1.00
C398   C     0.02133   0.79315   0.25969   0.00000  Uiso   1.00
H399   H     0.21391   0.70892   0.29912   0.00000  Uiso   1.00
H400   H     0.29575   0.90472   0.23249   0.00000  Uiso   1.00
H401   H     0.29579   0.76196   0.26760   0.00000  Uiso   1.00
H402   H     0.03755   0.90469   0.23235   0.00000  Uiso   1.00
H403   H     0.08972   0.89963   0.10629   0.00000  Uiso   1.00
H404   H     0.13224   0.93342   0.10669   0.00000  Uiso   1.00
H405   H     0.09027   0.76633   0.39342   0.00000  Uiso   1.00
H406   H     0.13305   0.73295   0.39327   0.00000  Uiso   1.00
H407   H     0.19834   0.93388   0.39417   0.00000  Uiso   1.00
H408   H     0.24111   0.90055   0.39634   0.00000  Uiso   1.00
H409   H     0.19876   0.73300   0.10592   0.00000  Uiso   1.00
H410   H     0.11937   0.95776   0.20095   0.00000  Uiso   1.00
H411   H     0.24137   0.76661   0.10406   0.00000  Uiso   1.00
H412   H     0.11943   0.70886   0.20088   0.00000  Uiso   1.00
H413   H     0.21395   0.95781   0.29907   0.00000  Uiso   1.00
H414   H     0.12704   0.89361   0.02862   0.00000  Uiso   1.00
H415   H     0.12746   0.77280   0.47124   0.00000  Uiso   1.00
H416   H     0.20166   0.89419   0.47254   0.00000  Uiso   1.00
H417   H     0.20199   0.77279   0.02763   0.00000  Uiso   1.00
H418   H     0.03759   0.76195   0.26755   0.00000  Uiso   1.00
N419   N     0.16667   0.95240   0.25000   0.00000  Uiso   1.00
N420   N     0.16667   0.71427   0.25000   0.00000  Uiso   1.00
N421   N     0.12085   0.90167   0.11627   0.00000  Uiso   1.00
N422   N     0.12141   0.76457   0.38358   0.00000  Uiso   1.00
N423   N     0.21032   0.90221   0.38516   0.00000  Uiso   1.00
N424   N     0.21057   0.76473   0.11505   0.00000  Uiso   1.00
O425   O     0.10559   0.87154   0.24999   0.00000  Uiso   1.00
O426   O     0.22774   0.79513   0.25001   0.00000  Uiso   1.00
O427   O     0.22774   0.87154   0.25001   0.00000  Uiso   1.00
O428   O     0.10559   0.79513   0.25000   0.00000  Uiso   1.00
O429   O     0.16666   0.87155   0.18453   0.00000  Uiso   1.00
O430   O     0.16667   0.79511   0.31547   0.00000  Uiso   1.00
O431   O     0.16667   0.87155   0.31547   0.00000  Uiso   1.00
O432   O     0.16666   0.79511   0.18453   0.00000  Uiso   1.00
Zn433  Zn    0.16667   0.88437   0.25000   0.00000  Uiso   1.00
Zn434  Zn    0.16667   0.78229   0.25000   0.00000  Uiso   1.00
C435   C     0.41995   0.83333   0.24996   0.00000  Uiso   1.00
C436   C     0.64535   0.87352   0.24032   0.00000  Uiso   1.00
C437   C     0.64537   0.79315   0.25972   0.00000  Uiso   1.00
C438   C     0.35464   0.87351   0.24026   0.00000  Uiso   1.00
C439   C     0.47703   0.86741   0.04667   0.00000  Uiso   1.00
C440   C     0.47728   0.79912   0.45325   0.00000  Uiso   1.00
C441   C     0.51888   0.86794   0.45398   0.00000  Uiso   1.00
C442   C     0.51905   0.79891   0.04612   0.00000  Uiso   1.00
C443   C     0.47718   0.86753   0.09284   0.00000  Uiso   1.00
C444   C     0.47747   0.79895   0.40709   0.00000  Uiso   1.00
C445   C     0.52018   0.86793   0.40785   0.00000  Uiso   1.00
C446   C     0.58005   0.83334   0.25003   0.00000  Uiso   1.00
C447   C     0.52029   0.79888   0.09226   0.00000  Uiso   1.00
C448   C     0.49917   0.83329   0.11577   0.00000  Uiso   1.00
C449   C     0.49925   0.83337   0.38424   0.00000  Uiso   1.00
C450   C     0.49776   0.83317   0.02383   0.00000  Uiso   1.00
C451   C     0.49776   0.83355   0.47618   0.00000  Uiso   1.00
C452   C     0.62419   0.83334   0.25004   0.00000  Uiso   1.00
C453   C     0.37581   0.83332   0.24996   0.00000  Uiso   1.00
C454   C     0.49986   0.83333   0.16386   0.00000  Uiso   1.00
C455   C     0.49991   0.83334   0.33614   0.00000  Uiso   1.00
C456   C     0.52626   0.69068   0.27731   0.00000  Uiso   1.00
C457   C     0.47372   0.97599   0.22271   0.00000  Uiso   1.00
C458   C     0.47374   0.69065   0.22270   0.00000  Uiso   1.00
C459   C     0.52627   0.97602   0.27729   0.00000  Uiso   1.00
C460   C     0.35466   0.79315   0.25969   0.00000  Uiso   1.00
H461   H     0.54724   0.70892   0.29912   0.00000  Uiso   1.00
H462   H     0.62909   0.90472   0.23249   0.00000  Uiso   1.00
H463   H     0.62913   0.76196   0.26760   0.00000  Uiso   1.00
H464   H     0.37088   0.90469   0.23235   0.00000  Uiso   1.00
H465   H     0.42305   0.89963   0.10629   0.00000  Uiso   1.00
H466   H     0.46557   0.93342   0.10669   0.00000  Uiso   1.00
H467   H     0.42360   0.76633   0.39342   0.00000  Uiso   1.00
H468   H     0.46638   0.73295   0.39327   0.00000  Uiso   1.00
H469   H     0.53167   0.93388   0.39417   0.00000  Uiso   1.00
H470   H     0.57444   0.90055   0.39634   0.00000  Uiso   1.00
H471   H     0.53210   0.73300   0.10592   0.00000  Uiso   1.00
H472   H     0.45270   0.95776   0.20095   0.00000  Uiso   1.00
H473   H     0.57470   0.76661   0.10406   0.00000  Uiso   1.00
H474   H     0.45276   0.70886   0.20088   0.00000  Uiso   1.00
H475   H     0.54728   0.95781   0.29907   0.00000  Uiso   1.00
H476   H     0.46038   0.89361   0.02862   0.00000  Uiso   1.00
H477   H     0.46079   0.77280   0.47124   0.00000  Uiso   1.00
H478   H     0.53499   0.89419   0.47254   0.00000  Uiso   1.00
H479   H     0.53533   0.77279   0.02763   0.00000  Uiso   1.00
H480   H     0.37092   0.76195   0.26755   0.00000  Uiso   1.00
N481   N     0.50000   0.95240   0.25000   0.00000  Uiso   1.00
N482   N     0.50000   0.71427   0.25000   0.00000  Uiso   1.00
N483   N     0.45418   0.90167   0.11627   0.00000  Uiso   1.00
N484   N     0.45475   0.76457   0.38358   0.00000  Uiso   1.00
N485   N     0.54365   0.90221   0.38516   0.00000  Uiso   1.00
N486   N     0.54390   0.76473   0.11505   0.00000  Uiso   1.00
O487   O     0.43892   0.87154   0.24999   0.00000  Uiso   1.00
O488   O     0.56108   0.79513   0.25001   0.00000  Uiso   1.00
O489   O     0.56108   0.87154   0.25001   0.00000  Uiso   1.00
O490   O     0.43892   0.79513   0.25000   0.00000  Uiso   1.00
O491   O     0.50000   0.87155   0.18453   0.00000  Uiso   1.00
O492   O     0.50000   0.79511   0.31547   0.00000  Uiso   1.00
O493   O     0.50000   0.87155   0.31547   0.00000  Uiso   1.00
O494   O     0.50000   0.79511   0.18453   0.00000  Uiso   1.00
Zn495  Zn    0.50000   0.88437   0.25000   0.00000  Uiso   1.00
Zn496  Zn    0.50000   0.78229   0.25000   0.00000  Uiso   1.00
C497   C     0.75328   0.83333   0.24996   0.00000  Uiso   1.00
C498   C     0.97868   0.87352   0.24032   0.00000  Uiso   1.00
C499   C     0.97870   0.79315   0.25972   0.00000  Uiso   1.00
C500   C     0.68797   0.87351   0.24026   0.00000  Uiso   1.00
C501   C     0.81037   0.86741   0.04667   0.00000  Uiso   1.00
C502   C     0.81062   0.79912   0.45325   0.00000  Uiso   1.00
C503   C     0.85221   0.86794   0.45398   0.00000  Uiso   1.00
C504   C     0.85238   0.79891   0.04612   0.00000  Uiso   1.00
C505   C     0.81051   0.86753   0.09284   0.00000  Uiso   1.00
C506   C     0.81081   0.79895   0.40709   0.00000  Uiso   1.00
C507   C     0.85351   0.86793   0.40785   0.00000  Uiso   1.00
C508   C     0.91339   0.83334   0.25003   0.00000  Uiso   1.00
C509   C     0.85363   0.79888   0.09226   0.00000  Uiso   1.00
C510   C     0.83250   0.83329   0.11577   0.00000  Uiso   1.00
C511   C     0.83258   0.83337   0.38424   0.00000  Uiso   1.00
C512   C     0.83109   0.83317   0.02383   0.00000  Uiso   1.00
C513   C     0.83109   0.83355   0.47618   0.00000  Uiso   1.00
C514   C     0.95753   0.83334   0.25004   0.00000  Uiso   1.00
C515   C     0.70914   0.83332   0.24996   0.00000  Uiso   1.00
C516   C     0.83319   0.83333   0.16386   0.00000  Uiso   1.00
C517   C     0.83325   0.83334   0.33614   0.00000  Uiso   1.00
C518   C     0.85959   0.69068   0.27731   0.00000  Uiso   1.00
C519   C     0.80705   0.97599   0.22271   0.00000  Uiso   1.00
C520   C     0.80707   0.69065   0.22270   0.00000  Uiso   1.00
C521   C     0.85961   0.97602   0.27729   0.00000  Uiso   1.00
C522   C     0.68799   0.79315   0.25969   0.00000  Uiso   1.00
H523   H     0.88057   0.70892   0.29912   0.00000  Uiso   1.00
H524   H     0.96242   0.90472   0.23249   0.00000  Uiso   1.00
H525   H     0.96246   0.76196   0.26760   0.00000  Uiso   1.00
H526   H     0.70422   0.90469   0.23235   0.00000  Uiso   1.00
H527   H     0.75638   0.89963   0.10629   0.00000  Uiso   1.00
H528   H     0.79890   0.93342   0.10669   0.00000  Uiso   1.00
H529   H     0.75693   0.76633   0.39342   0.00000  Uiso   1.00
H530   H     0.79971   0.73295   0.39327   0.00000  Uiso   1.00
H531   H     0.86500   0.93388   0.39417   0.00000  Uiso   1.00
H532   H     0.90778   0.90055   0.39634   0.00000  Uiso   1.00
H533   H     0.86543   0.73300   0.10592   0.00000  Uiso   1.00
H534   H     0.78603   0.95776   0.20095   0.00000  Uiso   1.00
H535   H     0.90804   0.76661   0.10406   0.00000  Uiso   1.00
H536   H     0.78609   0.70886   0.20088   0.00000  Uiso   1.00
H537   H     0.88061   0.95781   0.29907   0.00000  Uiso   1.00
H538   H     0.79371   0.89361   0.02862   0.00000  Uiso   1.00
H539   H     0.79413   0.77280   0.47124   0.00000  Uiso   1.00
H540   H     0.86833   0.89419   0.47254   0.00000  Uiso   1.00
H541   H     0.86866   0.77279   0.02763   0.00000  Uiso   1.00
H542   H     0.70426   0.76195   0.26755   0.00000  Uiso   1.00
N543   N     0.83333   0.95240   0.25000   0.00000  Uiso   1.00
N544   N     0.83333   0.71427   0.25000   0.00000  Uiso   1.00
N545   N     0.78751   0.90167   0.11627   0.00000  Uiso   1.00
N546   N     0.78808   0.76457   0.38358   0.00000  Uiso   1.00
N547   N     0.87698   0.90221   0.38516   0.00000  Uiso   1.00
N548   N     0.87724   0.76473   0.11505   0.00000  Uiso   1.00
O549   O     0.77226   0.87154   0.24999   0.00000  Uiso   1.00
O550   O     0.89441   0.79513   0.25001   0.00000  Uiso   1.00
O551   O     0.89441   0.87154   0.25001   0.00000  Uiso   1.00
O552   O     0.77226   0.79513   0.25000   0.00000  Uiso   1.00
O553   O     0.83333   0.87155   0.18453   0.00000  Uiso   1.00
O554   O     0.83334   0.79511   0.31547   0.00000  Uiso   1.00
O555   O     0.83334   0.87155   0.31547   0.00000  Uiso   1.00
O556   O     0.83333   0.79511   0.18453   0.00000  Uiso   1.00
Zn557  Zn    0.83333   0.88437   0.25000   0.00000  Uiso   1.00
Zn558  Zn    0.83333   0.78229   0.25000   0.00000  Uiso   1.00
C559   C     0.08661   0.16666   0.74996   0.00000  Uiso   1.00
C560   C     0.31201   0.20686   0.74032   0.00000  Uiso   1.00
C561   C     0.31204   0.12649   0.75972   0.00000  Uiso   1.00
C562   C     0.02130   0.20684   0.74026   0.00000  Uiso   1.00
C563   C     0.14370   0.20074   0.54667   0.00000  Uiso   1.00
C564   C     0.14395   0.13246   0.95325   0.00000  Uiso   1.00
C565   C     0.18555   0.20128   0.95398   0.00000  Uiso   1.00
C566   C     0.18572   0.13224   0.54612   0.00000  Uiso   1.00
C567   C     0.14384   0.20087   0.59284   0.00000  Uiso   1.00
C568   C     0.14414   0.13229   0.90709   0.00000  Uiso   1.00
C569   C     0.18684   0.20127   0.90785   0.00000  Uiso   1.00
C570   C     0.24672   0.16667   0.75003   0.00000  Uiso   1.00
C571   C     0.18696   0.13221   0.59226   0.00000  Uiso   1.00
C572   C     0.16583   0.16662   0.61577   0.00000  Uiso   1.00
C573   C     0.16592   0.16670   0.88424   0.00000  Uiso   1.00
C574   C     0.16442   0.16651   0.52383   0.00000  Uiso   1.00
C575   C     0.16443   0.16688   0.97618   0.00000  Uiso   1.00
C576   C     0.29086   0.16668   0.75004   0.00000  Uiso   1.00
C577   C     0.04248   0.16666   0.74996   0.00000  Uiso   1.00
C578   C     0.16652   0.16666   0.66386   0.00000  Uiso   1.00
C579   C     0.16658   0.16667   0.83614   0.00000  Uiso   1.00
C580   C     0.19293   0.02401   0.77731   0.00000  Uiso   1.00
C581   C     0.14039   0.30932   0.72271   0.00000  Uiso   1.00
C582   C     0.14040   0.02398   0.72270   0.00000  Uiso   1.00
C583   C     0.19294   0.30935   0.77729   0.00000  Uiso   1.00
C584   C     0.02133   0.12648   0.75969   0.00000  Uiso   1.00
H585   H     0.21391   0.04225   0.79912   0.00000  Uiso   1.00
H586   H     0.29575   0.23806   0.73249   0.00000  Uiso   1.00
H587   H     0.29579   0.09530   0.76760   0.00000  Uiso   1.00
H588   H     0.03755   0.23803   0.73235   0.00000  Uiso   1.00
H589   H     0.08972   0.23296   0.60629   0.00000  Uiso   1.00
H590   H     0.13224   0.26676   0.60669   0.00000  Uiso   1.00
H591   H     0.09027   0.09966   0.89342   0.00000  Uiso   1.00
H592   H     0.13305   0.06628   0.89327   0.00000  Uiso   1.00
H593   H     0.19834   0.26721   0.89417   0.00000  Uiso   1.00
H594   H     0.24111   0.23388   0.89634   0.00000  Uiso   1.00
H595   H     0.19876   0.06634   0.60592   0.00000  Uiso   1.00
H596   H     0.11937   0.29109   0.70095   0.00000  Uiso   1.00
H597   H     0.24137   0.09994   0.60406   0.00000  Uiso   1.00
H598   H     0.11943   0.04219   0.70088   0.00000  Uiso   1.00
H599   H     0.21395   0.29114   0.79907   0.00000  Uiso   1.00
H600   H     0.12704   0.22694   0.52862   0.00000  Uiso   1.00
H601   H     0.12746   0.10614   0.97124   0.00000  Uiso   1.00
H602   H     0.20166   0.22753   0.97254   0.00000  Uiso   1.00
H603   H     0.20199   0.10612   0.52763   0.00000  Uiso   1.00
H604   H     0.03759   0.09529   0.76755   0.00000  Uiso   1.00
N605   N     0.16667   0.28573   0.75000   0.00000  Uiso   1.00
N606   N     0.16667   0.04760   0.75000   0.00000  Uiso   1.00
N607   N     0.12085   0.23501   0.61627   0.00000  Uiso   1.00
N608   N     0.12141   0.09790   0.88358   0.00000  Uiso   1.00
N609   N     0.21032   0.23554   0.88516   0.00000  Uiso   1.00
N610   N     0.21057   0.09807   0.61505   0.00000  Uiso   1.00
O611   O     0.10559   0.20487   0.74999   0.00000  Uiso   1.00
O612   O     0.22774   0.12846   0.75001   0.00000  Uiso   1.00
O613   O     0.22774   0.20487   0.75001   0.00000  Uiso   1.00
O614   O     0.10559   0.12846   0.75000   0.00000  Uiso   1.00
O615   O     0.16666   0.20489   0.68453   0.00000  Uiso   1.00
O616   O     0.16667   0.12845   0.81547   0.00000  Uiso   1.00
O617   O     0.16667   0.20489   0.81547   0.00000  Uiso   1.00
O618   O     0.16666   0.12845   0.68453   0.00000  Uiso   1.00
Zn619  Zn    0.16667   0.21771   0.75000   0.00000  Uiso   1.00
Zn620  Zn    0.16667   0.11563   0.75000   0.00000  Uiso   1.00
C621   C     0.41995   0.16666   0.74996   0.00000  Uiso   1.00
C622   C     0.64535   0.20686   0.74032   0.00000  Uiso   1.00
C623   C     0.64537   0.12649   0.75972   0.00000  Uiso   1.00
C624   C     0.35464   0.20684   0.74026   0.00000  Uiso   1.00
C625   C     0.47703   0.20074   0.54667   0.00000  Uiso   1.00
C626   C     0.47728   0.13246   0.95325   0.00000  Uiso   1.00
C627   C     0.51888   0.20128   0.95398   0.00000  Uiso   1.00
C628   C     0.51905   0.13224   0.54612   0.00000  Uiso   1.00
C629   C     0.47718   0.20087   0.59284   0.00000  Uiso   1.00
C630   C     0.47747   0.13229   0.90709   0.00000  Uiso   1.00
C631   C     0.52018   0.20127   0.90785   0.00000  Uiso   1.00
C632   C     0.58005   0.16667   0.75003   0.00000  Uiso   1.00
C633   C     0.52029   0.13221   0.59226   0.00000  Uiso   1.00
C634   C     0.49917   0.16662   0.61577   0.00000  Uiso   1.00
C635   C     0.49925   0.16670   0.88424   0.00000  Uiso   1.00
C636   C     0.49776   0.16651   0.52383   0.00000  Uiso   1.00
C637   C     0.49776   0.16688   0.97618   0.00000  Uiso   1.00
C638   C     0.62419   0.16668   0.75004   0.00000  Uiso   1.00
C639   C     0.37581   0.16666   0.74996   0.00000  Uiso   1.00
C640   C     0.49986   0.16666   0.66386   0.00000  Uiso   1.00
C641   C     0.49991   0.16667   0.83614   0.00000  Uiso   1.00
C642   C     0.52626   0.02401   0.77731   0.00000  Uiso   1.00
C643   C     0.47372   0.30932   0.72271   0.00000  Uiso   1.00
C644   C     0.47374   0.02398   0.72270   0.00000  Uiso   1.00
C645   C     0.52627   0.30935   0.77729   0.00000  Uiso   1.00
C646   C     0.35466   0.12648   0.75969   0.00000  Uiso   1.00
H647   H     0.54724   0.04225   0.79912   0.00000  Uiso   1.00
H648   H     0.62909   0.23806   0.73249   0.00000  Uiso   1.00
H649   H     0.62913   0.09530   0.76760   0.00000  Uiso   1.00
H650   H     0.37088   0.23803   0.73235   0.00000  Uiso   1.00
H651   H     0.42305   0.23296   0.60629   0.00000  Uiso   1.00
H652   H     0.46557   0.26676   0.60669   0.00000  Uiso   1.00
H653   H     0.42360   0.09966   0.89342   0.00000  Uiso   1.00
H654   H     0.46638   0.06628   0.89327   0.00000  Uiso   1.00
H655   H     0.53167   0.26721   0.89417   0.00000  Uiso   1.00
H656   H     0.57444   0.23388   0.89634   0.00000  Uiso   1.00
H657   H     0.53210   0.06634   0.60592   0.00000  Uiso   1.00
H658   H     0.45270   0.29109   0.70095   0.00000  Uiso   1.00
H659   H     0.57470   0.09994   0.60406   0.00000  Uiso   1.00
H660   H     0.45276   0.04219   0.70088   0.00000  Uiso   1.00
H661   H     0.54728   0.29114   0.79907   0.00000  Uiso   1.00
H662   H     0.46038   0.22694   0.52862   0.00000  Uiso   1.00
H663   H     0.46079   0.10614   0.97124   0.00000  Uiso   1.00
H664   H     0.53499   0.22753   0.97254   0.00000  Uiso   1.00
H665   H     0.53533   0.10612   0.52763   0.00000  Uiso   1.00
H666   H     0.37092   0.09529   0.76755   0.00000  Uiso   1.00
N667   N     0.50000   0.28573   0.75000   0.00000  Uiso   1.00
N668   N     0.50000   0.04760   0.75000   0.00000  Uiso   1.00
N669   N     0.45418   0.23501   0.61627   0.00000  Uiso   1.00
N670   N     0.45475   0.09790   0.88358   0.00000  Uiso   1.00
N671   N     0.54365   0.23554   0.88516   0.00000  Uiso   1.00
N672   N     0.54390   0.09807   0.61505   0.00000  Uiso   1.00
O673   O     0.43892   0.20487   0.74999   0.00000  Uiso   1.00
O674   O     0.56108   0.12846   0.75001   0.00000  Uiso   1.00
O675   O     0.56108   0.20487   0.75001   0.00000  Uiso   1.00
O676   O     0.43892   0.12846   0.75000   0.00000  Uiso   1.00
O677   O     0.50000   0.20489   0.68453   0.00000  Uiso   1.00
O678   O     0.50000   0.12845   0.81547   0.00000  Uiso   1.00
O679   O     0.50000   0.20489   0.81547   0.00000  Uiso   1.00
O680   O     0.50000   0.12845   0.68453   0.00000  Uiso   1.00
Zn681  Zn    0.50000   0.21771   0.75000   0.00000  Uiso   1.00
Zn682  Zn    0.50000   0.11563   0.75000   0.00000  Uiso   1.00
C683   C     0.75328   0.16666   0.74996   0.00000  Uiso   1.00
C684   C     0.97868   0.20686   0.74032   0.00000  Uiso   1.00
C685   C     0.97870   0.12649   0.75972   0.00000  Uiso   1.00
C686   C     0.68797   0.20684   0.74026   0.00000  Uiso   1.00
C687   C     0.81037   0.20074   0.54667   0.00000  Uiso   1.00
C688   C     0.81062   0.13246   0.95325   0.00000  Uiso   1.00
C689   C     0.85221   0.20128   0.95398   0.00000  Uiso   1.00
C690   C     0.85238   0.13224   0.54612   0.00000  Uiso   1.00
C691   C     0.81051   0.20087   0.59284   0.00000  Uiso   1.00
C692   C     0.81081   0.13229   0.90709   0.00000  Uiso   1.00
C693   C     0.85351   0.20127   0.90785   0.00000  Uiso   1.00
C694   C     0.91339   0.16667   0.75003   0.00000  Uiso   1.00
C695   C     0.85363   0.13221   0.59226   0.00000  Uiso   1.00
C696   C     0.83250   0.16662   0.61577   0.00000  Uiso   1.00
C697   C     0.83258   0.16670   0.88424   0.00000  Uiso   1.00
C698   C     0.83109   0.16651   0.52383   0.00000  Uiso   1.00
C699   C     0.83109   0.16688   0.97618   0.00000  Uiso   1.00
C700   C     0.95753   0.16668   0.75004   0.00000  Uiso   1.00
C701   C     0.70914   0.16666   0.74996   0.00000  Uiso   1.00
C702   C     0.83319   0.16666   0.66386   0.00000  Uiso   1.00
C703   C     0.83325   0.16667   0.83614   0.00000  Uiso   1.00
C704   C     0.85959   0.02401   0.77731   0.00000  Uiso   1.00
C705   C     0.80705   0.30932   0.72271   0.00000  Uiso   1.00
C706   C     0.80707   0.02398   0.72270   0.00000  Uiso   1.00
C707   C     0.85961   0.30935   0.77729   0.00000  Uiso   1.00
C708   C     0.68799   0.12648   0.75969   0.00000  Uiso   1.00
H709   H     0.88057   0.04225   0.79912   0.00000  Uiso   1.00
H710   H     0.96242   0.23806   0.73249   0.00000  Uiso   1.00
H711   H     0.96246   0.09530   0.76760   0.00000  Uiso   1.00
H712   H     0.70422   0.23803   0.73235   0.00000  Uiso   1.00
H713   H     0.75638   0.23296   0.60629   0.00000  Uiso   1.00
H714   H     0.79890   0.26676   0.60669   0.00000  Uiso   1.00
H715   H     0.75693   0.09966   0.89342   0.00000  Uiso   1.00
H716   H     0.79971   0.06628   0.89327   0.00000  Uiso   1.00
H717   H     0.86500   0.26721   0.89417   0.00000  Uiso   1.00
H718   H     0.90778   0.23388   0.89634   0.00000  Uiso   1.00
H719   H     0.86543   0.06634   0.60592   0.00000  Uiso   1.00
H720   H     0.78603   0.29109   0.70095   0.00000  Uiso   1.00
H721   H     0.90804   0.09994   0.60406   0.00000  Uiso   1.00
H722   H     0.78609   0.04219   0.70088   0.00000  Uiso   1.00
H723   H     0.88061   0.29114   0.79907   0.00000  Uiso   1.00
H724   H     0.79371   0.22694   0.52862   0.00000  Uiso   1.00
H725   H     0.79413   0.10614   0.97124   0.00000  Uiso   1.00
H726   H     0.86833   0.22753   0.97254   0.00000  Uiso   1.00
H727   H     0.86866   0.10612   0.52763   0.00000  Uiso   1.00
H728   H     0.70426   0.09529   0.76755   0.00000  Uiso   1.00
N729   N     0.83333   0.28573   0.75000   0.00000  Uiso   1.00
N730   N     0.83333   0.04760   0.75000   0.00000  Uiso   1.00
N731   N     0.78751   0.23501   0.61627   0.00000  Uiso   1.00
N732   N     0.78808   0.09790   0.88358   0.00000  Uiso   1.00
N733   N     0.87698   0.23554   0.88516   0.00000  Uiso   1.00
N734   N     0.87724   0.09807   0.61505   0.00000  Uiso   1.00
O735   O     0.77226   0.20487   0.74999   0.00000  Uiso   1.00
O736   O     0.89441   0.12846   0.75001   0.00000  Uiso   1.00
O737   O     0.89441   0.20487   0.75001   0.00000  Uiso   1.00
O738   O     0.77226   0.12846   0.75000   0.00000  Uiso   1.00
O739   O     0.83333   0.20489   0.68453   0.00000  Uiso   1.00
O740   O     0.83334   0.12845   0.81547   0.00000  Uiso   1.00
O741   O     0.83334   0.20489   0.81547   0.00000  Uiso   1.00
O742   O     0.83333   0.12845   0.68453   0.00000  Uiso   1.00
Zn743  Zn    0.83333   0.21771   0.75000   0.00000  Uiso   1.00
Zn744  Zn    0.83333   0.11563   0.75000   0.00000  Uiso   1.00
C745   C     0.08661   0.50000   0.74996   0.00000  Uiso   1.00
C746   C     0.31201   0.54019   0.74032   0.00000  Uiso   1.00
C747   C     0.31204   0.45982   0.75972   0.00000  Uiso   1.00
C748   C     0.02130   0.54018   0.74026   0.00000  Uiso   1.00
C749   C     0.14370   0.53408   0.54667   0.00000  Uiso   1.00
C750   C     0.14395   0.46579   0.95325   0.00000  Uiso   1.00
C751   C     0.18555   0.53461   0.95398   0.00000  Uiso   1.00
C752   C     0.18572   0.46558   0.54612   0.00000  Uiso   1.00
C753   C     0.14384   0.53420   0.59284   0.00000  Uiso   1.00
C754   C     0.14414   0.46562   0.90709   0.00000  Uiso   1.00
C755   C     0.18684   0.53460   0.90785   0.00000  Uiso   1.00
C756   C     0.24672   0.50000   0.75003   0.00000  Uiso   1.00
C757   C     0.18696   0.46555   0.59226   0.00000  Uiso   1.00
C758   C     0.16583   0.49996   0.61577   0.00000  Uiso   1.00
C759   C     0.16592   0.50003   0.88424   0.00000  Uiso   1.00
C760   C     0.16442   0.49984   0.52383   0.00000  Uiso   1.00
C761   C     0.16443   0.50021   0.97618   0.00000  Uiso   1.00
C762   C     0.29086   0.50001   0.75004   0.00000  Uiso   1.00
C763   C     0.04248   0.49999   0.74996   0.00000  Uiso   1.00
C764   C     0.16652   0.49999   0.66386   0.00000  Uiso   1.00
C765   C     0.16658   0.50001   0.83614   0.00000  Uiso   1.00
C766   C     0.19293   0.35735   0.77731   0.00000  Uiso   1.00
C767   C     0.14039   0.64265   0.72271   0.00000  Uiso   1.00
C768   C     0.14040   0.35732   0.72270   0.00000  Uiso   1.00
C769   C     0.19294   0.64268   0.77729   0.00000  Uiso   1.00
C770   C     0.02133   0.45981   0.75969   0.00000  Uiso   1.00
H771   H     0.21391   0.37558   0.79912   0.00000  Uiso   1.00
H772   H     0.29575   0.57139   0.73249   0.00000  Uiso   1.00
H773   H     0.29579   0.42863   0.76760   0.00000  Uiso   1.00
H774   H     0.03755   0.57136   0.73235   0.00000  Uiso   1.00
H775   H     0.08972   0.56629   0.60629   0.00000  Uiso   1.00
H776   H     0.13224   0.60009   0.60669   0.00000  Uiso   1.00
H777   H     0.09027   0.43299   0.89342   0.00000  Uiso   1.00
H778   H     0.13305   0.39961   0.89327   0.00000  Uiso   1.00
H779   H     0.19834   0.60054   0.89417   0.00000  Uiso   1.00
H780   H     0.24111   0.56721   0.89634   0.00000  Uiso   1.00
H781   H     0.19876   0.39967   0.60592   0.00000  Uiso   1.00
H782   H     0.11937   0.62442   0.70095   0.00000  Uiso   1.00
H783   H     0.24137   0.43328   0.60406   0.00000  Uiso   1.00
H784   H     0.11943   0.37553   0.70088   0.00000  Uiso   1.00
H785   H     0.21395   0.62448   0.79907   0.00000  Uiso   1.00
H786   H     0.12704   0.56027   0.52862   0.00000  Uiso   1.00
H787   H     0.12746   0.43947   0.97124   0.00000  Uiso   1.00
H788   H     0.20166   0.56086   0.97254   0.00000  Uiso   1.00
H789   H     0.20199   0.43945   0.52763   0.00000  Uiso   1.00
H790   H     0.03759   0.42862   0.76755   0.00000  Uiso   1.00
N791   N     0.16667   0.61907   0.75000   0.00000  Uiso   1.00
N792   N     0.16667   0.38093   0.75000   0.00000  Uiso   1.00
N793   N     0.12085   0.56834   0.61627   0.00000  Uiso   1.00
N794   N     0.12141   0.43124   0.88358   0.00000  Uiso   1.00
N795   N     0.21032   0.56887   0.88516   0.00000  Uiso   1.00
N796   N     0.21057   0.43140   0.61505   0.00000  Uiso   1.00
O797   O     0.10559   0.53821   0.74999   0.00000  Uiso   1.00
O798   O     0.22774   0.46179   0.75001   0.00000  Uiso   1.00
O799   O     0.22774   0.53821   0.75001   0.00000  Uiso   1.00
O800   O     0.10559   0.46179   0.75000   0.00000  Uiso   1.00
O801   O     0.16666   0.53822   0.68453   0.00000  Uiso   1.00
O802   O     0.16667   0.46178   0.81547   0.00000  Uiso   1.00
O803   O     0.16667   0.53822   0.81547   0.00000  Uiso   1.00
O804   O     0.16666   0.46178   0.68453   0.00000  Uiso   1.00
Zn805  Zn    0.16667   0.55104   0.75000   0.00000  Uiso   1.00
Zn806  Zn    0.16667   0.44896   0.75000   0.00000  Uiso   1.00
C807   C     0.41995   0.50000   0.74996   0.00000  Uiso   1.00
C808   C     0.64535   0.54019   0.74032   0.00000  Uiso   1.00
C809   C     0.64537   0.45982   0.75972   0.00000  Uiso   1.00
C810   C     0.35464   0.54018   0.74026   0.00000  Uiso   1.00
C811   C     0.47703   0.53408   0.54667   0.00000  Uiso   1.00
C812   C     0.47728   0.46579   0.95325   0.00000  Uiso   1.00
C813   C     0.51888   0.53461   0.95398   0.00000  Uiso   1.00
C814   C     0.51905   0.46558   0.54612   0.00000  Uiso   1.00
C815   C     0.47718   0.53420   0.59284   0.00000  Uiso   1.00
C816   C     0.47747   0.46562   0.90709   0.00000  Uiso   1.00
C817   C     0.52018   0.53460   0.90785   0.00000  Uiso   1.00
C818   C     0.58005   0.50000   0.75003   0.00000  Uiso   1.00
C819   C     0.52029   0.46555   0.59226   0.00000  Uiso   1.00
C820   C     0.49917   0.49996   0.61577   0.00000  Uiso   1.00
C821   C     0.49925   0.50003   0.88424   0.00000  Uiso   1.00
C822   C     0.49776   0.49984   0.52383   0.00000  Uiso   1.00
C823   C     0.49776   0.50021   0.97618   0.00000  Uiso   1.00
C824   C     0.62419   0.50001   0.75004   0.00000  Uiso   1.00
C825   C     0.37581   0.49999   0.74996   0.00000  Uiso   1.00
C826   C     0.49986   0.49999   0.66386   0.00000  Uiso   1.00
C827   C     0.49991   0.50001   0.83614   0.00000  Uiso   1.00
C828   C     0.52626   0.35735   0.77731   0.00000  Uiso   1.00
C829   C     0.47372   0.64265   0.72271   0.00000  Uiso   1.00
C830   C     0.47374   0.35732   0.72270   0.00000  Uiso   1.00
C831   C     0.52627   0.64268   0.77729   0.00000  Uiso   1.00
C832   C     0.35466   0.45981   0.75969   0.00000  Uiso   1.00
H833   H     0.54724   0.37558   0.79912   0.00000  Uiso   1.00
H834   H     0.62909   0.57139   0.73249   0.00000  Uiso   1.00
H835   H     0.62913   0.42863   0.76760   0.00000  Uiso   1.00
H836   H     0.37088   0.57136   0.73235   0.00000  Uiso   1.00
H837   H     0.42305   0.56629   0.60629   0.00000  Uiso   1.00
H838   H     0.46557   0.60009   0.60669   0.00000  Uiso   1.00
H839   H     0.42360   0.43299   0.89342   0.00000  Uiso   1.00
H840   H     0.46638   0.39961   0.89327   0.00000  Uiso   1.00
H841   H     0.53167   0.60054   0.89417   0.00000  Uiso   1.00
H842   H     0.57444   0.56721   0.89634   0.00000  Uiso   1.00
H843   H     0.53210   0.39967   0.60592   0.00000  Uiso   1.00
H844   H     0.45270   0.62442   0.70095   0.00000  Uiso   1.00
H845   H     0.57470   0.43328   0.60406   0.00000  Uiso   1.00
H846   H     0.45276   0.37553   0.70088   0.00000  Uiso   1.00
H847   H     0.54728   0.62448   0.79907   0.00000  Uiso   1.00
H848   H     0.46038   0.56027   0.52862   0.00000  Uiso   1.00
H849   H     0.46079   0.43947   0.97124   0.00000  Uiso   1.00
H850   H     0.53499   0.56086   0.97254   0.00000  Uiso   1.00
H851   H     0.53533   0.43945   0.52763   0.00000  Uiso   1.00
H852   H     0.37092   0.42862   0.76755   0.00000  Uiso   1.00
N853   N     0.50000   0.61907   0.75000   0.00000  Uiso   1.00
N854   N     0.50000   0.38093   0.75000   0.00000  Uiso   1.00
N855   N     0.45418   0.56834   0.61627   0.00000  Uiso   1.00
N856   N     0.45475   0.43124   0.88358   0.00000  Uiso   1.00
N857   N     0.54365   0.56887   0.88516   0.00000  Uiso   1.00
N858   N     0.54390   0.43140   0.61505   0.00000  Uiso   1.00
O859   O     0.43892   0.53821   0.74999   0.00000  Uiso   1.00
O860   O     0.56108   0.46179   0.75001   0.00000  Uiso   1.00
O861   O     0.56108   0.53821   0.75001   0.00000  Uiso   1.00
O862   O     0.43892   0.46179   0.75000   0.00000  Uiso   1.00
O863   O     0.50000   0.53822   0.68453   0.00000  Uiso   1.00
O864   O     0.50000   0.46178   0.81547   0.00000  Uiso   1.00
O865   O     0.50000   0.53822   0.81547   0.00000  Uiso   1.00
O866   O     0.50000   0.46178   0.68453   0.00000  Uiso   1.00
Zn867  Zn    0.50000   0.55104   0.75000   0.00000  Uiso   1.00
Zn868  Zn    0.50000   0.44896   0.75000   0.00000  Uiso   1.00
C869   C     0.75328   0.50000   0.74996   0.00000  Uiso   1.00
C870   C     0.97868   0.54019   0.74032   0.00000  Uiso   1.00
C871   C     0.97870   0.45982   0.75972   0.00000  Uiso   1.00
C872   C     0.68797   0.54018   0.74026   0.00000  Uiso   1.00
C873   C     0.81037   0.53408   0.54667   0.00000  Uiso   1.00
C874   C     0.81062   0.46579   0.95325   0.00000  Uiso   1.00
C875   C     0.85221   0.53461   0.95398   0.00000  Uiso   1.00
C876   C     0.85238   0.46558   0.54612   0.00000  Uiso   1.00
C877   C     0.81051   0.53420   0.59284   0.00000  Uiso   1.00
C878   C     0.81081   0.46562   0.90709   0.00000  Uiso   1.00
C879   C     0.85351   0.53460   0.90785   0.00000  Uiso   1.00
C880   C     0.91339   0.50000   0.75003   0.00000  Uiso   1.00
C881   C     0.85363   0.46555   0.59226   0.00000  Uiso   1.00
C882   C     0.83250   0.49996   0.61577   0.00000  Uiso   1.00
C883   C     0.83258   0.50003   0.88424   0.00000  Uiso   1.00
C884   C     0.83109   0.49984   0.52383   0.00000  Uiso   1.00
C885   C     0.83109   0.50021   0.97618   0.00000  Uiso   1.00
C886   C     0.95753   0.50001   0.75004   0.00000  Uiso   1.00
C887   C     0.70914   0.49999   0.74996   0.00000  Uiso   1.00
C888   C     0.83319   0.49999   0.66386   0.00000  Uiso   1.00
C889   C     0.83325   0.50001   0.83614   0.00000  Uiso   1.00
C890   C     0.85959   0.35735   0.77731   0.00000  Uiso   1.00
C891   C     0.80705   0.64265   0.72271   0.00000  Uiso   1.00
C892   C     0.80707   0.35732   0.72270   0.00000  Uiso   1.00
C893   C     0.85961   0.64268   0.77729   0.00000  Uiso   1.00
C894   C     0.68799   0.45981   0.75969   0.00000  Uiso   1.00
H895   H     0.88057   0.37558   0.79912   0.00000  Uiso   1.00
H896   H     0.96242   0.57139   0.73249   0.00000  Uiso   1.00
H897   H     0.96246   0.42863   0.76760   0.00000  Uiso   1.00
H898   H     0.70422   0.57136   0.73235   0.00000  Uiso   1.00
H899   H     0.75638   0.56629   0.60629   0.00000  Uiso   1.00
H900   H     0.79890   0.60009   0.60669   0.00000  Uiso   1.00
H901   H     0.75693   0.43299   0.89342   0.00000  Uiso   1.00
H902   H     0.79971   0.39961   0.89327   0.00000  Uiso   1.00
H903   H     0.86500   0.60054   0.89417   0.00000  Uiso   1.00
H904   H     0.90778   0.56721   0.89634   0.00000  Uiso   1.00
H905   H     0.86543   0.39967   0.60592   0.00000  Uiso   1.00
H906   H     0.78603   0.62442   0.70095   0.00000  Uiso   1.00
H907   H     0.90804   0.43328   0.60406   0.00000  Uiso   1.00
H908   H     0.78609   0.37553   0.70088   0.00000  Uiso   1.00
H909   H     0.88061   0.62448   0.79907   0.00000  Uiso   1.00
H910   H     0.79371   0.56027   0.52862   0.00000  Uiso   1.00
H911   H     0.79413   0.43947   0.97124   0.00000  Uiso   1.00
H912   H     0.86833   0.56086   0.97254   0.00000  Uiso   1.00
H913   H     0.86866   0.43945   0.52763   0.00000  Uiso   1.00
H914   H     0.70426   0.42862   0.76755   0.00000  Uiso   1.00
N915   N     0.83333   0.61907   0.75000   0.00000  Uiso   1.00
N916   N     0.83333   0.38093   0.75000   0.00000  Uiso   1.00
N917   N     0.78751   0.56834   0.61627   0.00000  Uiso   1.00
N918   N     0.78808   0.43124   0.88358   0.00000  Uiso   1.00
N919   N     0.87698   0.56887   0.88516   0.00000  Uiso   1.00
N920   N     0.87724   0.43140   0.61505   0.00000  Uiso   1.00
O921   O     0.77226   0.53821   0.74999   0.00000  Uiso   1.00
O922   O     0.89441   0.46179   0.75001   0.00000  Uiso   1.00
O923   O     0.89441   0.53821   0.75001   0.00000  Uiso   1.00
O924   O     0.77226   0.46179   0.75000   0.00000  Uiso   1.00
O925   O     0.83333   0.53822   0.68453   0.00000  Uiso   1.00
O926   O     0.83334   0.46178   0.81547   0.00000  Uiso   1.00
O927   O     0.83334   0.53822   0.81547   0.00000  Uiso   1.00
O928   O     0.83333   0.46178   0.68453   0.00000  Uiso   1.00
Zn929  Zn    0.83333   0.55104   0.75000   0.00000  Uiso   1.00
Zn930  Zn    0.83333   0.44896   0.75000   0.00000  Uiso   1.00
C931   C     0.08661   0.83333   0.74996   0.00000  Uiso   1.00
C932   C     0.31201   0.87352   0.74032   0.00000  Uiso   1.00
C933   C     0.31204   0.79315   0.75972   0.00000  Uiso   1.00
C934   C     0.02130   0.87351   0.74026   0.00000  Uiso   1.00
C935   C     0.14370   0.86741   0.54667   0.00000  Uiso   1.00
C936   C     0.14395   0.79912   0.95325   0.00000  Uiso   1.00
C937   C     0.18555   0.86794   0.95398   0.00000  Uiso   1.00
C938   C     0.18572   0.79891   0.54612   0.00000  Uiso   1.00
C939   C     0.14384   0.86753   0.59284   0.00000  Uiso   1.00
C940   C     0.14414   0.79895   0.90709   0.00000  Uiso   1.00
C941   C     0.18684   0.86793   0.90785   0.00000  Uiso   1.00
C942   C     0.24672   0.83334   0.75003   0.00000  Uiso   1.00
C943   C     0.18696   0.79888   0.59226   0.00000  Uiso   1.00
C944   C     0.16583   0.83329   0.61577   0.00000  Uiso   1.00
C945   C     0.16592   0.83337   0.88424   0.00000  Uiso   1.00
C946   C     0.16442   0.83317   0.52383   0.00000  Uiso   1.00
C947   C     0.16443   0.83355   0.97618   0.00000  Uiso   1.00
C948   C     0.29086   0.83334   0.75004   0.00000  Uiso   1.00
C949   C     0.04248   0.83332   0.74996   0.00000  Uiso   1.00
C950   C     0.16652   0.83333   0.66386   0.00000  Uiso   1.00
C951   C     0.16658   0.83334   0.83614   0.00000  Uiso   1.00
C952   C     0.19293   0.69068   0.77731   0.00000  Uiso   1.00
C953   C     0.14039   0.97599   0.72271   0.00000  Uiso   1.00
C954   C     0.14040   0.69065   0.72270   0.00000  Uiso   1.00
C955   C     0.19294   0.97602   0.77729   0.00000  Uiso   1.00
C956   C     0.02133   0.79315   0.75969   0.00000  Uiso   1.00
H957   H     0.21391   0.70892   0.79912   0.00000  Uiso   1.00
H958   H     0.29575   0.90472   0.73249   0.00000  Uiso   1.00
H959   H     0.29579   0.76196   0.76760   0.00000  Uiso   1.00
H960   H     0.03755   0.90469   0.73235   0.00000  Uiso   1.00
H961   H     0.08972   0.89963   0.60629   0.00000  Uiso   1.00
H962   H     0.13224   0.93342   0.60669   0.00000  Uiso   1.00
H963   H     0.09027   0.76633   0.89342   0.00000  Uiso   1.00
H964   H     0.13305   0.73295   0.89327   0.00000  Uiso   1.00
H965   H     0.19834   0.93388   0.89417   0.00000  Uiso   1.00
H966   H     0.24111   0.90055   0.89634   0.00000  Uiso   1.00
H967   H     0.19876   0.73300   0.60592   0.00000  Uiso   1.00
H968   H     0.11937   0.95776   0.70095   0.00000  Uiso   1.00
H969   H     0.24137   0.76661   0.60406   0.00000  Uiso   1.00
H970   H     0.11943   0.70886   0.70088   0.00000  Uiso   1.00
H971   H     0.21395   0.95781   0.79907   0.00000  Uiso   1.00
H972   H     0.12704   0.89361   0.52862   0.00000  Uiso   1.00
H973   H     0.12746   0.77280   0.97124   0.00000  Uiso   1.00
H974   H     0.20166   0.89419   0.97254   0.00000  Uiso   1.00
H975   H     0.20199   0.77279   0.52763   0.00000  Uiso   1.00
H976   H     0.03759   0.76195   0.76755   0.00000  Uiso   1.00
N977   N     0.16667   0.95240   0.75000   0.00000  Uiso   1.00
N978   N     0.16667   0.71427   0.75000   0.00000  Uiso   1.00
N979   N     0.12085   0.90167   0.61627   0.00000  Uiso   1.00
N980   N     0.12141   0.76457   0.88358   0.00000  Uiso   1.00
N981   N     0.21032   0.90221   0.88516   0.00000  Uiso   1.00
N982   N     0.21057   0.76473   0.61505   0.00000  Uiso   1.00
O983   O     0.10559   0.87154   0.74999   0.00000  Uiso   1.00
O984   O     0.22774   0.79513   0.75001   0.00000  Uiso   1.00
O985   O     0.22774   0.87154   0.75001   0.00000  Uiso   1.00
O986   O     0.10559   0.79513   0.75000   0.00000  Uiso   1.00
O987   O     0.16666   0.87155   0.68453   0.00000  Uiso   1.00
O988   O     0.16667   0.79511   0.81547   0.00000  Uiso   1.00
O989   O     0.16667   0.87155   0.81547   0.00000  Uiso   1.00
O990   O     0.16666   0.79511   0.68453   0.00000  Uiso   1.00
Zn991  Zn    0.16667   0.88437   0.75000   0.00000  Uiso   1.00
Zn992  Zn    0.16667   0.78229   0.75000   0.00000  Uiso   1.00
C993   C     0.41995   0.83333   0.74996   0.00000  Uiso   1.00
C994   C     0.64535   0.87352   0.74032   0.00000  Uiso   1.00
C995   C     0.64537   0.79315   0.75972   0.00000  Uiso   1.00
C996   C     0.35464   0.87351   0.74026   0.00000  Uiso   1.00
C997   C     0.47703   0.86741   0.54667   0.00000  Uiso   1.00
C998   C     0.47728   0.79912   0.95325   0.00000  Uiso   1.00
C999   C     0.51888   0.86794   0.95398   0.00000  Uiso   1.00
C1000  C     0.51905   0.79891   0.54612   0.00000  Uiso   1.00
C1001  C     0.47718   0.86753   0.59284   0.00000  Uiso   1.00
C1002  C     0.47747   0.79895   0.90709   0.00000  Uiso   1.00
C1003  C     0.52018   0.86793   0.90785   0.00000  Uiso   1.00
C1004  C     0.58005   0.83334   0.75003   0.00000  Uiso   1.00
C1005  C     0.52029   0.79888   0.59226   0.00000  Uiso   1.00
C1006  C     0.49917   0.83329   0.61577   0.00000  Uiso   1.00
C1007  C     0.49925   0.83337   0.88424   0.00000  Uiso   1.00
C1008  C     0.49776   0.83317   0.52383   0.00000  Uiso   1.00
C1009  C     0.49776   0.83355   0.97618   0.00000  Uiso   1.00
C1010  C     0.62419   0.83334   0.75004   0.00000  Uiso   1.00
C1011  C     0.37581   0.83332   0.74996   0.00000  Uiso   1.00
C1012  C     0.49986   0.83333   0.66386   0.00000  Uiso   1.00
C1013  C     0.49991   0.83334   0.83614   0.00000  Uiso   1.00
C1014  C     0.52626   0.69068   0.77731   0.00000  Uiso   1.00
C1015  C     0.47372   0.97599   0.72271   0.00000  Uiso   1.00
C1016  C     0.47374   0.69065   0.72270   0.00000  Uiso   1.00
C1017  C     0.52627   0.97602   0.77729   0.00000  Uiso   1.00
C1018  C     0.35466   0.79315   0.75969   0.00000  Uiso   1.00
H1019  H     0.54724   0.70892   0.79912   0.00000  Uiso   1.00
H1020  H     0.62909   0.90472   0.73249   0.00000  Uiso   1.00
H1021  H     0.62913   0.76196   0.76760   0.00000  Uiso   1.00
H1022  H     0.37088   0.90469   0.73235   0.00000  Uiso   1.00
H1023  H     0.42305   0.89963   0.60629   0.00000  Uiso   1.00
H1024  H     0.46557   0.93342   0.60669   0.00000  Uiso   1.00
H1025  H     0.42360   0.76633   0.89342   0.00000  Uiso   1.00
H1026  H     0.46638   0.73295   0.89327   0.00000  Uiso   1.00
H1027  H     0.53167   0.93388   0.89417   0.00000  Uiso   1.00
H1028  H     0.57444   0.90055   0.89634   0.00000  Uiso   1.00
H1029  H     0.53210   0.73300   0.60592   0.00000  Uiso   1.00
H1030  H     0.45270   0.95776   0.70095   0.00000  Uiso   1.00
H1031  H     0.57470   0.76661   0.60406   0.00000  Uiso   1.00
H1032  H     0.45276   0.70886   0.70088   0.00000  Uiso   1.00
H1033  H     0.54728   0.95781   0.79907   0.00000  Uiso   1.00
H1034  H     0.46038   0.89361   0.52862   0.00000  Uiso   1.00
H1035  H     0.46079   0.77280   0.97124   0.00000  Uiso   1.00
H1036  H     0.53499   0.89419   0.97254   0.00000  Uiso   1.00
H1037  H     0.53533   0.77279   0.52763   0.00000  Uiso   1.00
H1038  H     0.37092   0.76195   0.76755   0.00000  Uiso   1.00
N1039  N     0.50000   0.95240   0.75000   0.00000  Uiso   1.00
N1040  N     0.50000   0.71427   0.75000   0.00000  Uiso   1.00
N1041  N     0.45418   0.90167   0.61627   0.00000  Uiso   1.00
N1042  N     0.45475   0.76457   0.88358   0.00000  Uiso   1.00
N1043  N     0.54365   0.90221   0.88516   0.00000  Uiso   1.00
N1044  N     0.54390   0.76473   0.61505   0.00000  Uiso   1.00
O1045  O     0.43892   0.87154   0.74999   0.00000  Uiso   1.00
O1046  O     0.56108   0.79513   0.75001   0.00000  Uiso   1.00
O1047  O     0.56108   0.87154   0.75001   0.00000  Uiso   1.00
O1048  O     0.43892   0.79513   0.75000   0.00000  Uiso   1.00
O1049  O     0.50000   0.87155   0.68453   0.00000  Uiso   1.00
O1050  O     0.50000   0.79511   0.81547   0.00000  Uiso   1.00
O1051  O     0.50000   0.87155   0.81547   0.00000  Uiso   1.00
O1052  O     0.50000   0.79511   0.68453   0.00000  Uiso   1.00
Zn1053 Zn    0.50000   0.88437   0.75000   0.00000  Uiso   1.00
Zn1054 Zn    0.50000   0.78229   0.75000   0.00000  Uiso   1.00
C1055  C     0.75328   0.83333   0.74996   0.00000  Uiso   1.00
C1056  C     0.97868   0.87352   0.74032   0.00000  Uiso   1.00
C1057  C     0.97870   0.79315   0.75972   0.00000  Uiso   1.00
C1058  C     0.68797   0.87351   0.74026   0.00000  Uiso   1.00
C1059  C     0.81037   0.86741   0.54667   0.00000  Uiso   1.00
C1060  C     0.81062   0.79912   0.95325   0.00000  Uiso   1.00
C1061  C     0.85221   0.86794   0.95398   0.00000  Uiso   1.00
C1062  C     0.85238   0.79891   0.54612   0.00000  Uiso   1.00
C1063  C     0.81051   0.86753   0.59284   0.00000  Uiso   1.00
C1064  C     0.81081   0.79895   0.90709   0.00000  Uiso   1.00
C1065  C     0.85351   0.86793   0.90785   0.00000  Uiso   1.00
C1066  C     0.91339   0.83334   0.75003   0.00000  Uiso   1.00
C1067  C     0.85363   0.79888   0.59226   0.00000  Uiso   1.00
C1068  C     0.83250   0.83329   0.61577   0.00000  Uiso   1.00
C1069  C     0.83258   0.83337   0.88424   0.00000  Uiso   1.00
C1070  C     0.83109   0.83317   0.52383   0.00000  Uiso   1.00
C1071  C     0.83109   0.83355   0.97618   0.00000  Uiso   1.00
C1072  C     0.95753   0.83334   0.75004   0.00000  Uiso   1.00
C1073  C     0.70914   0.83332   0.74996   0.00000  Uiso   1.00
C1074  C     0.83319   0.83333   0.66386   0.00000  Uiso   1.00
C1075  C     0.83325   0.83334   0.83614   0.00000  Uiso   1.00
C1076  C     0.85959   0.69068   0.77731   0.00000  Uiso   1.00
C1077  C     0.80705   0.97599   0.72271   0.00000  Uiso   1.00
C1078  C     0.80707   0.69065   0.72270   0.00000  Uiso   1.00
C1079  C     0.85961   0.97602   0.77729   0.00000  Uiso   1.00
C1080  C     0.68799   0.79315   0.75969   0.00000  Uiso   1.00
H1081  H     0.88057   0.70892   0.79912   0.00000  Uiso   1.00
H1082  H     0.96242   0.90472   0.73249   0.00000  Uiso   1.00
H1083  H     0.96246   0.76196   0.76760   0.00000  Uiso   1.00
H1084  H     0.70422   0.90469   0.73235   0.00000  Uiso   1.00
H1085  H     0.75638   0.89963   0.60629   0.00000  Uiso   1.00
H1086  H     0.79890   0.93342   0.60669   0.00000  Uiso   1.00
H1087  H     0.75693   0.76633   0.89342   0.00000  Uiso   1.00
H1088  H     0.79971   0.73295   0.89327   0.00000  Uiso   1.00
H1089  H     0.86500   0.93388   0.89417   0.00000  Uiso   1.00
H1090  H     0.90778   0.90055   0.89634   0.00000  Uiso   1.00
H1091  H     0.86543   0.73300   0.60592   0.00000  Uiso   1.00
H1092  H     0.78603   0.95776   0.70095   0.00000  Uiso   1.00
H1093  H     0.90804   0.76661   0.60406   0.00000  Uiso   1.00
H1094  H     0.78609   0.70886   0.70088   0.00000  Uiso   1.00
H1095  H     0.88061   0.95781   0.79907   0.00000  Uiso   1.00
H1096  H     0.79371   0.89361   0.52862   0.00000  Uiso   1.00
H1097  H     0.79413   0.77280   0.97124   0.00000  Uiso   1.00
H1098  H     0.86833   0.89419   0.97254   0.00000  Uiso   1.00
H1099  H     0.86866   0.77279   0.52763   0.00000  Uiso   1.00
H1100  H     0.70426   0.76195   0.76755   0.00000  Uiso   1.00
N1101  N     0.83333   0.95240   0.75000   0.00000  Uiso   1.00
N1102  N     0.83333   0.71427   0.75000   0.00000  Uiso   1.00
N1103  N     0.78751   0.90167   0.61627   0.00000  Uiso   1.00
N1104  N     0.78808   0.76457   0.88358   0.00000  Uiso   1.00
N1105  N     0.87698   0.90221   0.88516   0.00000  Uiso   1.00
N1106  N     0.87724   0.76473   0.61505   0.00000  Uiso   1.00
O1107  O     0.77226   0.87154   0.74999   0.00000  Uiso   1.00
O1108  O     0.89441   0.79513   0.75001   0.00000  Uiso   1.00
O1109  O     0.89441   0.87154   0.75001   0.00000  Uiso   1.00
O1110  O     0.77226   0.79513   0.75000   0.00000  Uiso   1.00
O1111  O     0.83333   0.87155   0.68453   0.00000  Uiso   1.00
O1112  O     0.83334   0.79511   0.81547   0.00000  Uiso   1.00
O1113  O     0.83334   0.87155   0.81547   0.00000  Uiso   1.00
O1114  O     0.83333   0.79511   0.68453   0.00000  Uiso   1.00
Zn1115 Zn    0.83333   0.88437   0.75000   0.00000  Uiso   1.00
Zn1116 Zn    0.83333   0.78229   0.75000   0.00000  Uiso   1.00
loop_
_geom_bond_atom_site_label_1
_geom_bond_atom_site_label_2
_geom_bond_distance
_geom_bond_site_symmetry_2
_ccdc_geom_bond_type
C1     O56     1.281   .     A
C1     O53     1.281   .     A
C1     C19     1.419   .     S
C2     C18     1.397   .     A
C2     H28     1.084   .     S
C2     C66     1.370   .     S
C3     H29     1.084   .     S
C3     C18     1.397   .     A
C3     C88     1.370   .     S
C4     H30     1.084   .     S
C4     C19     1.397   .     A
C4     C126    1.370   1_455 S
C5     H42     1.084   .     S
C5     C9      1.386   .     A
C5     C16     1.391   .     A
C6     C10     1.386   .     A
C6     C17     1.391   .     A
C6     H43     1.084   .     S
C7     H44     1.084   .     S
C7     C11     1.386   .     A
C7     C17     1.391   .     A
C8     C13     1.386   .     A
C8     C16     1.391   .     A
C8     H45     1.084   .     S
C9     C14     1.411   .     A
C9     N49     1.434   .     S
C10    C15     1.411   .     A
C10    N50     1.434   .     S
C11    C15     1.411   .     A
C11    N51     1.434   .     S
C12    O55     1.281   .     A
C12    C18     1.419   .     S
C12    O54     1.281   .     A
C13    C14     1.411   .     A
C13    N52     1.434   .     S
C14    C20     1.444   .     S
C15    C21     1.444   .     S
C16    C575    1.430   1_554 S
C17    C574    1.430   .     S
C19    C26     1.397   .     A
C20    O57     1.286   .     A
C20    O60     1.286   .     A
C21    O58     1.286   .     A
C21    O59     1.286   .     A
C22    N48     1.366   .     A
C22    H27     1.082   .     S
C22    C397    1.415   1_545 S
C23    N47     1.366   .     A
C23    H38     1.082   .     S
C23    C210    1.415   .     S
C24    N48     1.366   .     A
C24    H40     1.082   .     S
C24    C395    1.415   1_545 S
C25    N47     1.366   .     A
C25    H41     1.082   .     S
C25    C208    1.415   .     S
C26    H46     1.084   .     S
C26    C127    1.370   1_455 S
H31    N49     1.046   .     S
H32    N49     1.046   .     S
H33    N50     1.046   .     S
H34    N50     1.046   .     S
H35    N51     1.046   .     S
H36    N51     1.046   .     S
H37    N52     1.046   .     S
H39    N52     1.046   .     S
N47    Zn61    2.006   .     S
N48    Zn62    2.006   .     S
O53    Zn61    1.999   .     S
O54    Zn62    1.999   .     S
O55    Zn61    1.999   .     S
O56    Zn62    1.999   .     S
O57    Zn61    2.001   .     S
O58    Zn62    2.001   .     S
O59    Zn61    2.002   .     S
O60    Zn62    2.002   .     S
C63    O118    1.281   .     A
C63    O115    1.281   .     A
C63    C81     1.419   .     S
C64    C80     1.397   .     A
C64    H90     1.084   .     S
C64    C128    1.370   .     S
C65    H91     1.084   .     S
C65    C80     1.397   .     A
C65    C150    1.370   .     S
C66    H92     1.084   .     S
C66    C81     1.397   .     A
C67    H104    1.084   .     S
C67    C71     1.386   .     A
C67    C78     1.391   .     A
C68    C72     1.386   .     A
C68    C79     1.391   .     A
C68    H105    1.084   .     S
C69    H106    1.084   .     S
C69    C73     1.386   .     A
C69    C79     1.391   .     A
C70    C75     1.386   .     A
C70    C78     1.391   .     A
C70    H107    1.084   .     S
C71    C76     1.411   .     A
C71    N111    1.434   .     S
C72    C77     1.411   .     A
C72    N112    1.434   .     S
C73    C77     1.411   .     A
C73    N113    1.434   .     S
C74    O117    1.281   .     A
C74    C80     1.419   .     S
C74    O116    1.281   .     A
C75    C76     1.411   .     A
C75    N114    1.434   .     S
C76    C82     1.444   .     S
C77    C83     1.444   .     S
C78    C637    1.430   1_554 S
C79    C636    1.430   .     S
C81    C88     1.397   .     A
C82    O119    1.286   .     A
C82    O122    1.286   .     A
C83    O120    1.286   .     A
C83    O121    1.286   .     A
C84    N110    1.366   .     A
C84    H89     1.082   .     S
C84    C459    1.415   1_545 S
C85    N109    1.366   .     A
C85    H100    1.082   .     S
C85    C272    1.415   .     S
C86    N110    1.366   .     A
C86    H102    1.082   .     S
C86    C457    1.415   1_545 S
C87    N109    1.366   .     A
C87    H103    1.082   .     S
C87    C270    1.415   .     S
C88    H108    1.084   .     S
H93    N111    1.046   .     S
H94    N111    1.046   .     S
H95    N112    1.046   .     S
H96    N112    1.046   .     S
H97    N113    1.046   .     S
H98    N113    1.046   .     S
H99    N114    1.046   .     S
H101   N114    1.046   .     S
N109   Zn123   2.006   .     S
N110   Zn124   2.006   .     S
O115   Zn123   1.999   .     S
O116   Zn124   1.999   .     S
O117   Zn123   1.999   .     S
O118   Zn124   1.999   .     S
O119   Zn123   2.001   .     S
O120   Zn124   2.001   .     S
O121   Zn123   2.002   .     S
O122   Zn124   2.002   .     S
C125   O180    1.281   .     A
C125   O177    1.281   .     A
C125   C143    1.419   .     S
C126   C142    1.397   .     A
C126   H152    1.084   .     S
C126   C4      1.370   1_655 S
C127   H153    1.084   .     S
C127   C142    1.397   .     A
C127   C26     1.370   1_655 S
C128   H154    1.084   .     S
C128   C143    1.397   .     A
C129   H166    1.084   .     S
C129   C133    1.386   .     A
C129   C140    1.391   .     A
C130   C134    1.386   .     A
C130   C141    1.391   .     A
C130   H167    1.084   .     S
C131   H168    1.084   .     S
C131   C135    1.386   .     A
C131   C141    1.391   .     A
C132   C137    1.386   .     A
C132   C140    1.391   .     A
C132   H169    1.084   .     S
C133   C138    1.411   .     A
C133   N173    1.434   .     S
C134   C139    1.411   .     A
C134   N174    1.434   .     S
C135   C139    1.411   .     A
C135   N175    1.434   .     S
C136   O179    1.281   .     A
C136   C142    1.419   .     S
C136   O178    1.281   .     A
C137   C138    1.411   .     A
C137   N176    1.434   .     S
C138   C144    1.444   .     S
C139   C145    1.444   .     S
C140   C699    1.430   1_554 S
C141   C698    1.430   .     S
C143   C150    1.397   .     A
C144   O181    1.286   .     A
C144   O184    1.286   .     A
C145   O182    1.286   .     A
C145   O183    1.286   .     A
C146   N172    1.366   .     A
C146   H151    1.082   .     S
C146   C521    1.415   1_545 S
C147   N171    1.366   .     A
C147   H162    1.082   .     S
C147   C334    1.415   .     S
C148   N172    1.366   .     A
C148   H164    1.082   .     S
C148   C519    1.415   1_545 S
C149   N171    1.366   .     A
C149   H165    1.082   .     S
C149   C332    1.415   .     S
C150   H170    1.084   .     S
H155   N173    1.046   .     S
H156   N173    1.046   .     S
H157   N174    1.046   .     S
H158   N174    1.046   .     S
H159   N175    1.046   .     S
H160   N175    1.046   .     S
H161   N176    1.046   .     S
H163   N176    1.046   .     S
N171   Zn185   2.006   .     S
N172   Zn186   2.006   .     S
O177   Zn185   1.999   .     S
O178   Zn186   1.999   .     S
O179   Zn185   1.999   .     S
O180   Zn186   1.999   .     S
O181   Zn185   2.001   .     S
O182   Zn186   2.001   .     S
O183   Zn185   2.002   .     S
O184   Zn186   2.002   .     S
C187   O242    1.281   .     A
C187   O239    1.281   .     A
C187   C205    1.419   .     S
C188   C204    1.397   .     A
C188   H214    1.084   .     S
C188   C252    1.370   .     S
C189   H215    1.084   .     S
C189   C204    1.397   .     A
C189   C274    1.370   .     S
C190   H216    1.084   .     S
C190   C205    1.397   .     A
C190   C312    1.370   1_455 S
C191   H228    1.084   .     S
C191   C195    1.386   .     A
C191   C202    1.391   .     A
C192   C196    1.386   .     A
C192   C203    1.391   .     A
C192   H229    1.084   .     S
C193   H230    1.084   .     S
C193   C197    1.386   .     A
C193   C203    1.391   .     A
C194   C199    1.386   .     A
C194   C202    1.391   .     A
C194   H231    1.084   .     S
C195   C200    1.411   .     A
C195   N235    1.434   .     S
C196   C201    1.411   .     A
C196   N236    1.434   .     S
C197   C201    1.411   .     A
C197   N237    1.434   .     S
C198   O241    1.281   .     A
C198   C204    1.419   .     S
C198   O240    1.281   .     A
C199   C200    1.411   .     A
C199   N238    1.434   .     S
C200   C206    1.444   .     S
C201   C207    1.444   .     S
C202   C761    1.430   1_554 S
C203   C760    1.430   .     S
C205   C212    1.397   .     A
C206   O243    1.286   .     A
C206   O246    1.286   .     A
C207   O244    1.286   .     A
C207   O245    1.286   .     A
C208   N234    1.366   .     A
C208   H213    1.082   .     S
C209   N233    1.366   .     A
C209   H224    1.082   .     S
C209   C396    1.415   .     S
C210   N234    1.366   .     A
C210   H226    1.082   .     S
C211   N233    1.366   .     A
C211   H227    1.082   .     S
C211   C394    1.415   .     S
C212   H232    1.084   .     S
C212   C313    1.370   1_455 S
H217   N235    1.046   .     S
H218   N235    1.046   .     S
H219   N236    1.046   .     S
H220   N236    1.046   .     S
H221   N237    1.046   .     S
H222   N237    1.046   .     S
H223   N238    1.046   .     S
H225   N238    1.046   .     S
N233   Zn247   2.006   .     S
N234   Zn248   2.006   .     S
O239   Zn247   1.999   .     S
O240   Zn248   1.999   .     S
O241   Zn247   1.999   .     S
O242   Zn248   1.999   .     S
O243   Zn247   2.001   .     S
O244   Zn248   2.001   .     S
O245   Zn247   2.002   .     S
O246   Zn248   2.002   .     S
C249   O304    1.281   .     A
C249   O301    1.281   .     A
C249   C267    1.419   .     S
C250   C266    1.397   .     A
C250   H276    1.084   .     S
C250   C314    1.370   .     S
C251   H277    1.084   .     S
C251   C266    1.397   .     A
C251   C336    1.370   .     S
C252   H278    1.084   .     S
C252   C267    1.397   .     A
C253   H290    1.084   .     S
C253   C257    1.386   .     A
C253   C264    1.391   .     A
C254   C258    1.386   .     A
C254   C265    1.391   .     A
C254   H291    1.084   .     S
C255   H292    1.084   .     S
C255   C259    1.386   .     A
C255   C265    1.391   .     A
C256   C261    1.386   .     A
C256   C264    1.391   .     A
C256   H293    1.084   .     S
C257   C262    1.411   .     A
C257   N297    1.434   .     S
C258   C263    1.411   .     A
C258   N298    1.434   .     S
C259   C263    1.411   .     A
C259   N299    1.434   .     S
C260   O303    1.281   .     A
C260   C266    1.419   .     S
C260   O302    1.281   .     A
C261   C262    1.411   .     A
C261   N300    1.434   .     S
C262   C268    1.444   .     S
C263   C269    1.444   .     S
C264   C823    1.430   1_554 S
C265   C822    1.430   .     S
C267   C274    1.397   .     A
C268   O305    1.286   .     A
C268   O308    1.286   .     A
C269   O306    1.286   .     A
C269   O307    1.286   .     A
C270   N296    1.366   .     A
C270   H275    1.082   .     S
C271   N295    1.366   .     A
C271   H286    1.082   .     S
C271   C458    1.415   .     S
C272   N296    1.366   .     A
C272   H288    1.082   .     S
C273   N295    1.366   .     A
C273   H289    1.082   .     S
C273   C456    1.415   .     S
C274   H294    1.084   .     S
H279   N297    1.046   .     S
H280   N297    1.046   .     S
H281   N298    1.046   .     S
H282   N298    1.046   .     S
H283   N299    1.046   .     S
H284   N299    1.046   .     S
H285   N300    1.046   .     S
H287   N300    1.046   .     S
N295   Zn309   2.006   .     S
N296   Zn310   2.006   .     S
O301   Zn309   1.999   .     S
O302   Zn310   1.999   .     S
O303   Zn309   1.999   .     S
O304   Zn310   1.999   .     S
O305   Zn309   2.001   .     S
O306   Zn310   2.001   .     S
O307   Zn309   2.002   .     S
O308   Zn310   2.002   .     S
C311   O366    1.281   .     A
C311   O363    1.281   .     A
C311   C329    1.419   .     S
C312   C328    1.397   .     A
C312   H338    1.084   .     S
C312   C190    1.370   1_655 S
C313   H339    1.084   .     S
C313   C328    1.397   .     A
C313   C212    1.370   1_655 S
C314   H340    1.084   .     S
C314   C329    1.397   .     A
C315   H352    1.084   .     S
C315   C319    1.386   .     A
C315   C326    1.391   .     A
C316   C320    1.386   .     A
C316   C327    1.391   .     A
C316   H353    1.084   .     S
C317   H354    1.084   .     S
C317   C321    1.386   .     A
C317   C327    1.391   .     A
C318   C323    1.386   .     A
C318   C326    1.391   .     A
C318   H355    1.084   .     S
C319   C324    1.411   .     A
C319   N359    1.434   .     S
C320   C325    1.411   .     A
C320   N360    1.434   .     S
C321   C325    1.411   .     A
C321   N361    1.434   .     S
C322   O365    1.281   .     A
C322   C328    1.419   .     S
C322   O364    1.281   .     A
C323   C324    1.411   .     A
C323   N362    1.434   .     S
C324   C330    1.444   .     S
C325   C331    1.444   .     S
C326   C885    1.430   1_554 S
C327   C884    1.430   .     S
C329   C336    1.397   .     A
C330   O367    1.286   .     A
C330   O370    1.286   .     A
C331   O368    1.286   .     A
C331   O369    1.286   .     A
C332   N358    1.366   .     A
C332   H337    1.082   .     S
C333   N357    1.366   .     A
C333   H348    1.082   .     S
C333   C520    1.415   .     S
C334   N358    1.366   .     A
C334   H350    1.082   .     S
C335   N357    1.366   .     A
C335   H351    1.082   .     S
C335   C518    1.415   .     S
C336   H356    1.084   .     S
H341   N359    1.046   .     S
H342   N359    1.046   .     S
H343   N360    1.046   .     S
H344   N360    1.046   .     S
H345   N361    1.046   .     S
H346   N361    1.046   .     S
H347   N362    1.046   .     S
H349   N362    1.046   .     S
N357   Zn371   2.006   .     S
N358   Zn372   2.006   .     S
O363   Zn371   1.999   .     S
O364   Zn372   1.999   .     S
O365   Zn371   1.999   .     S
O366   Zn372   1.999   .     S
O367   Zn371   2.001   .     S
O368   Zn372   2.001   .     S
O369   Zn371   2.002   .     S
O370   Zn372   2.002   .     S
C373   O428    1.281   .     A
C373   O425    1.281   .     A
C373   C391    1.419   .     S
C374   C390    1.397   .     A
C374   H400    1.084   .     S
C374   C438    1.370   .     S
C375   H401    1.084   .     S
C375   C390    1.397   .     A
C375   C460    1.370   .     S
C376   H402    1.084   .     S
C376   C391    1.397   .     A
C376   C498    1.370   1_455 S
C377   H414    1.084   .     S
C377   C381    1.386   .     A
C377   C388    1.391   .     A
C378   C382    1.386   .     A
C378   C389    1.391   .     A
C378   H415    1.084   .     S
C379   H416    1.084   .     S
C379   C383    1.386   .     A
C379   C389    1.391   .     A
C380   C385    1.386   .     A
C380   C388    1.391   .     A
C380   H417    1.084   .     S
C381   C386    1.411   .     A
C381   N421    1.434   .     S
C382   C387    1.411   .     A
C382   N422    1.434   .     S
C383   C387    1.411   .     A
C383   N423    1.434   .     S
C384   O427    1.281   .     A
C384   C390    1.419   .     S
C384   O426    1.281   .     A
C385   C386    1.411   .     A
C385   N424    1.434   .     S
C386   C392    1.444   .     S
C387   C393    1.444   .     S
C388   C947    1.430   1_554 S
C389   C946    1.430   .     S
C391   C398    1.397   .     A
C392   O429    1.286   .     A
C392   O432    1.286   .     A
C393   O430    1.286   .     A
C393   O431    1.286   .     A
C394   N420    1.366   .     A
C394   H399    1.082   .     S
C395   N419    1.366   .     A
C395   H410    1.082   .     S
C395   C24     1.415   1_565 S
C396   N420    1.366   .     A
C396   H412    1.082   .     S
C397   N419    1.366   .     A
C397   H413    1.082   .     S
C397   C22     1.415   1_565 S
C398   H418    1.084   .     S
C398   C499    1.370   1_455 S
H403   N421    1.046   .     S
H404   N421    1.046   .     S
H405   N422    1.046   .     S
H406   N422    1.046   .     S
H407   N423    1.046   .     S
H408   N423    1.046   .     S
H409   N424    1.046   .     S
H411   N424    1.046   .     S
N419   Zn433   2.006   .     S
N420   Zn434   2.006   .     S
O425   Zn433   1.999   .     S
O426   Zn434   1.999   .     S
O427   Zn433   1.999   .     S
O428   Zn434   1.999   .     S
O429   Zn433   2.001   .     S
O430   Zn434   2.001   .     S
O431   Zn433   2.002   .     S
O432   Zn434   2.002   .     S
C435   O490    1.281   .     A
C435   O487    1.281   .     A
C435   C453    1.419   .     S
C436   C452    1.397   .     A
C436   H462    1.084   .     S
C436   C500    1.370   .     S
C437   H463    1.084   .     S
C437   C452    1.397   .     A
C437   C522    1.370   .     S
C438   H464    1.084   .     S
C438   C453    1.397   .     A
C439   H476    1.084   .     S
C439   C443    1.386   .     A
C439   C450    1.391   .     A
C440   C444    1.386   .     A
C440   C451    1.391   .     A
C440   H477    1.084   .     S
C441   H478    1.084   .     S
C441   C445    1.386   .     A
C441   C451    1.391   .     A
C442   C447    1.386   .     A
C442   C450    1.391   .     A
C442   H479    1.084   .     S
C443   C448    1.411   .     A
C443   N483    1.434   .     S
C444   C449    1.411   .     A
C444   N484    1.434   .     S
C445   C449    1.411   .     A
C445   N485    1.434   .     S
C446   O489    1.281   .     A
C446   C452    1.419   .     S
C446   O488    1.281   .     A
C447   C448    1.411   .     A
C447   N486    1.434   .     S
C448   C454    1.444   .     S
C449   C455    1.444   .     S
C450   C1009   1.430   1_554 S
C451   C1008   1.430   .     S
C453   C460    1.397   .     A
C454   O491    1.286   .     A
C454   O494    1.286   .     A
C455   O492    1.286   .     A
C455   O493    1.286   .     A
C456   N482    1.366   .     A
C456   H461    1.082   .     S
C457   N481    1.366   .     A
C457   H472    1.082   .     S
C457   C86     1.415   1_565 S
C458   N482    1.366   .     A
C458   H474    1.082   .     S
C459   N481    1.366   .     A
C459   H475    1.082   .     S
C459   C84     1.415   1_565 S
C460   H480    1.084   .     S
H465   N483    1.046   .     S
H466   N483    1.046   .     S
H467   N484    1.046   .     S
H468   N484    1.046   .     S
H469   N485    1.046   .     S
H470   N485    1.046   .     S
H471   N486    1.046   .     S
H473   N486    1.046   .     S
N481   Zn495   2.006   .     S
N482   Zn496   2.006   .     S
O487   Zn495   1.999   .     S
O488   Zn496   1.999   .     S
O489   Zn495   1.999   .     S
O490   Zn496   1.999   .     S
O491   Zn495   2.001   .     S
O492   Zn496   2.001   .     S
O493   Zn495   2.002   .     S
O494   Zn496   2.002   .     S
C497   O552    1.281   .     A
C497   O549    1.281   .     A
C497   C515    1.419   .     S
C498   C514    1.397   .     A
C498   H524    1.084   .     S
C498   C376    1.370   1_655 S
C499   H525    1.084   .     S
C499   C514    1.397   .     A
C499   C398    1.370   1_655 S
C500   H526    1.084   .     S
C500   C515    1.397   .     A
C501   H538    1.084   .     S
C501   C505    1.386   .     A
C501   C512    1.391   .     A
C502   C506    1.386   .     A
C502   C513    1.391   .     A
C502   H539    1.084   .     S
C503   H540    1.084   .     S
C503   C507    1.386   .     A
C503   C513    1.391   .     A
C504   C509    1.386   .     A
C504   C512    1.391   .     A
C504   H541    1.084   .     S
C505   C510    1.411   .     A
C505   N545    1.434   .     S
C506   C511    1.411   .     A
C506   N546    1.434   .     S
C507   C511    1.411   .     A
C507   N547    1.434   .     S
C508   O551    1.281   .     A
C508   C514    1.419   .     S
C508   O550    1.281   .     A
C509   C510    1.411   .     A
C509   N548    1.434   .     S
C510   C516    1.444   .     S
C511   C517    1.444   .     S
C512   C1071   1.430   1_554 S
C513   C1070   1.430   .     S
C515   C522    1.397   .     A
C516   O553    1.286   .     A
C516   O556    1.286   .     A
C517   O554    1.286   .     A
C517   O555    1.286   .     A
C518   N544    1.366   .     A
C518   H523    1.082   .     S
C519   N543    1.366   .     A
C519   H534    1.082   .     S
C519   C148    1.415   1_565 S
C520   N544    1.366   .     A
C520   H536    1.082   .     S
C521   N543    1.366   .     A
C521   H537    1.082   .     S
C521   C146    1.415   1_565 S
C522   H542    1.084   .     S
H527   N545    1.046   .     S
H528   N545    1.046   .     S
H529   N546    1.046   .     S
H530   N546    1.046   .     S
H531   N547    1.046   .     S
H532   N547    1.046   .     S
H533   N548    1.046   .     S
H535   N548    1.046   .     S
N543   Zn557   2.006   .     S
N544   Zn558   2.006   .     S
O549   Zn557   1.999   .     S
O550   Zn558   1.999   .     S
O551   Zn557   1.999   .     S
O552   Zn558   1.999   .     S
O553   Zn557   2.001   .     S
O554   Zn558   2.001   .     S
O555   Zn557   2.002   .     S
O556   Zn558   2.002   .     S
C559   O614    1.281   .     A
C559   O611    1.281   .     A
C559   C577    1.419   .     S
C560   C576    1.397   .     A
C560   H586    1.084   .     S
C560   C624    1.370   .     S
C561   H587    1.084   .     S
C561   C576    1.397   .     A
C561   C646    1.370   .     S
C562   H588    1.084   .     S
C562   C577    1.397   .     A
C562   C684    1.370   1_455 S
C563   H600    1.084   .     S
C563   C567    1.386   .     A
C563   C574    1.391   .     A
C564   C568    1.386   .     A
C564   C575    1.391   .     A
C564   H601    1.084   .     S
C565   H602    1.084   .     S
C565   C569    1.386   .     A
C565   C575    1.391   .     A
C566   C571    1.386   .     A
C566   C574    1.391   .     A
C566   H603    1.084   .     S
C567   C572    1.411   .     A
C567   N607    1.434   .     S
C568   C573    1.411   .     A
C568   N608    1.434   .     S
C569   C573    1.411   .     A
C569   N609    1.434   .     S
C570   O613    1.281   .     A
C570   C576    1.419   .     S
C570   O612    1.281   .     A
C571   C572    1.411   .     A
C571   N610    1.434   .     S
C572   C578    1.444   .     S
C573   C579    1.444   .     S
C575   C16     1.430   1_556 S
C577   C584    1.397   .     A
C578   O615    1.286   .     A
C578   O618    1.286   .     A
C579   O616    1.286   .     A
C579   O617    1.286   .     A
C580   N606    1.366   .     A
C580   H585    1.082   .     S
C580   C955    1.415   1_545 S
C581   N605    1.366   .     A
C581   H596    1.082   .     S
C581   C768    1.415   .     S
C582   N606    1.366   .     A
C582   H598    1.082   .     S
C582   C953    1.415   1_545 S
C583   N605    1.366   .     A
C583   H599    1.082   .     S
C583   C766    1.415   .     S
C584   H604    1.084   .     S
C584   C685    1.370   1_455 S
H589   N607    1.046   .     S
H590   N607    1.046   .     S
H591   N608    1.046   .     S
H592   N608    1.046   .     S
H593   N609    1.046   .     S
H594   N609    1.046   .     S
H595   N610    1.046   .     S
H597   N610    1.046   .     S
N605   Zn619   2.006   .     S
N606   Zn620   2.006   .     S
O611   Zn619   1.999   .     S
O612   Zn620   1.999   .     S
O613   Zn619   1.999   .     S
O614   Zn620   1.999   .     S
O615   Zn619   2.001   .     S
O616   Zn620   2.001   .     S
O617   Zn619   2.002   .     S
O618   Zn620   2.002   .     S
C621   O676    1.281   .     A
C621   O673    1.281   .     A
C621   C639    1.419   .     S
C622   C638    1.397   .     A
C622   H648    1.084   .     S
C622   C686    1.370   .     S
C623   H649    1.084   .     S
C623   C638    1.397   .     A
C623   C708    1.370   .     S
C624   H650    1.084   .     S
C624   C639    1.397   .     A
C625   H662    1.084   .     S
C625   C629    1.386   .     A
C625   C636    1.391   .     A
C626   C630    1.386   .     A
C626   C637    1.391   .     A
C626   H663    1.084   .     S
C627   H664    1.084   .     S
C627   C631    1.386   .     A
C627   C637    1.391   .     A
C628   C633    1.386   .     A
C628   C636    1.391   .     A
C628   H665    1.084   .     S
C629   C634    1.411   .     A
C629   N669    1.434   .     S
C630   C635    1.411   .     A
C630   N670    1.434   .     S
C631   C635    1.411   .     A
C631   N671    1.434   .     S
C632   O675    1.281   .     A
C632   C638    1.419   .     S
C632   O674    1.281   .     A
C633   C634    1.411   .     A
C633   N672    1.434   .     S
C634   C640    1.444   .     S
C635   C641    1.444   .     S
C637   C78     1.430   1_556 S
C639   C646    1.397   .     A
C640   O677    1.286   .     A
C640   O680    1.286   .     A
C641   O678    1.286   .     A
C641   O679    1.286   .     A
C642   N668    1.366   .     A
C642   H647    1.082   .     S
C642   C1017   1.415   1_545 S
C643   N667    1.366   .     A
C643   H658    1.082   .     S
C643   C830    1.415   .     S
C644   N668    1.366   .     A
C644   H660    1.082   .     S
C644   C1015   1.415   1_545 S
C645   N667    1.366   .     A
C645   H661    1.082   .     S
C645   C828    1.415   .     S
C646   H666    1.084   .     S
H651   N669    1.046   .     S
H652   N669    1.046   .     S
H653   N670    1.046   .     S
H654   N670    1.046   .     S
H655   N671    1.046   .     S
H656   N671    1.046   .     S
H657   N672    1.046   .     S
H659   N672    1.046   .     S
N667   Zn681   2.006   .     S
N668   Zn682   2.006   .     S
O673   Zn681   1.999   .     S
O674   Zn682   1.999   .     S
O675   Zn681   1.999   .     S
O676   Zn682   1.999   .     S
O677   Zn681   2.001   .     S
O678   Zn682   2.001   .     S
O679   Zn681   2.002   .     S
O680   Zn682   2.002   .     S
C683   O738    1.281   .     A
C683   O735    1.281   .     A
C683   C701    1.419   .     S
C684   C700    1.397   .     A
C684   H710    1.084   .     S
C684   C562    1.370   1_655 S
C685   H711    1.084   .     S
C685   C700    1.397   .     A
C685   C584    1.370   1_655 S
C686   H712    1.084   .     S
C686   C701    1.397   .     A
C687   H724    1.084   .     S
C687   C691    1.386   .     A
C687   C698    1.391   .     A
C688   C692    1.386   .     A
C688   C699    1.391   .     A
C688   H725    1.084   .     S
C689   H726    1.084   .     S
C689   C693    1.386   .     A
C689   C699    1.391   .     A
C690   C695    1.386   .     A
C690   C698    1.391   .     A
C690   H727    1.084   .     S
C691   C696    1.411   .     A
C691   N731    1.434   .     S
C692   C697    1.411   .     A
C692   N732    1.434   .     S
C693   C697    1.411   .     A
C693   N733    1.434   .     S
C694   O737    1.281   .     A
C694   C700    1.419   .     S
C694   O736    1.281   .     A
C695   C696    1.411   .     A
C695   N734    1.434   .     S
C696   C702    1.444   .     S
C697   C703    1.444   .     S
C699   C140    1.430   1_556 S
C701   C708    1.397   .     A
C702   O739    1.286   .     A
C702   O742    1.286   .     A
C703   O740    1.286   .     A
C703   O741    1.286   .     A
C704   N730    1.366   .     A
C704   H709    1.082   .     S
C704   C1079   1.415   1_545 S
C705   N729    1.366   .     A
C705   H720    1.082   .     S
C705   C892    1.415   .     S
C706   N730    1.366   .     A
C706   H722    1.082   .     S
C706   C1077   1.415   1_545 S
C707   N729    1.366   .     A
C707   H723    1.082   .     S
C707   C890    1.415   .     S
C708   H728    1.084   .     S
H713   N731    1.046   .     S
H714   N731    1.046   .     S
H715   N732    1.046   .     S
H716   N732    1.046   .     S
H717   N733    1.046   .     S
H718   N733    1.046   .     S
H719   N734    1.046   .     S
H721   N734    1.046   .     S
N729   Zn743   2.006   .     S
N730   Zn744   2.006   .     S
O735   Zn743   1.999   .     S
O736   Zn744   1.999   .     S
O737   Zn743   1.999   .     S
O738   Zn744   1.999   .     S
O739   Zn743   2.001   .     S
O740   Zn744   2.001   .     S
O741   Zn743   2.002   .     S
O742   Zn744   2.002   .     S
C745   O800    1.281   .     A
C745   O797    1.281   .     A
C745   C763    1.419   .     S
C746   C762    1.397   .     A
C746   H772    1.084   .     S
C746   C810    1.370   .     S
C747   H773    1.084   .     S
C747   C762    1.397   .     A
C747   C832    1.370   .     S
C748   H774    1.084   .     S
C748   C763    1.397   .     A
C748   C870    1.370   1_455 S
C749   H786    1.084   .     S
C749   C753    1.386   .     A
C749   C760    1.391   .     A
C750   C754    1.386   .     A
C750   C761    1.391   .     A
C750   H787    1.084   .     S
C751   H788    1.084   .     S
C751   C755    1.386   .     A
C751   C761    1.391   .     A
C752   C757    1.386   .     A
C752   C760    1.391   .     A
C752   H789    1.084   .     S
C753   C758    1.411   .     A
C753   N793    1.434   .     S
C754   C759    1.411   .     A
C754   N794    1.434   .     S
C755   C759    1.411   .     A
C755   N795    1.434   .     S
C756   O799    1.281   .     A
C756   C762    1.419   .     S
C756   O798    1.281   .     A
C757   C758    1.411   .     A
C757   N796    1.434   .     S
C758   C764    1.444   .     S
C759   C765    1.444   .     S
C761   C202    1.430   1_556 S
C763   C770    1.397   .     A
C764   O801    1.286   .     A
C764   O804    1.286   .     A
C765   O802    1.286   .     A
C765   O803    1.286   .     A
C766   N792    1.366   .     A
C766   H771    1.082   .     S
C767   N791    1.366   .     A
C767   H782    1.082   .     S
C767   C954    1.415   .     S
C768   N792    1.366   .     A
C768   H784    1.082   .     S
C769   N791    1.366   .     A
C769   H785    1.082   .     S
C769   C952    1.415   .     S
C770   H790    1.084   .     S
C770   C871    1.370   1_455 S
H775   N793    1.046   .     S
H776   N793    1.046   .     S
H777   N794    1.046   .     S
H778   N794    1.046   .     S
H779   N795    1.046   .     S
H780   N795    1.046   .     S
H781   N796    1.046   .     S
H783   N796    1.046   .     S
N791   Zn805   2.006   .     S
N792   Zn806   2.006   .     S
O797   Zn805   1.999   .     S
O798   Zn806   1.999   .     S
O799   Zn805   1.999   .     S
O800   Zn806   1.999   .     S
O801   Zn805   2.001   .     S
O802   Zn806   2.001   .     S
O803   Zn805   2.002   .     S
O804   Zn806   2.002   .     S
C807   O862    1.281   .     A
C807   O859    1.281   .     A
C807   C825    1.419   .     S
C808   C824    1.397   .     A
C808   H834    1.084   .     S
C808   C872    1.370   .     S
C809   H835    1.084   .     S
C809   C824    1.397   .     A
C809   C894    1.370   .     S
C810   H836    1.084   .     S
C810   C825    1.397   .     A
C811   H848    1.084   .     S
C811   C815    1.386   .     A
C811   C822    1.391   .     A
C812   C816    1.386   .     A
C812   C823    1.391   .     A
C812   H849    1.084   .     S
C813   H850    1.084   .     S
C813   C817    1.386   .     A
C813   C823    1.391   .     A
C814   C819    1.386   .     A
C814   C822    1.391   .     A
C814   H851    1.084   .     S
C815   C820    1.411   .     A
C815   N855    1.434   .     S
C816   C821    1.411   .     A
C816   N856    1.434   .     S
C817   C821    1.411   .     A
C817   N857    1.434   .     S
C818   O861    1.281   .     A
C818   C824    1.419   .     S
C818   O860    1.281   .     A
C819   C820    1.411   .     A
C819   N858    1.434   .     S
C820   C826    1.444   .     S
C821   C827    1.444   .     S
C823   C264    1.430   1_556 S
C825   C832    1.397   .     A
C826   O863    1.286   .     A
C826   O866    1.286   .     A
C827   O864    1.286   .     A
C827   O865    1.286   .     A
C828   N854    1.366   .     A
C828   H833    1.082   .     S
C829   N853    1.366   .     A
C829   H844    1.082   .     S
C829   C1016   1.415   .     S
C830   N854    1.366   .     A
C830   H846    1.082   .     S
C831   N853    1.366   .     A
C831   H847    1.082   .     S
C831   C1014   1.415   .     S
C832   H852    1.084   .     S
H837   N855    1.046   .     S
H838   N855    1.046   .     S
H839   N856    1.046   .     S
H840   N856    1.046   .     S
H841   N857    1.046   .     S
H842   N857    1.046   .     S
H843   N858    1.046   .     S
H845   N858    1.046   .     S
N853   Zn867   2.006   .     S
N854   Zn868   2.006   .     S
O859   Zn867   1.999   .     S
O860   Zn868   1.999   .     S
O861   Zn867   1.999   .     S
O862   Zn868   1.999   .     S
O863   Zn867   2.001   .     S
O864   Zn868   2.001   .     S
O865   Zn867   2.002   .     S
O866   Zn868   2.002   .     S
C869   O924    1.281   .     A
C869   O921    1.281   .     A
C869   C887    1.419   .     S
C870   C886    1.397   .     A
C870   H896    1.084   .     S
C870   C748    1.370   1_655 S
C871   H897    1.084   .     S
C871   C886    1.397   .     A
C871   C770    1.370   1_655 S
C872   H898    1.084   .     S
C872   C887    1.397   .     A
C873   H910    1.084   .     S
C873   C877    1.386   .     A
C873   C884    1.391   .     A
C874   C878    1.386   .     A
C874   C885    1.391   .     A
C874   H911    1.084   .     S
C875   H912    1.084   .     S
C875   C879    1.386   .     A
C875   C885    1.391   .     A
C876   C881    1.386   .     A
C876   C884    1.391   .     A
C876   H913    1.084   .     S
C877   C882    1.411   .     A
C877   N917    1.434   .     S
C878   C883    1.411   .     A
C878   N918    1.434   .     S
C879   C883    1.411   .     A
C879   N919    1.434   .     S
C880   O923    1.281   .     A
C880   C886    1.419   .     S
C880   O922    1.281   .     A
C881   C882    1.411   .     A
C881   N920    1.434   .     S
C882   C888    1.444   .     S
C883   C889    1.444   .     S
C885   C326    1.430   1_556 S
C887   C894    1.397   .     A
C888   O925    1.286   .     A
C888   O928    1.286   .     A
C889   O926    1.286   .     A
C889   O927    1.286   .     A
C890   N916    1.366   .     A
C890   H895    1.082   .     S
C891   N915    1.366   .     A
C891   H906    1.082   .     S
C891   C1078   1.415   .     S
C892   N916    1.366   .     A
C892   H908    1.082   .     S
C893   N915    1.366   .     A
C893   H909    1.082   .     S
C893   C1076   1.415   .     S
C894   H914    1.084   .     S
H899   N917    1.046   .     S
H900   N917    1.046   .     S
H901   N918    1.046   .     S
H902   N918    1.046   .     S
H903   N919    1.046   .     S
H904   N919    1.046   .     S
H905   N920    1.046   .     S
H907   N920    1.046   .     S
N915   Zn929   2.006   .     S
N916   Zn930   2.006   .     S
O921   Zn929   1.999   .     S
O922   Zn930   1.999   .     S
O923   Zn929   1.999   .     S
O924   Zn930   1.999   .     S
O925   Zn929   2.001   .     S
O926   Zn930   2.001   .     S
O927   Zn929   2.002   .     S
O928   Zn930   2.002   .     S
C931   O986    1.281   .     A
C931   O983    1.281   .     A
C931   C949    1.419   .     S
C932   C948    1.397   .     A
C932   H958    1.084   .     S
C932   C996    1.370   .     S
C933   H959    1.084   .     S
C933   C948    1.397   .     A
C933   C1018   1.370   .     S
C934   H960    1.084   .     S
C934   C949    1.397   .     A
C934   C1056   1.370   1_455 S
C935   H972    1.084   .     S
C935   C939    1.386   .     A
C935   C946    1.391   .     A
C936   C940    1.386   .     A
C936   C947    1.391   .     A
C936   H973    1.084   .     S
C937   H974    1.084   .     S
C937   C941    1.386   .     A
C937   C947    1.391   .     A
C938   C943    1.386   .     A
C938   C946    1.391   .     A
C938   H975    1.084   .     S
C939   C944    1.411   .     A
C939   N979    1.434   .     S
C940   C945    1.411   .     A
C940   N980    1.434   .     S
C941   C945    1.411   .     A
C941   N981    1.434   .     S
C942   O985    1.281   .     A
C942   C948    1.419   .     S
C942   O984    1.281   .     A
C943   C944    1.411   .     A
C943   N982    1.434   .     S
C944   C950    1.444   .     S
C945   C951    1.444   .     S
C947   C388    1.430   1_556 S
C949   C956    1.397   .     A
C950   O987    1.286   .     A
C950   O990    1.286   .     A
C951   O988    1.286   .     A
C951   O989    1.286   .     A
C952   N978    1.366   .     A
C952   H957    1.082   .     S
C953   N977    1.366   .     A
C953   H968    1.082   .     S
C953   C582    1.415   1_565 S
C954   N978    1.366   .     A
C954   H970    1.082   .     S
C955   N977    1.366   .     A
C955   H971    1.082   .     S
C955   C580    1.415   1_565 S
C956   H976    1.084   .     S
C956   C1057   1.370   1_455 S
H961   N979    1.046   .     S
H962   N979    1.046   .     S
H963   N980    1.046   .     S
H964   N980    1.046   .     S
H965   N981    1.046   .     S
H966   N981    1.046   .     S
H967   N982    1.046   .     S
H969   N982    1.046   .     S
N977   Zn991   2.006   .     S
N978   Zn992   2.006   .     S
O983   Zn991   1.999   .     S
O984   Zn992   1.999   .     S
O985   Zn991   1.999   .     S
O986   Zn992   1.999   .     S
O987   Zn991   2.001   .     S
O988   Zn992   2.001   .     S
O989   Zn991   2.002   .     S
O990   Zn992   2.002   .     S
C993   O1048   1.281   .     A
C993   O1045   1.281   .     A
C993   C1011   1.419   .     S
C994   C1010   1.397   .     A
C994   H1020   1.084   .     S
C994   C1058   1.370   .     S
C995   H1021   1.084   .     S
C995   C1010   1.397   .     A
C995   C1080   1.370   .     S
C996   H1022   1.084   .     S
C996   C1011   1.397   .     A
C997   H1034   1.084   .     S
C997   C1001   1.386   .     A
C997   C1008   1.391   .     A
C998   C1002   1.386   .     A
C998   C1009   1.391   .     A
C998   H1035   1.084   .     S
C999   H1036   1.084   .     S
C999   C1003   1.386   .     A
C999   C1009   1.391   .     A
C1000  C1005   1.386   .     A
C1000  C1008   1.391   .     A
C1000  H1037   1.084   .     S
C1001  C1006   1.411   .     A
C1001  N1041   1.434   .     S
C1002  C1007   1.411   .     A
C1002  N1042   1.434   .     S
C1003  C1007   1.411   .     A
C1003  N1043   1.434   .     S
C1004  O1047   1.281   .     A
C1004  C1010   1.419   .     S
C1004  O1046   1.281   .     A
C1005  C1006   1.411   .     A
C1005  N1044   1.434   .     S
C1006  C1012   1.444   .     S
C1007  C1013   1.444   .     S
C1009  C450    1.430   1_556 S
C1011  C1018   1.397   .     A
C1012  O1049   1.286   .     A
C1012  O1052   1.286   .     A
C1013  O1050   1.286   .     A
C1013  O1051   1.286   .     A
C1014  N1040   1.366   .     A
C1014  H1019   1.082   .     S
C1015  N1039   1.366   .     A
C1015  H1030   1.082   .     S
C1015  C644    1.415   1_565 S
C1016  N1040   1.366   .     A
C1016  H1032   1.082   .     S
C1017  N1039   1.366   .     A
C1017  H1033   1.082   .     S
C1017  C642    1.415   1_565 S
C1018  H1038   1.084   .     S
H1023  N1041   1.046   .     S
H1024  N1041   1.046   .     S
H1025  N1042   1.046   .     S
H1026  N1042   1.046   .     S
H1027  N1043   1.046   .     S
H1028  N1043   1.046   .     S
H1029  N1044   1.046   .     S
H1031  N1044   1.046   .     S
N1039  Zn1053  2.006   .     S
N1040  Zn1054  2.006   .     S
O1045  Zn1053  1.999   .     S
O1046  Zn1054  1.999   .     S
O1047  Zn1053  1.999   .     S
O1048  Zn1054  1.999   .     S
O1049  Zn1053  2.001   .     S
O1050  Zn1054  2.001   .     S
O1051  Zn1053  2.002   .     S
O1052  Zn1054  2.002   .     S
C1055  O1110   1.281   .     A
C1055  O1107   1.281   .     A
C1055  C1073   1.419   .     S
C1056  C1072   1.397   .     A
C1056  H1082   1.084   .     S
C1056  C934    1.370   1_655 S
C1057  H1083   1.084   .     S
C1057  C1072   1.397   .     A
C1057  C956    1.370   1_655 S
C1058  H1084   1.084   .     S
C1058  C1073   1.397   .     A
C1059  H1096   1.084   .     S
C1059  C1063   1.386   .     A
C1059  C1070   1.391   .     A
C1060  C1064   1.386   .     A
C1060  C1071   1.391   .     A
C1060  H1097   1.084   .     S
C1061  H1098   1.084   .     S
C1061  C1065   1.386   .     A
C1061  C1071   1.391   .     A
C1062  C1067   1.386   .     A
C1062  C1070   1.391   .     A
C1062  H1099   1.084   .     S
C1063  C1068   1.411   .     A
C1063  N1103   1.434   .     S
C1064  C1069   1.411   .     A
C1064  N1104   1.434   .     S
C1065  C1069   1.411   .     A
C1065  N1105   1.434   .     S
C1066  O1109   1.281   .     A
C1066  C1072   1.419   .     S
C1066  O1108   1.281   .     A
C1067  C1068   1.411   .     A
C1067  N1106   1.434   .     S
C1068  C1074   1.444   .     S
C1069  C1075   1.444   .     S
C1071  C512    1.430   1_556 S
C1073  C1080   1.397   .     A
C1074  O1111   1.286   .     A
C1074  O1114   1.286   .     A
C1075  O1112   1.286   .     A
C1075  O1113   1.286   .     A
C1076  N1102   1.366   .     A
C1076  H1081   1.082   .     S
C1077  N1101   1.366   .     A
C1077  H1092   1.082   .     S
C1077  C706    1.415   1_565 S
C1078  N1102   1.366   .     A
C1078  H1094   1.082   .     S
C1079  N1101   1.366   .     A
C1079  H1095   1.082   .     S
C1079  C704    1.415   1_565 S
C1080  H1100   1.084   .     S
H1085  N1103   1.046   .     S
H1086  N1103   1.046   .     S
H1087  N1104   1.046   .     S
H1088  N1104   1.046   .     S
H1089  N1105   1.046   .     S
H1090  N1105   1.046   .     S
H1091  N1106   1.046   .     S
H1093  N1106   1.046   .     S
N1101  Zn1115  2.006   .     S
N1102  Zn1116  2.006   .     S
O1107  Zn1115  1.999   .     S
O1108  Zn1116  1.999   .     S
O1109  Zn1115  1.999   .     S
O1110  Zn1116  1.999   .     S
O1111  Zn1115  2.001   .     S
O1112  Zn1116  2.001   .     S
O1113  Zn1115  2.002   .     S
O1114  Zn1116  2.002   .     S
