data_str_m3_o10_o16_pcu_sym.121
_audit_creation_date              2020-01-03
_audit_creation_method            'Materials Studio'
_symmetry_space_group_name_H-M    'P1'
_symmetry_Int_Tables_number       1
_symmetry_cell_setting            triclinic
loop_
_symmetry_equiv_pos_as_xyz
  x,y,z
_cell_length_a                    23.4646
_cell_length_b                    25.7040
_cell_length_c                    24.0736
_cell_angle_alpha                 92.3203
_cell_angle_beta                  100.9446
_cell_angle_gamma                 94.2024
loop_
_atom_site_label
_atom_site_type_symbol
_atom_site_fract_x
_atom_site_fract_y
_atom_site_fract_z
_atom_site_U_iso_or_equiv
_atom_site_adp_type
_atom_site_occupancy
C1     C     0.01412   0.26463   0.24619   0.00000  Uiso   1.00
C2     C     0.05297   0.17019   0.41698   0.00000  Uiso   1.00
C3     C     0.01868   0.31802   0.23540   0.00000  Uiso   1.00
C4     C     0.03533   0.16865   0.35546   0.00000  Uiso   1.00
C5     C     0.31073   0.01373   0.24935   0.00000  Uiso   1.00
C6     C     0.31802   0.06836   0.24939   0.00000  Uiso   1.00
C7     C     0.29760   0.16282   0.14468   0.00000  Uiso   1.00
C8     C     0.26872   0.09498   0.00123   0.00000  Uiso   1.00
C9     C     0.27703   0.15258   0.08455   0.00000  Uiso   1.00
C10    C     0.02610   0.20288   0.45118   0.00000  Uiso   1.00
C11    C     0.05004   0.21140   0.00867   0.00000  Uiso   1.00
C12    C     0.13215   0.16246   0.49585   0.00000  Uiso   1.00
C13    C     0.10327   0.19278   0.03063   0.00000  Uiso   1.00
C14    C     0.32339   0.27821   0.41947   0.00000  Uiso   1.00
C15    C     0.26887   0.30205   0.39048   0.00000  Uiso   1.00
C16    C     0.04890   0.32770   0.15181   0.00000  Uiso   1.00
C17    C     0.09689   0.01830   0.12397   0.00000  Uiso   1.00
C18    C     0.10267   0.14549   0.44107   0.00000  Uiso   1.00
C19    C     0.18944   0.14845   0.01365   0.00000  Uiso   1.00
C20    C     0.21261   0.11053   0.48162   0.00000  Uiso   1.00
C21    C     0.17889   0.08811   0.43132   0.00000  Uiso   1.00
C22    C     0.12451   0.10537   0.41114   0.00000  Uiso   1.00
C23    C     0.22473   0.17211   0.06218   0.00000  Uiso   1.00
C24    C     0.30040   0.11505   0.05361   0.00000  Uiso   1.00
H25    H     0.00798   0.09955   0.07102   0.00000  Uiso   1.00
H26    H     0.09957   0.08683   0.37199   0.00000  Uiso   1.00
H27    H     0.02271   0.28160   0.39138   0.00000  Uiso   1.00
H28    H     0.00751   0.30098   0.46028   0.00000  Uiso   1.00
H29    H     0.23610   0.30103   0.41828   0.00000  Uiso   1.00
H30    H     0.27998   0.00990   0.38157   0.00000  Uiso   1.00
H31    H     0.24997   0.27980   0.34988   0.00000  Uiso   1.00
H32    H     0.00777   0.01211   0.13423   0.00000  Uiso   1.00
H33    H     0.04341   0.28489   0.14066   0.00000  Uiso   1.00
H34    H     0.13875   0.00176   0.14081   0.00000  Uiso   1.00
H35    H     0.08549   0.00962   0.07742   0.00000  Uiso   1.00
H36    H     0.27314   0.33081   0.26510   0.00000  Uiso   1.00
H37    H     0.10199   0.06133   0.13248   0.00000  Uiso   1.00
H38    H     0.15667   0.12490   0.20820   0.00000  Uiso   1.00
H39    H     0.17670   0.20839   0.29189   0.00000  Uiso   1.00
H40    H     0.19493   0.05805   0.40695   0.00000  Uiso   1.00
H41    H     0.28675   0.06573   0.47752   0.00000  Uiso   1.00
H42    H     0.21100   0.20416   0.08548   0.00000  Uiso   1.00
H43    H     0.12015   0.20156   0.07520   0.00000  Uiso   1.00
H44    H     0.02851   0.23448   0.03585   0.00000  Uiso   1.00
N45    N     0.14493   0.15223   0.23542   0.00000  Uiso   1.00
N46    N     0.18840   0.18110   0.26457   0.00000  Uiso   1.00
O47    O     0.29769   0.24629   0.25357   0.00000  Uiso   1.00
O48    O     0.06447   0.00432   0.21115   0.00000  Uiso   1.00
O49    O     0.05742   0.23704   0.24423   0.00000  Uiso   1.00
O50    O     0.31490   0.17358   0.33380   0.00000  Uiso   1.00
O51    O     0.07463   0.16433   0.32446   0.00000  Uiso   1.00
O52    O     0.27592   0.09629   0.25576   0.00000  Uiso   1.00
O53    O     0.03565   0.08704   0.24642   0.00000  Uiso   1.00
O54    O     0.25870   0.16901   0.17554   0.00000  Uiso   1.00
O55    O     0.01843   0.15976   0.16620   0.00000  Uiso   1.00
O56    O     0.30892   0.22540   0.42886   0.00000  Uiso   1.00
Zn57   Zn    0.27119   0.17284   0.25623   0.00000  Uiso   1.00
Zn58   Zn    0.06214   0.16049   0.24376   0.00000  Uiso   1.00
C59    C     0.34745   0.26463   0.24619   0.00000  Uiso   1.00
C60    C     0.38630   0.17019   0.41698   0.00000  Uiso   1.00
C61    C     0.35201   0.31802   0.23540   0.00000  Uiso   1.00
C62    C     0.36866   0.16865   0.35546   0.00000  Uiso   1.00
C63    C     0.64406   0.01373   0.24935   0.00000  Uiso   1.00
C64    C     0.65136   0.06836   0.24939   0.00000  Uiso   1.00
C65    C     0.63093   0.16282   0.14468   0.00000  Uiso   1.00
C66    C     0.60205   0.09498   0.00123   0.00000  Uiso   1.00
C67    C     0.61036   0.15258   0.08455   0.00000  Uiso   1.00
C68    C     0.35943   0.20288   0.45118   0.00000  Uiso   1.00
C69    C     0.38337   0.21140   0.00867   0.00000  Uiso   1.00
C70    C     0.46548   0.16246   0.49585   0.00000  Uiso   1.00
C71    C     0.43660   0.19278   0.03063   0.00000  Uiso   1.00
C72    C     0.65672   0.27821   0.41947   0.00000  Uiso   1.00
C73    C     0.60220   0.30205   0.39048   0.00000  Uiso   1.00
C74    C     0.38224   0.32770   0.15181   0.00000  Uiso   1.00
C75    C     0.43022   0.01830   0.12397   0.00000  Uiso   1.00
C76    C     0.43601   0.14549   0.44107   0.00000  Uiso   1.00
C77    C     0.52278   0.14845   0.01365   0.00000  Uiso   1.00
C78    C     0.54594   0.11053   0.48162   0.00000  Uiso   1.00
C79    C     0.51222   0.08811   0.43132   0.00000  Uiso   1.00
C80    C     0.45784   0.10537   0.41114   0.00000  Uiso   1.00
C81    C     0.55807   0.17211   0.06218   0.00000  Uiso   1.00
C82    C     0.63374   0.11505   0.05361   0.00000  Uiso   1.00
H83    H     0.34131   0.09955   0.07102   0.00000  Uiso   1.00
H84    H     0.43290   0.08683   0.37199   0.00000  Uiso   1.00
H85    H     0.35605   0.28160   0.39138   0.00000  Uiso   1.00
H86    H     0.34085   0.30098   0.46028   0.00000  Uiso   1.00
H87    H     0.56943   0.30103   0.41828   0.00000  Uiso   1.00
H88    H     0.61332   0.00990   0.38157   0.00000  Uiso   1.00
H89    H     0.58330   0.27980   0.34988   0.00000  Uiso   1.00
H90    H     0.34110   0.01211   0.13423   0.00000  Uiso   1.00
H91    H     0.37675   0.28489   0.14066   0.00000  Uiso   1.00
H92    H     0.47208   0.00176   0.14081   0.00000  Uiso   1.00
H93    H     0.41882   0.00962   0.07742   0.00000  Uiso   1.00
H94    H     0.60647   0.33081   0.26510   0.00000  Uiso   1.00
H95    H     0.43533   0.06133   0.13248   0.00000  Uiso   1.00
H96    H     0.49001   0.12490   0.20820   0.00000  Uiso   1.00
H97    H     0.51003   0.20839   0.29189   0.00000  Uiso   1.00
H98    H     0.52827   0.05805   0.40695   0.00000  Uiso   1.00
H99    H     0.62008   0.06573   0.47752   0.00000  Uiso   1.00
H100   H     0.54434   0.20416   0.08548   0.00000  Uiso   1.00
H101   H     0.45349   0.20156   0.07520   0.00000  Uiso   1.00
H102   H     0.36184   0.23448   0.03585   0.00000  Uiso   1.00
N103   N     0.47827   0.15223   0.23542   0.00000  Uiso   1.00
N104   N     0.52173   0.18110   0.26457   0.00000  Uiso   1.00
O105   O     0.63102   0.24629   0.25357   0.00000  Uiso   1.00
O106   O     0.39780   0.00432   0.21115   0.00000  Uiso   1.00
O107   O     0.39075   0.23704   0.24423   0.00000  Uiso   1.00
O108   O     0.64823   0.17358   0.33380   0.00000  Uiso   1.00
O109   O     0.40796   0.16433   0.32446   0.00000  Uiso   1.00
O110   O     0.60925   0.09629   0.25576   0.00000  Uiso   1.00
O111   O     0.36898   0.08704   0.24642   0.00000  Uiso   1.00
O112   O     0.59204   0.16901   0.17554   0.00000  Uiso   1.00
O113   O     0.35177   0.15976   0.16620   0.00000  Uiso   1.00
O114   O     0.64225   0.22540   0.42886   0.00000  Uiso   1.00
Zn115  Zn    0.60453   0.17284   0.25623   0.00000  Uiso   1.00
Zn116  Zn    0.39547   0.16049   0.24376   0.00000  Uiso   1.00
C117   C     0.68079   0.26463   0.24619   0.00000  Uiso   1.00
C118   C     0.71964   0.17019   0.41698   0.00000  Uiso   1.00
C119   C     0.68535   0.31802   0.23540   0.00000  Uiso   1.00
C120   C     0.70200   0.16865   0.35546   0.00000  Uiso   1.00
C121   C     0.97740   0.01373   0.24935   0.00000  Uiso   1.00
C122   C     0.98469   0.06836   0.24939   0.00000  Uiso   1.00
C123   C     0.96427   0.16282   0.14468   0.00000  Uiso   1.00
C124   C     0.93538   0.09498   0.00123   0.00000  Uiso   1.00
C125   C     0.94370   0.15258   0.08455   0.00000  Uiso   1.00
C126   C     0.69277   0.20288   0.45118   0.00000  Uiso   1.00
C127   C     0.71670   0.21140   0.00867   0.00000  Uiso   1.00
C128   C     0.79882   0.16246   0.49585   0.00000  Uiso   1.00
C129   C     0.76993   0.19278   0.03063   0.00000  Uiso   1.00
C130   C     0.99005   0.27821   0.41947   0.00000  Uiso   1.00
C131   C     0.93553   0.30205   0.39048   0.00000  Uiso   1.00
C132   C     0.71557   0.32770   0.15181   0.00000  Uiso   1.00
C133   C     0.76356   0.01830   0.12397   0.00000  Uiso   1.00
C134   C     0.76934   0.14549   0.44107   0.00000  Uiso   1.00
C135   C     0.85611   0.14845   0.01365   0.00000  Uiso   1.00
C136   C     0.87927   0.11053   0.48162   0.00000  Uiso   1.00
C137   C     0.84556   0.08811   0.43132   0.00000  Uiso   1.00
C138   C     0.79117   0.10537   0.41114   0.00000  Uiso   1.00
C139   C     0.89140   0.17211   0.06218   0.00000  Uiso   1.00
C140   C     0.96707   0.11505   0.05361   0.00000  Uiso   1.00
H141   H     0.67465   0.09955   0.07102   0.00000  Uiso   1.00
H142   H     0.76624   0.08683   0.37199   0.00000  Uiso   1.00
H143   H     0.68938   0.28160   0.39138   0.00000  Uiso   1.00
H144   H     0.67418   0.30098   0.46028   0.00000  Uiso   1.00
H145   H     0.90277   0.30103   0.41828   0.00000  Uiso   1.00
H146   H     0.94665   0.00990   0.38157   0.00000  Uiso   1.00
H147   H     0.91663   0.27980   0.34988   0.00000  Uiso   1.00
H148   H     0.67443   0.01211   0.13423   0.00000  Uiso   1.00
H149   H     0.71008   0.28489   0.14066   0.00000  Uiso   1.00
H150   H     0.80542   0.00176   0.14081   0.00000  Uiso   1.00
H151   H     0.75216   0.00962   0.07742   0.00000  Uiso   1.00
H152   H     0.93980   0.33081   0.26510   0.00000  Uiso   1.00
H153   H     0.76866   0.06133   0.13248   0.00000  Uiso   1.00
H154   H     0.82334   0.12490   0.20820   0.00000  Uiso   1.00
H155   H     0.84337   0.20839   0.29189   0.00000  Uiso   1.00
H156   H     0.86160   0.05805   0.40695   0.00000  Uiso   1.00
H157   H     0.95341   0.06573   0.47752   0.00000  Uiso   1.00
H158   H     0.87767   0.20416   0.08548   0.00000  Uiso   1.00
H159   H     0.78682   0.20156   0.07520   0.00000  Uiso   1.00
H160   H     0.69517   0.23448   0.03585   0.00000  Uiso   1.00
N161   N     0.81160   0.15223   0.23542   0.00000  Uiso   1.00
N162   N     0.85507   0.18110   0.26457   0.00000  Uiso   1.00
O163   O     0.96435   0.24629   0.25357   0.00000  Uiso   1.00
O164   O     0.73113   0.00432   0.21115   0.00000  Uiso   1.00
O165   O     0.72408   0.23704   0.24423   0.00000  Uiso   1.00
O166   O     0.98157   0.17358   0.33380   0.00000  Uiso   1.00
O167   O     0.74130   0.16433   0.32446   0.00000  Uiso   1.00
O168   O     0.94258   0.09629   0.25576   0.00000  Uiso   1.00
O169   O     0.70231   0.08704   0.24642   0.00000  Uiso   1.00
O170   O     0.92537   0.16901   0.17554   0.00000  Uiso   1.00
O171   O     0.68510   0.15976   0.16620   0.00000  Uiso   1.00
O172   O     0.97559   0.22540   0.42886   0.00000  Uiso   1.00
Zn173  Zn    0.93786   0.17284   0.25623   0.00000  Uiso   1.00
Zn174  Zn    0.72881   0.16049   0.24376   0.00000  Uiso   1.00
C175   C     0.01412   0.59797   0.24619   0.00000  Uiso   1.00
C176   C     0.05297   0.50352   0.41698   0.00000  Uiso   1.00
C177   C     0.01868   0.65135   0.23540   0.00000  Uiso   1.00
C178   C     0.03533   0.50198   0.35546   0.00000  Uiso   1.00
C179   C     0.31073   0.34706   0.24935   0.00000  Uiso   1.00
C180   C     0.31802   0.40170   0.24939   0.00000  Uiso   1.00
C181   C     0.29760   0.49615   0.14468   0.00000  Uiso   1.00
C182   C     0.26872   0.42832   0.00123   0.00000  Uiso   1.00
C183   C     0.27703   0.48591   0.08455   0.00000  Uiso   1.00
C184   C     0.02610   0.53621   0.45118   0.00000  Uiso   1.00
C185   C     0.05004   0.54473   0.00867   0.00000  Uiso   1.00
C186   C     0.13215   0.49580   0.49585   0.00000  Uiso   1.00
C187   C     0.10327   0.52612   0.03063   0.00000  Uiso   1.00
C188   C     0.32339   0.61154   0.41947   0.00000  Uiso   1.00
C189   C     0.26887   0.63539   0.39048   0.00000  Uiso   1.00
C190   C     0.04890   0.66103   0.15181   0.00000  Uiso   1.00
C191   C     0.09689   0.35164   0.12397   0.00000  Uiso   1.00
C192   C     0.10267   0.47883   0.44107   0.00000  Uiso   1.00
C193   C     0.18944   0.48178   0.01365   0.00000  Uiso   1.00
C194   C     0.21261   0.44386   0.48162   0.00000  Uiso   1.00
C195   C     0.17889   0.42144   0.43132   0.00000  Uiso   1.00
C196   C     0.12451   0.43871   0.41114   0.00000  Uiso   1.00
C197   C     0.22473   0.50544   0.06218   0.00000  Uiso   1.00
C198   C     0.30040   0.44838   0.05361   0.00000  Uiso   1.00
H199   H     0.00798   0.43289   0.07102   0.00000  Uiso   1.00
H200   H     0.09957   0.42016   0.37199   0.00000  Uiso   1.00
H201   H     0.02271   0.61493   0.39138   0.00000  Uiso   1.00
H202   H     0.00751   0.63431   0.46028   0.00000  Uiso   1.00
H203   H     0.23610   0.63437   0.41828   0.00000  Uiso   1.00
H204   H     0.27998   0.34323   0.38157   0.00000  Uiso   1.00
H205   H     0.24997   0.61313   0.34988   0.00000  Uiso   1.00
H206   H     0.00777   0.34544   0.13423   0.00000  Uiso   1.00
H207   H     0.04341   0.61822   0.14066   0.00000  Uiso   1.00
H208   H     0.13875   0.33509   0.14081   0.00000  Uiso   1.00
H209   H     0.08549   0.34296   0.07742   0.00000  Uiso   1.00
H210   H     0.27314   0.66414   0.26510   0.00000  Uiso   1.00
H211   H     0.10199   0.39466   0.13248   0.00000  Uiso   1.00
H212   H     0.15667   0.45823   0.20820   0.00000  Uiso   1.00
H213   H     0.17670   0.54172   0.29189   0.00000  Uiso   1.00
H214   H     0.19493   0.39138   0.40695   0.00000  Uiso   1.00
H215   H     0.28675   0.39907   0.47752   0.00000  Uiso   1.00
H216   H     0.21100   0.53749   0.08548   0.00000  Uiso   1.00
H217   H     0.12015   0.53489   0.07520   0.00000  Uiso   1.00
H218   H     0.02851   0.56781   0.03585   0.00000  Uiso   1.00
N219   N     0.14493   0.48556   0.23542   0.00000  Uiso   1.00
N220   N     0.18840   0.51444   0.26457   0.00000  Uiso   1.00
O221   O     0.29769   0.57963   0.25357   0.00000  Uiso   1.00
O222   O     0.06447   0.33765   0.21115   0.00000  Uiso   1.00
O223   O     0.05742   0.57038   0.24423   0.00000  Uiso   1.00
O224   O     0.31490   0.50691   0.33380   0.00000  Uiso   1.00
O225   O     0.07463   0.49766   0.32446   0.00000  Uiso   1.00
O226   O     0.27592   0.42962   0.25576   0.00000  Uiso   1.00
O227   O     0.03565   0.42037   0.24642   0.00000  Uiso   1.00
O228   O     0.25870   0.50234   0.17554   0.00000  Uiso   1.00
O229   O     0.01843   0.49309   0.16620   0.00000  Uiso   1.00
O230   O     0.30892   0.55873   0.42886   0.00000  Uiso   1.00
Zn231  Zn    0.27119   0.50618   0.25623   0.00000  Uiso   1.00
Zn232  Zn    0.06214   0.49382   0.24376   0.00000  Uiso   1.00
C233   C     0.34745   0.59797   0.24619   0.00000  Uiso   1.00
C234   C     0.38630   0.50352   0.41698   0.00000  Uiso   1.00
C235   C     0.35201   0.65135   0.23540   0.00000  Uiso   1.00
C236   C     0.36866   0.50198   0.35546   0.00000  Uiso   1.00
C237   C     0.64406   0.34706   0.24935   0.00000  Uiso   1.00
C238   C     0.65136   0.40170   0.24939   0.00000  Uiso   1.00
C239   C     0.63093   0.49615   0.14468   0.00000  Uiso   1.00
C240   C     0.60205   0.42832   0.00123   0.00000  Uiso   1.00
C241   C     0.61036   0.48591   0.08455   0.00000  Uiso   1.00
C242   C     0.35943   0.53621   0.45118   0.00000  Uiso   1.00
C243   C     0.38337   0.54473   0.00867   0.00000  Uiso   1.00
C244   C     0.46548   0.49580   0.49585   0.00000  Uiso   1.00
C245   C     0.43660   0.52612   0.03063   0.00000  Uiso   1.00
C246   C     0.65672   0.61154   0.41947   0.00000  Uiso   1.00
C247   C     0.60220   0.63539   0.39048   0.00000  Uiso   1.00
C248   C     0.38224   0.66103   0.15181   0.00000  Uiso   1.00
C249   C     0.43022   0.35164   0.12397   0.00000  Uiso   1.00
C250   C     0.43601   0.47883   0.44107   0.00000  Uiso   1.00
C251   C     0.52278   0.48178   0.01365   0.00000  Uiso   1.00
C252   C     0.54594   0.44386   0.48162   0.00000  Uiso   1.00
C253   C     0.51222   0.42144   0.43132   0.00000  Uiso   1.00
C254   C     0.45784   0.43871   0.41114   0.00000  Uiso   1.00
C255   C     0.55807   0.50544   0.06218   0.00000  Uiso   1.00
C256   C     0.63374   0.44838   0.05361   0.00000  Uiso   1.00
H257   H     0.34131   0.43289   0.07102   0.00000  Uiso   1.00
H258   H     0.43290   0.42016   0.37199   0.00000  Uiso   1.00
H259   H     0.35605   0.61493   0.39138   0.00000  Uiso   1.00
H260   H     0.34085   0.63431   0.46028   0.00000  Uiso   1.00
H261   H     0.56943   0.63437   0.41828   0.00000  Uiso   1.00
H262   H     0.61332   0.34323   0.38157   0.00000  Uiso   1.00
H263   H     0.58330   0.61313   0.34988   0.00000  Uiso   1.00
H264   H     0.34110   0.34544   0.13423   0.00000  Uiso   1.00
H265   H     0.37675   0.61822   0.14066   0.00000  Uiso   1.00
H266   H     0.47208   0.33509   0.14081   0.00000  Uiso   1.00
H267   H     0.41882   0.34296   0.07742   0.00000  Uiso   1.00
H268   H     0.60647   0.66414   0.26510   0.00000  Uiso   1.00
H269   H     0.43533   0.39466   0.13248   0.00000  Uiso   1.00
H270   H     0.49001   0.45823   0.20820   0.00000  Uiso   1.00
H271   H     0.51003   0.54172   0.29189   0.00000  Uiso   1.00
H272   H     0.52827   0.39138   0.40695   0.00000  Uiso   1.00
H273   H     0.62008   0.39907   0.47752   0.00000  Uiso   1.00
H274   H     0.54434   0.53749   0.08548   0.00000  Uiso   1.00
H275   H     0.45349   0.53489   0.07520   0.00000  Uiso   1.00
H276   H     0.36184   0.56781   0.03585   0.00000  Uiso   1.00
N277   N     0.47827   0.48556   0.23542   0.00000  Uiso   1.00
N278   N     0.52173   0.51444   0.26457   0.00000  Uiso   1.00
O279   O     0.63102   0.57963   0.25357   0.00000  Uiso   1.00
O280   O     0.39780   0.33765   0.21115   0.00000  Uiso   1.00
O281   O     0.39075   0.57038   0.24423   0.00000  Uiso   1.00
O282   O     0.64823   0.50691   0.33380   0.00000  Uiso   1.00
O283   O     0.40796   0.49766   0.32446   0.00000  Uiso   1.00
O284   O     0.60925   0.42962   0.25576   0.00000  Uiso   1.00
O285   O     0.36898   0.42037   0.24642   0.00000  Uiso   1.00
O286   O     0.59204   0.50234   0.17554   0.00000  Uiso   1.00
O287   O     0.35177   0.49309   0.16620   0.00000  Uiso   1.00
O288   O     0.64225   0.55873   0.42886   0.00000  Uiso   1.00
Zn289  Zn    0.60453   0.50618   0.25623   0.00000  Uiso   1.00
Zn290  Zn    0.39547   0.49382   0.24376   0.00000  Uiso   1.00
C291   C     0.68079   0.59797   0.24619   0.00000  Uiso   1.00
C292   C     0.71964   0.50352   0.41698   0.00000  Uiso   1.00
C293   C     0.68535   0.65135   0.23540   0.00000  Uiso   1.00
C294   C     0.70200   0.50198   0.35546   0.00000  Uiso   1.00
C295   C     0.97740   0.34706   0.24935   0.00000  Uiso   1.00
C296   C     0.98469   0.40170   0.24939   0.00000  Uiso   1.00
C297   C     0.96427   0.49615   0.14468   0.00000  Uiso   1.00
C298   C     0.93538   0.42832   0.00123   0.00000  Uiso   1.00
C299   C     0.94370   0.48591   0.08455   0.00000  Uiso   1.00
C300   C     0.69277   0.53621   0.45118   0.00000  Uiso   1.00
C301   C     0.71670   0.54473   0.00867   0.00000  Uiso   1.00
C302   C     0.79882   0.49580   0.49585   0.00000  Uiso   1.00
C303   C     0.76993   0.52612   0.03063   0.00000  Uiso   1.00
C304   C     0.99005   0.61154   0.41947   0.00000  Uiso   1.00
C305   C     0.93553   0.63539   0.39048   0.00000  Uiso   1.00
C306   C     0.71557   0.66103   0.15181   0.00000  Uiso   1.00
C307   C     0.76356   0.35164   0.12397   0.00000  Uiso   1.00
C308   C     0.76934   0.47883   0.44107   0.00000  Uiso   1.00
C309   C     0.85611   0.48178   0.01365   0.00000  Uiso   1.00
C310   C     0.87927   0.44386   0.48162   0.00000  Uiso   1.00
C311   C     0.84556   0.42144   0.43132   0.00000  Uiso   1.00
C312   C     0.79117   0.43871   0.41114   0.00000  Uiso   1.00
C313   C     0.89140   0.50544   0.06218   0.00000  Uiso   1.00
C314   C     0.96707   0.44838   0.05361   0.00000  Uiso   1.00
H315   H     0.67465   0.43289   0.07102   0.00000  Uiso   1.00
H316   H     0.76624   0.42016   0.37199   0.00000  Uiso   1.00
H317   H     0.68938   0.61493   0.39138   0.00000  Uiso   1.00
H318   H     0.67418   0.63431   0.46028   0.00000  Uiso   1.00
H319   H     0.90277   0.63437   0.41828   0.00000  Uiso   1.00
H320   H     0.94665   0.34323   0.38157   0.00000  Uiso   1.00
H321   H     0.91663   0.61313   0.34988   0.00000  Uiso   1.00
H322   H     0.67443   0.34544   0.13423   0.00000  Uiso   1.00
H323   H     0.71008   0.61822   0.14066   0.00000  Uiso   1.00
H324   H     0.80542   0.33509   0.14081   0.00000  Uiso   1.00
H325   H     0.75216   0.34296   0.07742   0.00000  Uiso   1.00
H326   H     0.93980   0.66414   0.26510   0.00000  Uiso   1.00
H327   H     0.76866   0.39466   0.13248   0.00000  Uiso   1.00
H328   H     0.82334   0.45823   0.20820   0.00000  Uiso   1.00
H329   H     0.84337   0.54172   0.29189   0.00000  Uiso   1.00
H330   H     0.86160   0.39138   0.40695   0.00000  Uiso   1.00
H331   H     0.95341   0.39907   0.47752   0.00000  Uiso   1.00
H332   H     0.87767   0.53749   0.08548   0.00000  Uiso   1.00
H333   H     0.78682   0.53489   0.07520   0.00000  Uiso   1.00
H334   H     0.69517   0.56781   0.03585   0.00000  Uiso   1.00
N335   N     0.81160   0.48556   0.23542   0.00000  Uiso   1.00
N336   N     0.85507   0.51444   0.26457   0.00000  Uiso   1.00
O337   O     0.96435   0.57963   0.25357   0.00000  Uiso   1.00
O338   O     0.73113   0.33765   0.21115   0.00000  Uiso   1.00
O339   O     0.72408   0.57038   0.24423   0.00000  Uiso   1.00
O340   O     0.98157   0.50691   0.33380   0.00000  Uiso   1.00
O341   O     0.74130   0.49766   0.32446   0.00000  Uiso   1.00
O342   O     0.94258   0.42962   0.25576   0.00000  Uiso   1.00
O343   O     0.70231   0.42037   0.24642   0.00000  Uiso   1.00
O344   O     0.92537   0.50234   0.17554   0.00000  Uiso   1.00
O345   O     0.68510   0.49309   0.16620   0.00000  Uiso   1.00
O346   O     0.97559   0.55873   0.42886   0.00000  Uiso   1.00
Zn347  Zn    0.93786   0.50618   0.25623   0.00000  Uiso   1.00
Zn348  Zn    0.72881   0.49382   0.24376   0.00000  Uiso   1.00
C349   C     0.01412   0.93130   0.24619   0.00000  Uiso   1.00
C350   C     0.05297   0.83686   0.41698   0.00000  Uiso   1.00
C351   C     0.01868   0.98468   0.23540   0.00000  Uiso   1.00
C352   C     0.03533   0.83532   0.35546   0.00000  Uiso   1.00
C353   C     0.31073   0.68039   0.24935   0.00000  Uiso   1.00
C354   C     0.31802   0.73503   0.24939   0.00000  Uiso   1.00
C355   C     0.29760   0.82949   0.14468   0.00000  Uiso   1.00
C356   C     0.26872   0.76165   0.00123   0.00000  Uiso   1.00
C357   C     0.27703   0.81924   0.08455   0.00000  Uiso   1.00
C358   C     0.02610   0.86955   0.45118   0.00000  Uiso   1.00
C359   C     0.05004   0.87806   0.00867   0.00000  Uiso   1.00
C360   C     0.13215   0.82913   0.49585   0.00000  Uiso   1.00
C361   C     0.10327   0.85945   0.03063   0.00000  Uiso   1.00
C362   C     0.32339   0.94487   0.41947   0.00000  Uiso   1.00
C363   C     0.26887   0.96872   0.39048   0.00000  Uiso   1.00
C364   C     0.04890   0.99437   0.15181   0.00000  Uiso   1.00
C365   C     0.09689   0.68497   0.12397   0.00000  Uiso   1.00
C366   C     0.10267   0.81216   0.44107   0.00000  Uiso   1.00
C367   C     0.18944   0.81512   0.01365   0.00000  Uiso   1.00
C368   C     0.21261   0.77719   0.48162   0.00000  Uiso   1.00
C369   C     0.17889   0.75477   0.43132   0.00000  Uiso   1.00
C370   C     0.12451   0.77204   0.41114   0.00000  Uiso   1.00
C371   C     0.22473   0.83878   0.06218   0.00000  Uiso   1.00
C372   C     0.30040   0.78171   0.05361   0.00000  Uiso   1.00
H373   H     0.00798   0.76622   0.07102   0.00000  Uiso   1.00
H374   H     0.09957   0.75350   0.37199   0.00000  Uiso   1.00
H375   H     0.02271   0.94826   0.39138   0.00000  Uiso   1.00
H376   H     0.00751   0.96765   0.46028   0.00000  Uiso   1.00
H377   H     0.23610   0.96770   0.41828   0.00000  Uiso   1.00
H378   H     0.27998   0.67656   0.38157   0.00000  Uiso   1.00
H379   H     0.24997   0.94647   0.34988   0.00000  Uiso   1.00
H380   H     0.00777   0.67877   0.13423   0.00000  Uiso   1.00
H381   H     0.04341   0.95156   0.14066   0.00000  Uiso   1.00
H382   H     0.13875   0.66843   0.14081   0.00000  Uiso   1.00
H383   H     0.08549   0.67629   0.07742   0.00000  Uiso   1.00
H384   H     0.27314   0.99748   0.26510   0.00000  Uiso   1.00
H385   H     0.10199   0.72800   0.13248   0.00000  Uiso   1.00
H386   H     0.15667   0.79156   0.20820   0.00000  Uiso   1.00
H387   H     0.17670   0.87506   0.29189   0.00000  Uiso   1.00
H388   H     0.19493   0.72472   0.40695   0.00000  Uiso   1.00
H389   H     0.28675   0.73240   0.47752   0.00000  Uiso   1.00
H390   H     0.21100   0.87082   0.08548   0.00000  Uiso   1.00
H391   H     0.12015   0.86822   0.07520   0.00000  Uiso   1.00
H392   H     0.02851   0.90114   0.03585   0.00000  Uiso   1.00
N393   N     0.14493   0.81890   0.23542   0.00000  Uiso   1.00
N394   N     0.18840   0.84777   0.26457   0.00000  Uiso   1.00
O395   O     0.29769   0.91296   0.25357   0.00000  Uiso   1.00
O396   O     0.06447   0.67099   0.21115   0.00000  Uiso   1.00
O397   O     0.05742   0.90371   0.24423   0.00000  Uiso   1.00
O398   O     0.31490   0.84024   0.33380   0.00000  Uiso   1.00
O399   O     0.07463   0.83099   0.32446   0.00000  Uiso   1.00
O400   O     0.27592   0.76296   0.25576   0.00000  Uiso   1.00
O401   O     0.03565   0.75371   0.24642   0.00000  Uiso   1.00
O402   O     0.25870   0.83567   0.17554   0.00000  Uiso   1.00
O403   O     0.01843   0.82642   0.16620   0.00000  Uiso   1.00
O404   O     0.30892   0.89207   0.42886   0.00000  Uiso   1.00
Zn405  Zn    0.27119   0.83951   0.25623   0.00000  Uiso   1.00
Zn406  Zn    0.06214   0.82716   0.24376   0.00000  Uiso   1.00
C407   C     0.34745   0.93130   0.24619   0.00000  Uiso   1.00
C408   C     0.38630   0.83686   0.41698   0.00000  Uiso   1.00
C409   C     0.35201   0.98468   0.23540   0.00000  Uiso   1.00
C410   C     0.36866   0.83532   0.35546   0.00000  Uiso   1.00
C411   C     0.64406   0.68039   0.24935   0.00000  Uiso   1.00
C412   C     0.65136   0.73503   0.24939   0.00000  Uiso   1.00
C413   C     0.63093   0.82949   0.14468   0.00000  Uiso   1.00
C414   C     0.60205   0.76165   0.00123   0.00000  Uiso   1.00
C415   C     0.61036   0.81924   0.08455   0.00000  Uiso   1.00
C416   C     0.35943   0.86955   0.45118   0.00000  Uiso   1.00
C417   C     0.38337   0.87806   0.00867   0.00000  Uiso   1.00
C418   C     0.46548   0.82913   0.49585   0.00000  Uiso   1.00
C419   C     0.43660   0.85945   0.03063   0.00000  Uiso   1.00
C420   C     0.65672   0.94487   0.41947   0.00000  Uiso   1.00
C421   C     0.60220   0.96872   0.39048   0.00000  Uiso   1.00
C422   C     0.38224   0.99437   0.15181   0.00000  Uiso   1.00
C423   C     0.43022   0.68497   0.12397   0.00000  Uiso   1.00
C424   C     0.43601   0.81216   0.44107   0.00000  Uiso   1.00
C425   C     0.52278   0.81512   0.01365   0.00000  Uiso   1.00
C426   C     0.54594   0.77719   0.48162   0.00000  Uiso   1.00
C427   C     0.51222   0.75477   0.43132   0.00000  Uiso   1.00
C428   C     0.45784   0.77204   0.41114   0.00000  Uiso   1.00
C429   C     0.55807   0.83878   0.06218   0.00000  Uiso   1.00
C430   C     0.63374   0.78171   0.05361   0.00000  Uiso   1.00
H431   H     0.34131   0.76622   0.07102   0.00000  Uiso   1.00
H432   H     0.43290   0.75350   0.37199   0.00000  Uiso   1.00
H433   H     0.35605   0.94826   0.39138   0.00000  Uiso   1.00
H434   H     0.34085   0.96765   0.46028   0.00000  Uiso   1.00
H435   H     0.56943   0.96770   0.41828   0.00000  Uiso   1.00
H436   H     0.61332   0.67656   0.38157   0.00000  Uiso   1.00
H437   H     0.58330   0.94647   0.34988   0.00000  Uiso   1.00
H438   H     0.34110   0.67877   0.13423   0.00000  Uiso   1.00
H439   H     0.37675   0.95156   0.14066   0.00000  Uiso   1.00
H440   H     0.47208   0.66843   0.14081   0.00000  Uiso   1.00
H441   H     0.41882   0.67629   0.07742   0.00000  Uiso   1.00
H442   H     0.60647   0.99748   0.26510   0.00000  Uiso   1.00
H443   H     0.43533   0.72800   0.13248   0.00000  Uiso   1.00
H444   H     0.49001   0.79156   0.20820   0.00000  Uiso   1.00
H445   H     0.51003   0.87506   0.29189   0.00000  Uiso   1.00
H446   H     0.52827   0.72472   0.40695   0.00000  Uiso   1.00
H447   H     0.62008   0.73240   0.47752   0.00000  Uiso   1.00
H448   H     0.54434   0.87082   0.08548   0.00000  Uiso   1.00
H449   H     0.45349   0.86822   0.07520   0.00000  Uiso   1.00
H450   H     0.36184   0.90114   0.03585   0.00000  Uiso   1.00
N451   N     0.47827   0.81890   0.23542   0.00000  Uiso   1.00
N452   N     0.52173   0.84777   0.26457   0.00000  Uiso   1.00
O453   O     0.63102   0.91296   0.25357   0.00000  Uiso   1.00
O454   O     0.39780   0.67099   0.21115   0.00000  Uiso   1.00
O455   O     0.39075   0.90371   0.24423   0.00000  Uiso   1.00
O456   O     0.64823   0.84024   0.33380   0.00000  Uiso   1.00
O457   O     0.40796   0.83099   0.32446   0.00000  Uiso   1.00
O458   O     0.60925   0.76296   0.25576   0.00000  Uiso   1.00
O459   O     0.36898   0.75371   0.24642   0.00000  Uiso   1.00
O460   O     0.59204   0.83567   0.17554   0.00000  Uiso   1.00
O461   O     0.35177   0.82642   0.16620   0.00000  Uiso   1.00
O462   O     0.64225   0.89207   0.42886   0.00000  Uiso   1.00
Zn463  Zn    0.60453   0.83951   0.25623   0.00000  Uiso   1.00
Zn464  Zn    0.39547   0.82716   0.24376   0.00000  Uiso   1.00
C465   C     0.68079   0.93130   0.24619   0.00000  Uiso   1.00
C466   C     0.71964   0.83686   0.41698   0.00000  Uiso   1.00
C467   C     0.68535   0.98468   0.23540   0.00000  Uiso   1.00
C468   C     0.70200   0.83532   0.35546   0.00000  Uiso   1.00
C469   C     0.97740   0.68039   0.24935   0.00000  Uiso   1.00
C470   C     0.98469   0.73503   0.24939   0.00000  Uiso   1.00
C471   C     0.96427   0.82949   0.14468   0.00000  Uiso   1.00
C472   C     0.93538   0.76165   0.00123   0.00000  Uiso   1.00
C473   C     0.94370   0.81924   0.08455   0.00000  Uiso   1.00
C474   C     0.69277   0.86955   0.45118   0.00000  Uiso   1.00
C475   C     0.71670   0.87806   0.00867   0.00000  Uiso   1.00
C476   C     0.79882   0.82913   0.49585   0.00000  Uiso   1.00
C477   C     0.76993   0.85945   0.03063   0.00000  Uiso   1.00
C478   C     0.99005   0.94487   0.41947   0.00000  Uiso   1.00
C479   C     0.93553   0.96872   0.39048   0.00000  Uiso   1.00
C480   C     0.71557   0.99437   0.15181   0.00000  Uiso   1.00
C481   C     0.76356   0.68497   0.12397   0.00000  Uiso   1.00
C482   C     0.76934   0.81216   0.44107   0.00000  Uiso   1.00
C483   C     0.85611   0.81512   0.01365   0.00000  Uiso   1.00
C484   C     0.87927   0.77719   0.48162   0.00000  Uiso   1.00
C485   C     0.84556   0.75477   0.43132   0.00000  Uiso   1.00
C486   C     0.79117   0.77204   0.41114   0.00000  Uiso   1.00
C487   C     0.89140   0.83878   0.06218   0.00000  Uiso   1.00
C488   C     0.96707   0.78171   0.05361   0.00000  Uiso   1.00
H489   H     0.67465   0.76622   0.07102   0.00000  Uiso   1.00
H490   H     0.76624   0.75350   0.37199   0.00000  Uiso   1.00
H491   H     0.68938   0.94826   0.39138   0.00000  Uiso   1.00
H492   H     0.67418   0.96765   0.46028   0.00000  Uiso   1.00
H493   H     0.90277   0.96770   0.41828   0.00000  Uiso   1.00
H494   H     0.94665   0.67656   0.38157   0.00000  Uiso   1.00
H495   H     0.91663   0.94647   0.34988   0.00000  Uiso   1.00
H496   H     0.67443   0.67877   0.13423   0.00000  Uiso   1.00
H497   H     0.71008   0.95156   0.14066   0.00000  Uiso   1.00
H498   H     0.80542   0.66843   0.14081   0.00000  Uiso   1.00
H499   H     0.75216   0.67629   0.07742   0.00000  Uiso   1.00
H500   H     0.93980   0.99748   0.26510   0.00000  Uiso   1.00
H501   H     0.76866   0.72800   0.13248   0.00000  Uiso   1.00
H502   H     0.82334   0.79156   0.20820   0.00000  Uiso   1.00
H503   H     0.84337   0.87506   0.29189   0.00000  Uiso   1.00
H504   H     0.86160   0.72472   0.40695   0.00000  Uiso   1.00
H505   H     0.95341   0.73240   0.47752   0.00000  Uiso   1.00
H506   H     0.87767   0.87082   0.08548   0.00000  Uiso   1.00
H507   H     0.78682   0.86822   0.07520   0.00000  Uiso   1.00
H508   H     0.69517   0.90114   0.03585   0.00000  Uiso   1.00
N509   N     0.81160   0.81890   0.23542   0.00000  Uiso   1.00
N510   N     0.85507   0.84777   0.26457   0.00000  Uiso   1.00
O511   O     0.96435   0.91296   0.25357   0.00000  Uiso   1.00
O512   O     0.73113   0.67099   0.21115   0.00000  Uiso   1.00
O513   O     0.72408   0.90371   0.24423   0.00000  Uiso   1.00
O514   O     0.98157   0.84024   0.33380   0.00000  Uiso   1.00
O515   O     0.74130   0.83099   0.32446   0.00000  Uiso   1.00
O516   O     0.94258   0.76296   0.25576   0.00000  Uiso   1.00
O517   O     0.70231   0.75371   0.24642   0.00000  Uiso   1.00
O518   O     0.92537   0.83567   0.17554   0.00000  Uiso   1.00
O519   O     0.68510   0.82642   0.16620   0.00000  Uiso   1.00
O520   O     0.97559   0.89207   0.42886   0.00000  Uiso   1.00
Zn521  Zn    0.93786   0.83951   0.25623   0.00000  Uiso   1.00
Zn522  Zn    0.72881   0.82716   0.24376   0.00000  Uiso   1.00
C523   C     0.01412   0.26463   0.74619   0.00000  Uiso   1.00
C524   C     0.05297   0.17019   0.91698   0.00000  Uiso   1.00
C525   C     0.01868   0.31802   0.73540   0.00000  Uiso   1.00
C526   C     0.03533   0.16865   0.85546   0.00000  Uiso   1.00
C527   C     0.31073   0.01373   0.74935   0.00000  Uiso   1.00
C528   C     0.31802   0.06836   0.74939   0.00000  Uiso   1.00
C529   C     0.29760   0.16282   0.64468   0.00000  Uiso   1.00
C530   C     0.26872   0.09498   0.50123   0.00000  Uiso   1.00
C531   C     0.27703   0.15258   0.58455   0.00000  Uiso   1.00
C532   C     0.02610   0.20288   0.95118   0.00000  Uiso   1.00
C533   C     0.05004   0.21140   0.50867   0.00000  Uiso   1.00
C534   C     0.13215   0.16246   0.99585   0.00000  Uiso   1.00
C535   C     0.10327   0.19278   0.53063   0.00000  Uiso   1.00
C536   C     0.32339   0.27821   0.91947   0.00000  Uiso   1.00
C537   C     0.26887   0.30205   0.89048   0.00000  Uiso   1.00
C538   C     0.04890   0.32770   0.65181   0.00000  Uiso   1.00
C539   C     0.09689   0.01830   0.62397   0.00000  Uiso   1.00
C540   C     0.10267   0.14549   0.94107   0.00000  Uiso   1.00
C541   C     0.18944   0.14845   0.51365   0.00000  Uiso   1.00
C542   C     0.21261   0.11053   0.98162   0.00000  Uiso   1.00
C543   C     0.17889   0.08811   0.93132   0.00000  Uiso   1.00
C544   C     0.12451   0.10537   0.91114   0.00000  Uiso   1.00
C545   C     0.22473   0.17211   0.56218   0.00000  Uiso   1.00
C546   C     0.30040   0.11505   0.55361   0.00000  Uiso   1.00
H547   H     0.00798   0.09955   0.57102   0.00000  Uiso   1.00
H548   H     0.09957   0.08683   0.87199   0.00000  Uiso   1.00
H549   H     0.02271   0.28160   0.89138   0.00000  Uiso   1.00
H550   H     0.00751   0.30098   0.96028   0.00000  Uiso   1.00
H551   H     0.23610   0.30103   0.91828   0.00000  Uiso   1.00
H552   H     0.27998   0.00990   0.88157   0.00000  Uiso   1.00
H553   H     0.24997   0.27980   0.84988   0.00000  Uiso   1.00
H554   H     0.00777   0.01211   0.63423   0.00000  Uiso   1.00
H555   H     0.04341   0.28489   0.64066   0.00000  Uiso   1.00
H556   H     0.13875   0.00176   0.64081   0.00000  Uiso   1.00
H557   H     0.08549   0.00962   0.57742   0.00000  Uiso   1.00
H558   H     0.27314   0.33081   0.76510   0.00000  Uiso   1.00
H559   H     0.10199   0.06133   0.63248   0.00000  Uiso   1.00
H560   H     0.15667   0.12490   0.70820   0.00000  Uiso   1.00
H561   H     0.17670   0.20839   0.79189   0.00000  Uiso   1.00
H562   H     0.19493   0.05805   0.90695   0.00000  Uiso   1.00
H563   H     0.28675   0.06573   0.97752   0.00000  Uiso   1.00
H564   H     0.21100   0.20416   0.58548   0.00000  Uiso   1.00
H565   H     0.12015   0.20156   0.57520   0.00000  Uiso   1.00
H566   H     0.02851   0.23448   0.53585   0.00000  Uiso   1.00
N567   N     0.14493   0.15223   0.73542   0.00000  Uiso   1.00
N568   N     0.18840   0.18110   0.76457   0.00000  Uiso   1.00
O569   O     0.29769   0.24629   0.75357   0.00000  Uiso   1.00
O570   O     0.06447   0.00432   0.71115   0.00000  Uiso   1.00
O571   O     0.05742   0.23704   0.74423   0.00000  Uiso   1.00
O572   O     0.31490   0.17358   0.83380   0.00000  Uiso   1.00
O573   O     0.07463   0.16433   0.82446   0.00000  Uiso   1.00
O574   O     0.27592   0.09629   0.75576   0.00000  Uiso   1.00
O575   O     0.03565   0.08704   0.74642   0.00000  Uiso   1.00
O576   O     0.25870   0.16901   0.67554   0.00000  Uiso   1.00
O577   O     0.01843   0.15976   0.66620   0.00000  Uiso   1.00
O578   O     0.30892   0.22540   0.92886   0.00000  Uiso   1.00
Zn579  Zn    0.27119   0.17284   0.75623   0.00000  Uiso   1.00
Zn580  Zn    0.06214   0.16049   0.74376   0.00000  Uiso   1.00
C581   C     0.34745   0.26463   0.74619   0.00000  Uiso   1.00
C582   C     0.38630   0.17019   0.91698   0.00000  Uiso   1.00
C583   C     0.35201   0.31802   0.73540   0.00000  Uiso   1.00
C584   C     0.36866   0.16865   0.85546   0.00000  Uiso   1.00
C585   C     0.64406   0.01373   0.74935   0.00000  Uiso   1.00
C586   C     0.65136   0.06836   0.74939   0.00000  Uiso   1.00
C587   C     0.63093   0.16282   0.64468   0.00000  Uiso   1.00
C588   C     0.60205   0.09498   0.50123   0.00000  Uiso   1.00
C589   C     0.61036   0.15258   0.58455   0.00000  Uiso   1.00
C590   C     0.35943   0.20288   0.95118   0.00000  Uiso   1.00
C591   C     0.38337   0.21140   0.50867   0.00000  Uiso   1.00
C592   C     0.46548   0.16246   0.99585   0.00000  Uiso   1.00
C593   C     0.43660   0.19278   0.53063   0.00000  Uiso   1.00
C594   C     0.65672   0.27821   0.91947   0.00000  Uiso   1.00
C595   C     0.60220   0.30205   0.89048   0.00000  Uiso   1.00
C596   C     0.38224   0.32770   0.65181   0.00000  Uiso   1.00
C597   C     0.43022   0.01830   0.62397   0.00000  Uiso   1.00
C598   C     0.43601   0.14549   0.94107   0.00000  Uiso   1.00
C599   C     0.52278   0.14845   0.51365   0.00000  Uiso   1.00
C600   C     0.54594   0.11053   0.98162   0.00000  Uiso   1.00
C601   C     0.51222   0.08811   0.93132   0.00000  Uiso   1.00
C602   C     0.45784   0.10537   0.91114   0.00000  Uiso   1.00
C603   C     0.55807   0.17211   0.56218   0.00000  Uiso   1.00
C604   C     0.63374   0.11505   0.55361   0.00000  Uiso   1.00
H605   H     0.34131   0.09955   0.57102   0.00000  Uiso   1.00
H606   H     0.43290   0.08683   0.87199   0.00000  Uiso   1.00
H607   H     0.35605   0.28160   0.89138   0.00000  Uiso   1.00
H608   H     0.34085   0.30098   0.96028   0.00000  Uiso   1.00
H609   H     0.56943   0.30103   0.91828   0.00000  Uiso   1.00
H610   H     0.61332   0.00990   0.88157   0.00000  Uiso   1.00
H611   H     0.58330   0.27980   0.84988   0.00000  Uiso   1.00
H612   H     0.34110   0.01211   0.63423   0.00000  Uiso   1.00
H613   H     0.37675   0.28489   0.64066   0.00000  Uiso   1.00
H614   H     0.47208   0.00176   0.64081   0.00000  Uiso   1.00
H615   H     0.41882   0.00962   0.57742   0.00000  Uiso   1.00
H616   H     0.60647   0.33081   0.76510   0.00000  Uiso   1.00
H617   H     0.43533   0.06133   0.63248   0.00000  Uiso   1.00
H618   H     0.49001   0.12490   0.70820   0.00000  Uiso   1.00
H619   H     0.51003   0.20839   0.79189   0.00000  Uiso   1.00
H620   H     0.52827   0.05805   0.90695   0.00000  Uiso   1.00
H621   H     0.62008   0.06573   0.97752   0.00000  Uiso   1.00
H622   H     0.54434   0.20416   0.58548   0.00000  Uiso   1.00
H623   H     0.45349   0.20156   0.57520   0.00000  Uiso   1.00
H624   H     0.36184   0.23448   0.53585   0.00000  Uiso   1.00
N625   N     0.47827   0.15223   0.73542   0.00000  Uiso   1.00
N626   N     0.52173   0.18110   0.76457   0.00000  Uiso   1.00
O627   O     0.63102   0.24629   0.75357   0.00000  Uiso   1.00
O628   O     0.39780   0.00432   0.71115   0.00000  Uiso   1.00
O629   O     0.39075   0.23704   0.74423   0.00000  Uiso   1.00
O630   O     0.64823   0.17358   0.83380   0.00000  Uiso   1.00
O631   O     0.40796   0.16433   0.82446   0.00000  Uiso   1.00
O632   O     0.60925   0.09629   0.75576   0.00000  Uiso   1.00
O633   O     0.36898   0.08704   0.74642   0.00000  Uiso   1.00
O634   O     0.59204   0.16901   0.67554   0.00000  Uiso   1.00
O635   O     0.35177   0.15976   0.66620   0.00000  Uiso   1.00
O636   O     0.64225   0.22540   0.92886   0.00000  Uiso   1.00
Zn637  Zn    0.60453   0.17284   0.75623   0.00000  Uiso   1.00
Zn638  Zn    0.39547   0.16049   0.74376   0.00000  Uiso   1.00
C639   C     0.68079   0.26463   0.74619   0.00000  Uiso   1.00
C640   C     0.71964   0.17019   0.91698   0.00000  Uiso   1.00
C641   C     0.68535   0.31802   0.73540   0.00000  Uiso   1.00
C642   C     0.70200   0.16865   0.85546   0.00000  Uiso   1.00
C643   C     0.97740   0.01373   0.74935   0.00000  Uiso   1.00
C644   C     0.98469   0.06836   0.74939   0.00000  Uiso   1.00
C645   C     0.96427   0.16282   0.64468   0.00000  Uiso   1.00
C646   C     0.93538   0.09498   0.50123   0.00000  Uiso   1.00
C647   C     0.94370   0.15258   0.58455   0.00000  Uiso   1.00
C648   C     0.69277   0.20288   0.95118   0.00000  Uiso   1.00
C649   C     0.71670   0.21140   0.50867   0.00000  Uiso   1.00
C650   C     0.79882   0.16246   0.99585   0.00000  Uiso   1.00
C651   C     0.76993   0.19278   0.53063   0.00000  Uiso   1.00
C652   C     0.99005   0.27821   0.91947   0.00000  Uiso   1.00
C653   C     0.93553   0.30205   0.89048   0.00000  Uiso   1.00
C654   C     0.71557   0.32770   0.65181   0.00000  Uiso   1.00
C655   C     0.76356   0.01830   0.62397   0.00000  Uiso   1.00
C656   C     0.76934   0.14549   0.94107   0.00000  Uiso   1.00
C657   C     0.85611   0.14845   0.51365   0.00000  Uiso   1.00
C658   C     0.87927   0.11053   0.98162   0.00000  Uiso   1.00
C659   C     0.84556   0.08811   0.93132   0.00000  Uiso   1.00
C660   C     0.79117   0.10537   0.91114   0.00000  Uiso   1.00
C661   C     0.89140   0.17211   0.56218   0.00000  Uiso   1.00
C662   C     0.96707   0.11505   0.55361   0.00000  Uiso   1.00
H663   H     0.67465   0.09955   0.57102   0.00000  Uiso   1.00
H664   H     0.76624   0.08683   0.87199   0.00000  Uiso   1.00
H665   H     0.68938   0.28160   0.89138   0.00000  Uiso   1.00
H666   H     0.67418   0.30098   0.96028   0.00000  Uiso   1.00
H667   H     0.90277   0.30103   0.91828   0.00000  Uiso   1.00
H668   H     0.94665   0.00990   0.88157   0.00000  Uiso   1.00
H669   H     0.91663   0.27980   0.84988   0.00000  Uiso   1.00
H670   H     0.67443   0.01211   0.63423   0.00000  Uiso   1.00
H671   H     0.71008   0.28489   0.64066   0.00000  Uiso   1.00
H672   H     0.80542   0.00176   0.64081   0.00000  Uiso   1.00
H673   H     0.75216   0.00962   0.57742   0.00000  Uiso   1.00
H674   H     0.93980   0.33081   0.76510   0.00000  Uiso   1.00
H675   H     0.76866   0.06133   0.63248   0.00000  Uiso   1.00
H676   H     0.82334   0.12490   0.70820   0.00000  Uiso   1.00
H677   H     0.84337   0.20839   0.79189   0.00000  Uiso   1.00
H678   H     0.86160   0.05805   0.90695   0.00000  Uiso   1.00
H679   H     0.95341   0.06573   0.97752   0.00000  Uiso   1.00
H680   H     0.87767   0.20416   0.58548   0.00000  Uiso   1.00
H681   H     0.78682   0.20156   0.57520   0.00000  Uiso   1.00
H682   H     0.69517   0.23448   0.53585   0.00000  Uiso   1.00
N683   N     0.81160   0.15223   0.73542   0.00000  Uiso   1.00
N684   N     0.85507   0.18110   0.76457   0.00000  Uiso   1.00
O685   O     0.96435   0.24629   0.75357   0.00000  Uiso   1.00
O686   O     0.73113   0.00432   0.71115   0.00000  Uiso   1.00
O687   O     0.72408   0.23704   0.74423   0.00000  Uiso   1.00
O688   O     0.98157   0.17358   0.83380   0.00000  Uiso   1.00
O689   O     0.74130   0.16433   0.82446   0.00000  Uiso   1.00
O690   O     0.94258   0.09629   0.75576   0.00000  Uiso   1.00
O691   O     0.70231   0.08704   0.74642   0.00000  Uiso   1.00
O692   O     0.92537   0.16901   0.67554   0.00000  Uiso   1.00
O693   O     0.68510   0.15976   0.66620   0.00000  Uiso   1.00
O694   O     0.97559   0.22540   0.92886   0.00000  Uiso   1.00
Zn695  Zn    0.93786   0.17284   0.75623   0.00000  Uiso   1.00
Zn696  Zn    0.72881   0.16049   0.74376   0.00000  Uiso   1.00
C697   C     0.01412   0.59797   0.74619   0.00000  Uiso   1.00
C698   C     0.05297   0.50352   0.91698   0.00000  Uiso   1.00
C699   C     0.01868   0.65135   0.73540   0.00000  Uiso   1.00
C700   C     0.03533   0.50198   0.85546   0.00000  Uiso   1.00
C701   C     0.31073   0.34706   0.74935   0.00000  Uiso   1.00
C702   C     0.31802   0.40170   0.74939   0.00000  Uiso   1.00
C703   C     0.29760   0.49615   0.64468   0.00000  Uiso   1.00
C704   C     0.26872   0.42832   0.50123   0.00000  Uiso   1.00
C705   C     0.27703   0.48591   0.58455   0.00000  Uiso   1.00
C706   C     0.02610   0.53621   0.95118   0.00000  Uiso   1.00
C707   C     0.05004   0.54473   0.50867   0.00000  Uiso   1.00
C708   C     0.13215   0.49580   0.99585   0.00000  Uiso   1.00
C709   C     0.10327   0.52612   0.53063   0.00000  Uiso   1.00
C710   C     0.32339   0.61154   0.91947   0.00000  Uiso   1.00
C711   C     0.26887   0.63539   0.89048   0.00000  Uiso   1.00
C712   C     0.04890   0.66103   0.65181   0.00000  Uiso   1.00
C713   C     0.09689   0.35164   0.62397   0.00000  Uiso   1.00
C714   C     0.10267   0.47883   0.94107   0.00000  Uiso   1.00
C715   C     0.18944   0.48178   0.51365   0.00000  Uiso   1.00
C716   C     0.21261   0.44386   0.98162   0.00000  Uiso   1.00
C717   C     0.17889   0.42144   0.93132   0.00000  Uiso   1.00
C718   C     0.12451   0.43871   0.91114   0.00000  Uiso   1.00
C719   C     0.22473   0.50544   0.56218   0.00000  Uiso   1.00
C720   C     0.30040   0.44838   0.55361   0.00000  Uiso   1.00
H721   H     0.00798   0.43289   0.57102   0.00000  Uiso   1.00
H722   H     0.09957   0.42016   0.87199   0.00000  Uiso   1.00
H723   H     0.02271   0.61493   0.89138   0.00000  Uiso   1.00
H724   H     0.00751   0.63431   0.96028   0.00000  Uiso   1.00
H725   H     0.23610   0.63437   0.91828   0.00000  Uiso   1.00
H726   H     0.27998   0.34323   0.88157   0.00000  Uiso   1.00
H727   H     0.24997   0.61313   0.84988   0.00000  Uiso   1.00
H728   H     0.00777   0.34544   0.63423   0.00000  Uiso   1.00
H729   H     0.04341   0.61822   0.64066   0.00000  Uiso   1.00
H730   H     0.13875   0.33509   0.64081   0.00000  Uiso   1.00
H731   H     0.08549   0.34296   0.57742   0.00000  Uiso   1.00
H732   H     0.27314   0.66414   0.76510   0.00000  Uiso   1.00
H733   H     0.10199   0.39466   0.63248   0.00000  Uiso   1.00
H734   H     0.15667   0.45823   0.70820   0.00000  Uiso   1.00
H735   H     0.17670   0.54172   0.79189   0.00000  Uiso   1.00
H736   H     0.19493   0.39138   0.90695   0.00000  Uiso   1.00
H737   H     0.28675   0.39907   0.97752   0.00000  Uiso   1.00
H738   H     0.21100   0.53749   0.58548   0.00000  Uiso   1.00
H739   H     0.12015   0.53489   0.57520   0.00000  Uiso   1.00
H740   H     0.02851   0.56781   0.53585   0.00000  Uiso   1.00
N741   N     0.14493   0.48556   0.73542   0.00000  Uiso   1.00
N742   N     0.18840   0.51444   0.76457   0.00000  Uiso   1.00
O743   O     0.29769   0.57963   0.75357   0.00000  Uiso   1.00
O744   O     0.06447   0.33765   0.71115   0.00000  Uiso   1.00
O745   O     0.05742   0.57038   0.74423   0.00000  Uiso   1.00
O746   O     0.31490   0.50691   0.83380   0.00000  Uiso   1.00
O747   O     0.07463   0.49766   0.82446   0.00000  Uiso   1.00
O748   O     0.27592   0.42962   0.75576   0.00000  Uiso   1.00
O749   O     0.03565   0.42037   0.74642   0.00000  Uiso   1.00
O750   O     0.25870   0.50234   0.67554   0.00000  Uiso   1.00
O751   O     0.01843   0.49309   0.66620   0.00000  Uiso   1.00
O752   O     0.30892   0.55873   0.92886   0.00000  Uiso   1.00
Zn753  Zn    0.27119   0.50618   0.75623   0.00000  Uiso   1.00
Zn754  Zn    0.06214   0.49382   0.74376   0.00000  Uiso   1.00
C755   C     0.34745   0.59797   0.74619   0.00000  Uiso   1.00
C756   C     0.38630   0.50352   0.91698   0.00000  Uiso   1.00
C757   C     0.35201   0.65135   0.73540   0.00000  Uiso   1.00
C758   C     0.36866   0.50198   0.85546   0.00000  Uiso   1.00
C759   C     0.64406   0.34706   0.74935   0.00000  Uiso   1.00
C760   C     0.65136   0.40170   0.74939   0.00000  Uiso   1.00
C761   C     0.63093   0.49615   0.64468   0.00000  Uiso   1.00
C762   C     0.60205   0.42832   0.50123   0.00000  Uiso   1.00
C763   C     0.61036   0.48591   0.58455   0.00000  Uiso   1.00
C764   C     0.35943   0.53621   0.95118   0.00000  Uiso   1.00
C765   C     0.38337   0.54473   0.50867   0.00000  Uiso   1.00
C766   C     0.46548   0.49580   0.99585   0.00000  Uiso   1.00
C767   C     0.43660   0.52612   0.53063   0.00000  Uiso   1.00
C768   C     0.65672   0.61154   0.91947   0.00000  Uiso   1.00
C769   C     0.60220   0.63539   0.89048   0.00000  Uiso   1.00
C770   C     0.38224   0.66103   0.65181   0.00000  Uiso   1.00
C771   C     0.43022   0.35164   0.62397   0.00000  Uiso   1.00
C772   C     0.43601   0.47883   0.94107   0.00000  Uiso   1.00
C773   C     0.52278   0.48178   0.51365   0.00000  Uiso   1.00
C774   C     0.54594   0.44386   0.98162   0.00000  Uiso   1.00
C775   C     0.51222   0.42144   0.93132   0.00000  Uiso   1.00
C776   C     0.45784   0.43871   0.91114   0.00000  Uiso   1.00
C777   C     0.55807   0.50544   0.56218   0.00000  Uiso   1.00
C778   C     0.63374   0.44838   0.55361   0.00000  Uiso   1.00
H779   H     0.34131   0.43289   0.57102   0.00000  Uiso   1.00
H780   H     0.43290   0.42016   0.87199   0.00000  Uiso   1.00
H781   H     0.35605   0.61493   0.89138   0.00000  Uiso   1.00
H782   H     0.34085   0.63431   0.96028   0.00000  Uiso   1.00
H783   H     0.56943   0.63437   0.91828   0.00000  Uiso   1.00
H784   H     0.61332   0.34323   0.88157   0.00000  Uiso   1.00
H785   H     0.58330   0.61313   0.84988   0.00000  Uiso   1.00
H786   H     0.34110   0.34544   0.63423   0.00000  Uiso   1.00
H787   H     0.37675   0.61822   0.64066   0.00000  Uiso   1.00
H788   H     0.47208   0.33509   0.64081   0.00000  Uiso   1.00
H789   H     0.41882   0.34296   0.57742   0.00000  Uiso   1.00
H790   H     0.60647   0.66414   0.76510   0.00000  Uiso   1.00
H791   H     0.43533   0.39466   0.63248   0.00000  Uiso   1.00
H792   H     0.49001   0.45823   0.70820   0.00000  Uiso   1.00
H793   H     0.51003   0.54172   0.79189   0.00000  Uiso   1.00
H794   H     0.52827   0.39138   0.90695   0.00000  Uiso   1.00
H795   H     0.62008   0.39907   0.97752   0.00000  Uiso   1.00
H796   H     0.54434   0.53749   0.58548   0.00000  Uiso   1.00
H797   H     0.45349   0.53489   0.57520   0.00000  Uiso   1.00
H798   H     0.36184   0.56781   0.53585   0.00000  Uiso   1.00
N799   N     0.47827   0.48556   0.73542   0.00000  Uiso   1.00
N800   N     0.52173   0.51444   0.76457   0.00000  Uiso   1.00
O801   O     0.63102   0.57963   0.75357   0.00000  Uiso   1.00
O802   O     0.39780   0.33765   0.71115   0.00000  Uiso   1.00
O803   O     0.39075   0.57038   0.74423   0.00000  Uiso   1.00
O804   O     0.64823   0.50691   0.83380   0.00000  Uiso   1.00
O805   O     0.40796   0.49766   0.82446   0.00000  Uiso   1.00
O806   O     0.60925   0.42962   0.75576   0.00000  Uiso   1.00
O807   O     0.36898   0.42037   0.74642   0.00000  Uiso   1.00
O808   O     0.59204   0.50234   0.67554   0.00000  Uiso   1.00
O809   O     0.35177   0.49309   0.66620   0.00000  Uiso   1.00
O810   O     0.64225   0.55873   0.92886   0.00000  Uiso   1.00
Zn811  Zn    0.60453   0.50618   0.75623   0.00000  Uiso   1.00
Zn812  Zn    0.39547   0.49382   0.74376   0.00000  Uiso   1.00
C813   C     0.68079   0.59797   0.74619   0.00000  Uiso   1.00
C814   C     0.71964   0.50352   0.91698   0.00000  Uiso   1.00
C815   C     0.68535   0.65135   0.73540   0.00000  Uiso   1.00
C816   C     0.70200   0.50198   0.85546   0.00000  Uiso   1.00
C817   C     0.97740   0.34706   0.74935   0.00000  Uiso   1.00
C818   C     0.98469   0.40170   0.74939   0.00000  Uiso   1.00
C819   C     0.96427   0.49615   0.64468   0.00000  Uiso   1.00
C820   C     0.93538   0.42832   0.50123   0.00000  Uiso   1.00
C821   C     0.94370   0.48591   0.58455   0.00000  Uiso   1.00
C822   C     0.69277   0.53621   0.95118   0.00000  Uiso   1.00
C823   C     0.71670   0.54473   0.50867   0.00000  Uiso   1.00
C824   C     0.79882   0.49580   0.99585   0.00000  Uiso   1.00
C825   C     0.76993   0.52612   0.53063   0.00000  Uiso   1.00
C826   C     0.99005   0.61154   0.91947   0.00000  Uiso   1.00
C827   C     0.93553   0.63539   0.89048   0.00000  Uiso   1.00
C828   C     0.71557   0.66103   0.65181   0.00000  Uiso   1.00
C829   C     0.76356   0.35164   0.62397   0.00000  Uiso   1.00
C830   C     0.76934   0.47883   0.94107   0.00000  Uiso   1.00
C831   C     0.85611   0.48178   0.51365   0.00000  Uiso   1.00
C832   C     0.87927   0.44386   0.98162   0.00000  Uiso   1.00
C833   C     0.84556   0.42144   0.93132   0.00000  Uiso   1.00
C834   C     0.79117   0.43871   0.91114   0.00000  Uiso   1.00
C835   C     0.89140   0.50544   0.56218   0.00000  Uiso   1.00
C836   C     0.96707   0.44838   0.55361   0.00000  Uiso   1.00
H837   H     0.67465   0.43289   0.57102   0.00000  Uiso   1.00
H838   H     0.76624   0.42016   0.87199   0.00000  Uiso   1.00
H839   H     0.68938   0.61493   0.89138   0.00000  Uiso   1.00
H840   H     0.67418   0.63431   0.96028   0.00000  Uiso   1.00
H841   H     0.90277   0.63437   0.91828   0.00000  Uiso   1.00
H842   H     0.94665   0.34323   0.88157   0.00000  Uiso   1.00
H843   H     0.91663   0.61313   0.84988   0.00000  Uiso   1.00
H844   H     0.67443   0.34544   0.63423   0.00000  Uiso   1.00
H845   H     0.71008   0.61822   0.64066   0.00000  Uiso   1.00
H846   H     0.80542   0.33509   0.64081   0.00000  Uiso   1.00
H847   H     0.75216   0.34296   0.57742   0.00000  Uiso   1.00
H848   H     0.93980   0.66414   0.76510   0.00000  Uiso   1.00
H849   H     0.76866   0.39466   0.63248   0.00000  Uiso   1.00
H850   H     0.82334   0.45823   0.70820   0.00000  Uiso   1.00
H851   H     0.84337   0.54172   0.79189   0.00000  Uiso   1.00
H852   H     0.86160   0.39138   0.90695   0.00000  Uiso   1.00
H853   H     0.95341   0.39907   0.97752   0.00000  Uiso   1.00
H854   H     0.87767   0.53749   0.58548   0.00000  Uiso   1.00
H855   H     0.78682   0.53489   0.57520   0.00000  Uiso   1.00
H856   H     0.69517   0.56781   0.53585   0.00000  Uiso   1.00
N857   N     0.81160   0.48556   0.73542   0.00000  Uiso   1.00
N858   N     0.85507   0.51444   0.76457   0.00000  Uiso   1.00
O859   O     0.96435   0.57963   0.75357   0.00000  Uiso   1.00
O860   O     0.73113   0.33765   0.71115   0.00000  Uiso   1.00
O861   O     0.72408   0.57038   0.74423   0.00000  Uiso   1.00
O862   O     0.98157   0.50691   0.83380   0.00000  Uiso   1.00
O863   O     0.74130   0.49766   0.82446   0.00000  Uiso   1.00
O864   O     0.94258   0.42962   0.75576   0.00000  Uiso   1.00
O865   O     0.70231   0.42037   0.74642   0.00000  Uiso   1.00
O866   O     0.92537   0.50234   0.67554   0.00000  Uiso   1.00
O867   O     0.68510   0.49309   0.66620   0.00000  Uiso   1.00
O868   O     0.97559   0.55873   0.92886   0.00000  Uiso   1.00
Zn869  Zn    0.93786   0.50618   0.75623   0.00000  Uiso   1.00
Zn870  Zn    0.72881   0.49382   0.74376   0.00000  Uiso   1.00
C871   C     0.01412   0.93130   0.74619   0.00000  Uiso   1.00
C872   C     0.05297   0.83686   0.91698   0.00000  Uiso   1.00
C873   C     0.01868   0.98468   0.73540   0.00000  Uiso   1.00
C874   C     0.03533   0.83532   0.85546   0.00000  Uiso   1.00
C875   C     0.31073   0.68039   0.74935   0.00000  Uiso   1.00
C876   C     0.31802   0.73503   0.74939   0.00000  Uiso   1.00
C877   C     0.29760   0.82949   0.64468   0.00000  Uiso   1.00
C878   C     0.26872   0.76165   0.50123   0.00000  Uiso   1.00
C879   C     0.27703   0.81924   0.58455   0.00000  Uiso   1.00
C880   C     0.02610   0.86955   0.95118   0.00000  Uiso   1.00
C881   C     0.05004   0.87806   0.50867   0.00000  Uiso   1.00
C882   C     0.13215   0.82913   0.99585   0.00000  Uiso   1.00
C883   C     0.10327   0.85945   0.53063   0.00000  Uiso   1.00
C884   C     0.32339   0.94487   0.91947   0.00000  Uiso   1.00
C885   C     0.26887   0.96872   0.89048   0.00000  Uiso   1.00
C886   C     0.04890   0.99437   0.65181   0.00000  Uiso   1.00
C887   C     0.09689   0.68497   0.62397   0.00000  Uiso   1.00
C888   C     0.10267   0.81216   0.94107   0.00000  Uiso   1.00
C889   C     0.18944   0.81512   0.51365   0.00000  Uiso   1.00
C890   C     0.21261   0.77719   0.98162   0.00000  Uiso   1.00
C891   C     0.17889   0.75477   0.93132   0.00000  Uiso   1.00
C892   C     0.12451   0.77204   0.91114   0.00000  Uiso   1.00
C893   C     0.22473   0.83878   0.56218   0.00000  Uiso   1.00
C894   C     0.30040   0.78171   0.55361   0.00000  Uiso   1.00
H895   H     0.00798   0.76622   0.57102   0.00000  Uiso   1.00
H896   H     0.09957   0.75350   0.87199   0.00000  Uiso   1.00
H897   H     0.02271   0.94826   0.89138   0.00000  Uiso   1.00
H898   H     0.00751   0.96765   0.96028   0.00000  Uiso   1.00
H899   H     0.23610   0.96770   0.91828   0.00000  Uiso   1.00
H900   H     0.27998   0.67656   0.88157   0.00000  Uiso   1.00
H901   H     0.24997   0.94647   0.84988   0.00000  Uiso   1.00
H902   H     0.00777   0.67877   0.63423   0.00000  Uiso   1.00
H903   H     0.04341   0.95156   0.64066   0.00000  Uiso   1.00
H904   H     0.13875   0.66843   0.64081   0.00000  Uiso   1.00
H905   H     0.08549   0.67629   0.57742   0.00000  Uiso   1.00
H906   H     0.27314   0.99748   0.76510   0.00000  Uiso   1.00
H907   H     0.10199   0.72800   0.63248   0.00000  Uiso   1.00
H908   H     0.15667   0.79156   0.70820   0.00000  Uiso   1.00
H909   H     0.17670   0.87506   0.79189   0.00000  Uiso   1.00
H910   H     0.19493   0.72472   0.90695   0.00000  Uiso   1.00
H911   H     0.28675   0.73240   0.97752   0.00000  Uiso   1.00
H912   H     0.21100   0.87082   0.58548   0.00000  Uiso   1.00
H913   H     0.12015   0.86822   0.57520   0.00000  Uiso   1.00
H914   H     0.02851   0.90114   0.53585   0.00000  Uiso   1.00
N915   N     0.14493   0.81890   0.73542   0.00000  Uiso   1.00
N916   N     0.18840   0.84777   0.76457   0.00000  Uiso   1.00
O917   O     0.29769   0.91296   0.75357   0.00000  Uiso   1.00
O918   O     0.06447   0.67099   0.71115   0.00000  Uiso   1.00
O919   O     0.05742   0.90371   0.74423   0.00000  Uiso   1.00
O920   O     0.31490   0.84024   0.83380   0.00000  Uiso   1.00
O921   O     0.07463   0.83099   0.82446   0.00000  Uiso   1.00
O922   O     0.27592   0.76296   0.75576   0.00000  Uiso   1.00
O923   O     0.03565   0.75371   0.74642   0.00000  Uiso   1.00
O924   O     0.25870   0.83567   0.67554   0.00000  Uiso   1.00
O925   O     0.01843   0.82642   0.66620   0.00000  Uiso   1.00
O926   O     0.30892   0.89207   0.92886   0.00000  Uiso   1.00
Zn927  Zn    0.27119   0.83951   0.75623   0.00000  Uiso   1.00
Zn928  Zn    0.06214   0.82716   0.74376   0.00000  Uiso   1.00
C929   C     0.34745   0.93130   0.74619   0.00000  Uiso   1.00
C930   C     0.38630   0.83686   0.91698   0.00000  Uiso   1.00
C931   C     0.35201   0.98468   0.73540   0.00000  Uiso   1.00
C932   C     0.36866   0.83532   0.85546   0.00000  Uiso   1.00
C933   C     0.64406   0.68039   0.74935   0.00000  Uiso   1.00
C934   C     0.65136   0.73503   0.74939   0.00000  Uiso   1.00
C935   C     0.63093   0.82949   0.64468   0.00000  Uiso   1.00
C936   C     0.60205   0.76165   0.50123   0.00000  Uiso   1.00
C937   C     0.61036   0.81924   0.58455   0.00000  Uiso   1.00
C938   C     0.35943   0.86955   0.95118   0.00000  Uiso   1.00
C939   C     0.38337   0.87806   0.50867   0.00000  Uiso   1.00
C940   C     0.46548   0.82913   0.99585   0.00000  Uiso   1.00
C941   C     0.43660   0.85945   0.53063   0.00000  Uiso   1.00
C942   C     0.65672   0.94487   0.91947   0.00000  Uiso   1.00
C943   C     0.60220   0.96872   0.89048   0.00000  Uiso   1.00
C944   C     0.38224   0.99437   0.65181   0.00000  Uiso   1.00
C945   C     0.43022   0.68497   0.62397   0.00000  Uiso   1.00
C946   C     0.43601   0.81216   0.94107   0.00000  Uiso   1.00
C947   C     0.52278   0.81512   0.51365   0.00000  Uiso   1.00
C948   C     0.54594   0.77719   0.98162   0.00000  Uiso   1.00
C949   C     0.51222   0.75477   0.93132   0.00000  Uiso   1.00
C950   C     0.45784   0.77204   0.91114   0.00000  Uiso   1.00
C951   C     0.55807   0.83878   0.56218   0.00000  Uiso   1.00
C952   C     0.63374   0.78171   0.55361   0.00000  Uiso   1.00
H953   H     0.34131   0.76622   0.57102   0.00000  Uiso   1.00
H954   H     0.43290   0.75350   0.87199   0.00000  Uiso   1.00
H955   H     0.35605   0.94826   0.89138   0.00000  Uiso   1.00
H956   H     0.34085   0.96765   0.96028   0.00000  Uiso   1.00
H957   H     0.56943   0.96770   0.91828   0.00000  Uiso   1.00
H958   H     0.61332   0.67656   0.88157   0.00000  Uiso   1.00
H959   H     0.58330   0.94647   0.84988   0.00000  Uiso   1.00
H960   H     0.34110   0.67877   0.63423   0.00000  Uiso   1.00
H961   H     0.37675   0.95156   0.64066   0.00000  Uiso   1.00
H962   H     0.47208   0.66843   0.64081   0.00000  Uiso   1.00
H963   H     0.41882   0.67629   0.57742   0.00000  Uiso   1.00
H964   H     0.60647   0.99748   0.76510   0.00000  Uiso   1.00
H965   H     0.43533   0.72800   0.63248   0.00000  Uiso   1.00
H966   H     0.49001   0.79156   0.70820   0.00000  Uiso   1.00
H967   H     0.51003   0.87506   0.79189   0.00000  Uiso   1.00
H968   H     0.52827   0.72472   0.90695   0.00000  Uiso   1.00
H969   H     0.62008   0.73240   0.97752   0.00000  Uiso   1.00
H970   H     0.54434   0.87082   0.58548   0.00000  Uiso   1.00
H971   H     0.45349   0.86822   0.57520   0.00000  Uiso   1.00
H972   H     0.36184   0.90114   0.53585   0.00000  Uiso   1.00
N973   N     0.47827   0.81890   0.73542   0.00000  Uiso   1.00
N974   N     0.52173   0.84777   0.76457   0.00000  Uiso   1.00
O975   O     0.63102   0.91296   0.75357   0.00000  Uiso   1.00
O976   O     0.39780   0.67099   0.71115   0.00000  Uiso   1.00
O977   O     0.39075   0.90371   0.74423   0.00000  Uiso   1.00
O978   O     0.64823   0.84024   0.83380   0.00000  Uiso   1.00
O979   O     0.40796   0.83099   0.82446   0.00000  Uiso   1.00
O980   O     0.60925   0.76296   0.75576   0.00000  Uiso   1.00
O981   O     0.36898   0.75371   0.74642   0.00000  Uiso   1.00
O982   O     0.59204   0.83567   0.67554   0.00000  Uiso   1.00
O983   O     0.35177   0.82642   0.66620   0.00000  Uiso   1.00
O984   O     0.64225   0.89207   0.92886   0.00000  Uiso   1.00
Zn985  Zn    0.60453   0.83951   0.75623   0.00000  Uiso   1.00
Zn986  Zn    0.39547   0.82716   0.74376   0.00000  Uiso   1.00
C987   C     0.68079   0.93130   0.74619   0.00000  Uiso   1.00
C988   C     0.71964   0.83686   0.91698   0.00000  Uiso   1.00
C989   C     0.68535   0.98468   0.73540   0.00000  Uiso   1.00
C990   C     0.70200   0.83532   0.85546   0.00000  Uiso   1.00
C991   C     0.97740   0.68039   0.74935   0.00000  Uiso   1.00
C992   C     0.98469   0.73503   0.74939   0.00000  Uiso   1.00
C993   C     0.96427   0.82949   0.64468   0.00000  Uiso   1.00
C994   C     0.93538   0.76165   0.50123   0.00000  Uiso   1.00
C995   C     0.94370   0.81924   0.58455   0.00000  Uiso   1.00
C996   C     0.69277   0.86955   0.95118   0.00000  Uiso   1.00
C997   C     0.71670   0.87806   0.50867   0.00000  Uiso   1.00
C998   C     0.79882   0.82913   0.99585   0.00000  Uiso   1.00
C999   C     0.76993   0.85945   0.53063   0.00000  Uiso   1.00
C1000  C     0.99005   0.94487   0.91947   0.00000  Uiso   1.00
C1001  C     0.93553   0.96872   0.89048   0.00000  Uiso   1.00
C1002  C     0.71557   0.99437   0.65181   0.00000  Uiso   1.00
C1003  C     0.76356   0.68497   0.62397   0.00000  Uiso   1.00
C1004  C     0.76934   0.81216   0.94107   0.00000  Uiso   1.00
C1005  C     0.85611   0.81512   0.51365   0.00000  Uiso   1.00
C1006  C     0.87927   0.77719   0.98162   0.00000  Uiso   1.00
C1007  C     0.84556   0.75477   0.93132   0.00000  Uiso   1.00
C1008  C     0.79117   0.77204   0.91114   0.00000  Uiso   1.00
C1009  C     0.89140   0.83878   0.56218   0.00000  Uiso   1.00
C1010  C     0.96707   0.78171   0.55361   0.00000  Uiso   1.00
H1011  H     0.67465   0.76622   0.57102   0.00000  Uiso   1.00
H1012  H     0.76624   0.75350   0.87199   0.00000  Uiso   1.00
H1013  H     0.68938   0.94826   0.89138   0.00000  Uiso   1.00
H1014  H     0.67418   0.96765   0.96028   0.00000  Uiso   1.00
H1015  H     0.90277   0.96770   0.91828   0.00000  Uiso   1.00
H1016  H     0.94665   0.67656   0.88157   0.00000  Uiso   1.00
H1017  H     0.91663   0.94647   0.84988   0.00000  Uiso   1.00
H1018  H     0.67443   0.67877   0.63423   0.00000  Uiso   1.00
H1019  H     0.71008   0.95156   0.64066   0.00000  Uiso   1.00
H1020  H     0.80542   0.66843   0.64081   0.00000  Uiso   1.00
H1021  H     0.75216   0.67629   0.57742   0.00000  Uiso   1.00
H1022  H     0.93980   0.99748   0.76510   0.00000  Uiso   1.00
H1023  H     0.76866   0.72800   0.63248   0.00000  Uiso   1.00
H1024  H     0.82334   0.79156   0.70820   0.00000  Uiso   1.00
H1025  H     0.84337   0.87506   0.79189   0.00000  Uiso   1.00
H1026  H     0.86160   0.72472   0.90695   0.00000  Uiso   1.00
H1027  H     0.95341   0.73240   0.97752   0.00000  Uiso   1.00
H1028  H     0.87767   0.87082   0.58548   0.00000  Uiso   1.00
H1029  H     0.78682   0.86822   0.57520   0.00000  Uiso   1.00
H1030  H     0.69517   0.90114   0.53585   0.00000  Uiso   1.00
N1031  N     0.81160   0.81890   0.73542   0.00000  Uiso   1.00
N1032  N     0.85507   0.84777   0.76457   0.00000  Uiso   1.00
O1033  O     0.96435   0.91296   0.75357   0.00000  Uiso   1.00
O1034  O     0.73113   0.67099   0.71115   0.00000  Uiso   1.00
O1035  O     0.72408   0.90371   0.74423   0.00000  Uiso   1.00
O1036  O     0.98157   0.84024   0.83380   0.00000  Uiso   1.00
O1037  O     0.74130   0.83099   0.82446   0.00000  Uiso   1.00
O1038  O     0.94258   0.76296   0.75576   0.00000  Uiso   1.00
O1039  O     0.70231   0.75371   0.74642   0.00000  Uiso   1.00
O1040  O     0.92537   0.83567   0.67554   0.00000  Uiso   1.00
O1041  O     0.68510   0.82642   0.66620   0.00000  Uiso   1.00
O1042  O     0.97559   0.89207   0.92886   0.00000  Uiso   1.00
Zn1043 Zn    0.93786   0.83951   0.75623   0.00000  Uiso   1.00
Zn1044 Zn    0.72881   0.82716   0.74376   0.00000  Uiso   1.00
loop_
_geom_bond_atom_site_label_1
_geom_bond_atom_site_label_2
_geom_bond_distance
_geom_bond_site_symmetry_2
_ccdc_geom_bond_type
C1     O49     1.288   .     A
C1     C3      1.407   .     S
C1     O163    1.274   1_455 S
C2     C4      1.458   .     S
C2     C18     1.407   .     A
C2     C10     1.414   .     A
C3     C295    1.348   1_455 S
C3     O222    1.390   .     S
C4     O51     1.300   .     A
C4     O166    1.288   1_455 S
C5     C6      1.402   .     S
C5     C409    1.348   1_545 S
C5     H384    1.087   1_545 S
C6     O52     1.291   .     A
C6     O111    1.271   .     S
C7     C9      1.443   .     S
C7     O54     1.296   .     A
C7     O113    1.288   .     S
C8     C24     1.394   .     A
C8     C542    1.404   1_554 S
C8     H563    1.083   1_554 S
C9     C24     1.400   .     A
C9     C23     1.382   .     A
C10    C533    1.393   .     S
C10    O172    1.383   1_455 S
C11    H44     1.083   .     S
C11    C13     1.388   .     A
C11    C532    1.393   1_554 S
C12    C18     1.404   .     A
C12    C535    1.417   .     S
C12    C541    1.409   .     S
C13    H43     1.079   .     S
C13    C534    1.417   1_554 S
C14    O56     1.413   .     S
C14    C15     1.520   .     S
C14    H85     1.115   .     S
C14    H86     1.114   .     S
C15    H31     1.110   .     S
C15    H29     1.111   .     S
C15    H204    1.111   .     S
C16    H33     1.114   .     S
C16    C191    1.521   .     S
C16    H206    1.115   .     S
C16    O222    1.414   .     S
C17    H37     1.110   .     S
C17    H35     1.111   .     S
C17    H34     1.111   .     S
C17    C364    1.521   1_545 S
C18    C22     1.415   .     A
C19    C23     1.386   .     A
C19    C534    1.409   1_554 S
C19    C542    1.420   1_554 S
C20    C21     1.392   .     A
C20    C530    1.404   .     S
C20    C541    1.420   .     S
C21    C22     1.388   .     A
C21    H40     1.083   .     S
C22    H26     1.082   .     S
C23    H42     1.080   .     S
C24    H83     1.083   .     S
H25    C140    1.083   1_455 S
H27    C130    1.115   1_455 S
H28    C130    1.114   1_455 S
H30    C363    1.111   1_545 S
H32    C364    1.115   1_545 S
H36    C179    1.087   .     S
H38    N45     1.029   .     S
H39    N46     1.029   .     S
H41    C530    1.083   .     S
N45    N46     1.288   .     D
N45    Zn58    2.016   .     S
N46    Zn57    2.016   .     S
O47    Zn57    1.951   .     S
O47    C59     1.274   .     S
O48    C364    1.414   1_545 S
O48    C351    1.390   1_545 S
O49    Zn58    1.979   .     S
O50    Zn57    1.951   .     S
O50    C62     1.288   .     S
O51    Zn58    1.906   .     S
O52    Zn57    1.979   .     S
O53    Zn58    1.951   .     S
O53    C122    1.271   1_455 S
O54    Zn57    1.906   .     S
O55    Zn58    1.951   .     S
O55    C123    1.288   1_455 S
O56    C68     1.383   .     S
C59    O107    1.288   .     A
C59    C61     1.407   .     S
C60    C62     1.458   .     S
C60    C76     1.407   .     A
C60    C68     1.414   .     A
C61    C179    1.348   .     S
C61    O280    1.390   .     S
C62    O109    1.300   .     A
C63    C64     1.402   .     S
C63    C467    1.348   1_545 S
C63    H442    1.087   1_545 S
C64    O110    1.291   .     A
C64    O169    1.271   .     S
C65    C67     1.443   .     S
C65    O112    1.296   .     A
C65    O171    1.288   .     S
C66    C82     1.394   .     A
C66    C600    1.404   1_554 S
C66    H621    1.083   1_554 S
C67    C82     1.400   .     A
C67    C81     1.382   .     A
C68    C591    1.393   .     S
C69    H102    1.083   .     S
C69    C71     1.388   .     A
C69    C590    1.393   1_554 S
C70    C76     1.404   .     A
C70    C593    1.417   .     S
C70    C599    1.409   .     S
C71    H101    1.079   .     S
C71    C592    1.417   1_554 S
C72    O114    1.413   .     S
C72    C73     1.520   .     S
C72    H143    1.115   .     S
C72    H144    1.114   .     S
C73    H89     1.110   .     S
C73    H87     1.111   .     S
C73    H262    1.111   .     S
C74    H91     1.114   .     S
C74    C249    1.521   .     S
C74    H264    1.115   .     S
C74    O280    1.414   .     S
C75    H95     1.110   .     S
C75    H93     1.111   .     S
C75    H92     1.111   .     S
C75    C422    1.521   1_545 S
C76    C80     1.415   .     A
C77    C81     1.386   .     A
C77    C592    1.409   1_554 S
C77    C600    1.420   1_554 S
C78    C79     1.392   .     A
C78    C588    1.404   .     S
C78    C599    1.420   .     S
C79    C80     1.388   .     A
C79    H98     1.083   .     S
C80    H84     1.082   .     S
C81    H100    1.080   .     S
C82    H141    1.083   .     S
H88    C421    1.111   1_545 S
H90    C422    1.115   1_545 S
H94    C237    1.087   .     S
H96    N103    1.029   .     S
H97    N104    1.029   .     S
H99    C588    1.083   .     S
N103   N104    1.288   .     D
N103   Zn116   2.016   .     S
N104   Zn115   2.016   .     S
O105   Zn115   1.951   .     S
O105   C117    1.274   .     S
O106   C422    1.414   1_545 S
O106   C409    1.390   1_545 S
O107   Zn116   1.979   .     S
O108   Zn115   1.951   .     S
O108   C120    1.288   .     S
O109   Zn116   1.906   .     S
O110   Zn115   1.979   .     S
O111   Zn116   1.951   .     S
O112   Zn115   1.906   .     S
O113   Zn116   1.951   .     S
O114   C126    1.383   .     S
C117   O165    1.288   .     A
C117   C119    1.407   .     S
C118   C120    1.458   .     S
C118   C134    1.407   .     A
C118   C126    1.414   .     A
C119   C237    1.348   .     S
C119   O338    1.390   .     S
C120   O167    1.300   .     A
C121   C122    1.402   .     S
C121   C351    1.348   1_645 S
C121   H500    1.087   1_545 S
C122   O168    1.291   .     A
C122   O53     1.271   1_655 S
C123   C125    1.443   .     S
C123   O170    1.296   .     A
C123   O55     1.288   1_655 S
C124   C140    1.394   .     A
C124   C658    1.404   1_554 S
C124   H679    1.083   1_554 S
C125   C140    1.400   .     A
C125   C139    1.382   .     A
C126   C649    1.393   .     S
C127   H160    1.083   .     S
C127   C129    1.388   .     A
C127   C648    1.393   1_554 S
C128   C134    1.404   .     A
C128   C651    1.417   .     S
C128   C657    1.409   .     S
C129   H159    1.079   .     S
C129   C650    1.417   1_554 S
C130   O172    1.413   .     S
C130   C131    1.520   .     S
C130   H27     1.115   1_655 S
C130   H28     1.114   1_655 S
C131   H147    1.110   .     S
C131   H145    1.111   .     S
C131   H320    1.111   .     S
C132   H149    1.114   .     S
C132   C307    1.521   .     S
C132   H322    1.115   .     S
C132   O338    1.414   .     S
C133   H153    1.110   .     S
C133   H151    1.111   .     S
C133   H150    1.111   .     S
C133   C480    1.521   1_545 S
C134   C138    1.415   .     A
C135   C139    1.386   .     A
C135   C650    1.409   1_554 S
C135   C658    1.420   1_554 S
C136   C137    1.392   .     A
C136   C646    1.404   .     S
C136   C657    1.420   .     S
C137   C138    1.388   .     A
C137   H156    1.083   .     S
C138   H142    1.082   .     S
C139   H158    1.080   .     S
C140   H25     1.083   1_655 S
H146   C479    1.111   1_545 S
H148   C480    1.115   1_545 S
H152   C295    1.087   .     S
H154   N161    1.029   .     S
H155   N162    1.029   .     S
H157   C646    1.083   .     S
N161   N162    1.288   .     D
N161   Zn174   2.016   .     S
N162   Zn173   2.016   .     S
O163   Zn173   1.951   .     S
O163   C1      1.274   1_655 S
O164   C480    1.414   1_545 S
O164   C467    1.390   1_545 S
O165   Zn174   1.979   .     S
O166   Zn173   1.951   .     S
O166   C4      1.288   1_655 S
O167   Zn174   1.906   .     S
O168   Zn173   1.979   .     S
O169   Zn174   1.951   .     S
O170   Zn173   1.906   .     S
O171   Zn174   1.951   .     S
O172   C10     1.383   1_655 S
C175   O223    1.288   .     A
C175   C177    1.407   .     S
C175   O337    1.274   1_455 S
C176   C178    1.458   .     S
C176   C192    1.407   .     A
C176   C184    1.414   .     A
C177   C469    1.348   1_455 S
C177   O396    1.390   .     S
C178   O225    1.300   .     A
C178   O340    1.288   1_455 S
C179   C180    1.402   .     S
C180   O226    1.291   .     A
C180   O285    1.271   .     S
C181   C183    1.443   .     S
C181   O228    1.296   .     A
C181   O287    1.288   .     S
C182   C198    1.394   .     A
C182   C716    1.404   1_554 S
C182   H737    1.083   1_554 S
C183   C198    1.400   .     A
C183   C197    1.382   .     A
C184   C707    1.393   .     S
C184   O346    1.383   1_455 S
C185   H218    1.083   .     S
C185   C187    1.388   .     A
C185   C706    1.393   1_554 S
C186   C192    1.404   .     A
C186   C709    1.417   .     S
C186   C715    1.409   .     S
C187   H217    1.079   .     S
C187   C708    1.417   1_554 S
C188   O230    1.413   .     S
C188   C189    1.520   .     S
C188   H259    1.115   .     S
C188   H260    1.114   .     S
C189   H205    1.110   .     S
C189   H203    1.111   .     S
C189   H378    1.111   .     S
C190   H207    1.114   .     S
C190   C365    1.521   .     S
C190   H380    1.115   .     S
C190   O396    1.414   .     S
C191   H211    1.110   .     S
C191   H209    1.111   .     S
C191   H208    1.111   .     S
C192   C196    1.415   .     A
C193   C197    1.386   .     A
C193   C708    1.409   1_554 S
C193   C716    1.420   1_554 S
C194   C195    1.392   .     A
C194   C704    1.404   .     S
C194   C715    1.420   .     S
C195   C196    1.388   .     A
C195   H214    1.083   .     S
C196   H200    1.082   .     S
C197   H216    1.080   .     S
C198   H257    1.083   .     S
H199   C314    1.083   1_455 S
H201   C304    1.115   1_455 S
H202   C304    1.114   1_455 S
H210   C353    1.087   .     S
H212   N219    1.029   .     S
H213   N220    1.029   .     S
H215   C704    1.083   .     S
N219   N220    1.288   .     D
N219   Zn232   2.016   .     S
N220   Zn231   2.016   .     S
O221   Zn231   1.951   .     S
O221   C233    1.274   .     S
O223   Zn232   1.979   .     S
O224   Zn231   1.951   .     S
O224   C236    1.288   .     S
O225   Zn232   1.906   .     S
O226   Zn231   1.979   .     S
O227   Zn232   1.951   .     S
O227   C296    1.271   1_455 S
O228   Zn231   1.906   .     S
O229   Zn232   1.951   .     S
O229   C297    1.288   1_455 S
O230   C242    1.383   .     S
C233   O281    1.288   .     A
C233   C235    1.407   .     S
C234   C236    1.458   .     S
C234   C250    1.407   .     A
C234   C242    1.414   .     A
C235   C353    1.348   .     S
C235   O454    1.390   .     S
C236   O283    1.300   .     A
C237   C238    1.402   .     S
C238   O284    1.291   .     A
C238   O343    1.271   .     S
C239   C241    1.443   .     S
C239   O286    1.296   .     A
C239   O345    1.288   .     S
C240   C256    1.394   .     A
C240   C774    1.404   1_554 S
C240   H795    1.083   1_554 S
C241   C256    1.400   .     A
C241   C255    1.382   .     A
C242   C765    1.393   .     S
C243   H276    1.083   .     S
C243   C245    1.388   .     A
C243   C764    1.393   1_554 S
C244   C250    1.404   .     A
C244   C767    1.417   .     S
C244   C773    1.409   .     S
C245   H275    1.079   .     S
C245   C766    1.417   1_554 S
C246   O288    1.413   .     S
C246   C247    1.520   .     S
C246   H317    1.115   .     S
C246   H318    1.114   .     S
C247   H263    1.110   .     S
C247   H261    1.111   .     S
C247   H436    1.111   .     S
C248   H265    1.114   .     S
C248   C423    1.521   .     S
C248   H438    1.115   .     S
C248   O454    1.414   .     S
C249   H269    1.110   .     S
C249   H267    1.111   .     S
C249   H266    1.111   .     S
C250   C254    1.415   .     A
C251   C255    1.386   .     A
C251   C766    1.409   1_554 S
C251   C774    1.420   1_554 S
C252   C253    1.392   .     A
C252   C762    1.404   .     S
C252   C773    1.420   .     S
C253   C254    1.388   .     A
C253   H272    1.083   .     S
C254   H258    1.082   .     S
C255   H274    1.080   .     S
C256   H315    1.083   .     S
H268   C411    1.087   .     S
H270   N277    1.029   .     S
H271   N278    1.029   .     S
H273   C762    1.083   .     S
N277   N278    1.288   .     D
N277   Zn290   2.016   .     S
N278   Zn289   2.016   .     S
O279   Zn289   1.951   .     S
O279   C291    1.274   .     S
O281   Zn290   1.979   .     S
O282   Zn289   1.951   .     S
O282   C294    1.288   .     S
O283   Zn290   1.906   .     S
O284   Zn289   1.979   .     S
O285   Zn290   1.951   .     S
O286   Zn289   1.906   .     S
O287   Zn290   1.951   .     S
O288   C300    1.383   .     S
C291   O339    1.288   .     A
C291   C293    1.407   .     S
C292   C294    1.458   .     S
C292   C308    1.407   .     A
C292   C300    1.414   .     A
C293   C411    1.348   .     S
C293   O512    1.390   .     S
C294   O341    1.300   .     A
C295   C296    1.402   .     S
C295   C3      1.348   1_655 S
C296   O342    1.291   .     A
C296   O227    1.271   1_655 S
C297   C299    1.443   .     S
C297   O344    1.296   .     A
C297   O229    1.288   1_655 S
C298   C314    1.394   .     A
C298   C832    1.404   1_554 S
C298   H853    1.083   1_554 S
C299   C314    1.400   .     A
C299   C313    1.382   .     A
C300   C823    1.393   .     S
C301   H334    1.083   .     S
C301   C303    1.388   .     A
C301   C822    1.393   1_554 S
C302   C308    1.404   .     A
C302   C825    1.417   .     S
C302   C831    1.409   .     S
C303   H333    1.079   .     S
C303   C824    1.417   1_554 S
C304   O346    1.413   .     S
C304   C305    1.520   .     S
C304   H201    1.115   1_655 S
C304   H202    1.114   1_655 S
C305   H321    1.110   .     S
C305   H319    1.111   .     S
C305   H494    1.111   .     S
C306   H323    1.114   .     S
C306   C481    1.521   .     S
C306   H496    1.115   .     S
C306   O512    1.414   .     S
C307   H327    1.110   .     S
C307   H325    1.111   .     S
C307   H324    1.111   .     S
C308   C312    1.415   .     A
C309   C313    1.386   .     A
C309   C824    1.409   1_554 S
C309   C832    1.420   1_554 S
C310   C311    1.392   .     A
C310   C820    1.404   .     S
C310   C831    1.420   .     S
C311   C312    1.388   .     A
C311   H330    1.083   .     S
C312   H316    1.082   .     S
C313   H332    1.080   .     S
C314   H199    1.083   1_655 S
H326   C469    1.087   .     S
H328   N335    1.029   .     S
H329   N336    1.029   .     S
H331   C820    1.083   .     S
N335   N336    1.288   .     D
N335   Zn348   2.016   .     S
N336   Zn347   2.016   .     S
O337   Zn347   1.951   .     S
O337   C175    1.274   1_655 S
O339   Zn348   1.979   .     S
O340   Zn347   1.951   .     S
O340   C178    1.288   1_655 S
O341   Zn348   1.906   .     S
O342   Zn347   1.979   .     S
O343   Zn348   1.951   .     S
O344   Zn347   1.906   .     S
O345   Zn348   1.951   .     S
O346   C184    1.383   1_655 S
C349   O397    1.288   .     A
C349   C351    1.407   .     S
C349   O511    1.274   1_455 S
C350   C352    1.458   .     S
C350   C366    1.407   .     A
C350   C358    1.414   .     A
C351   C121    1.348   1_465 S
C351   O48     1.390   1_565 S
C352   O399    1.300   .     A
C352   O514    1.288   1_455 S
C353   C354    1.402   .     S
C354   O400    1.291   .     A
C354   O459    1.271   .     S
C355   C357    1.443   .     S
C355   O402    1.296   .     A
C355   O461    1.288   .     S
C356   C372    1.394   .     A
C356   C890    1.404   1_554 S
C356   H911    1.083   1_554 S
C357   C372    1.400   .     A
C357   C371    1.382   .     A
C358   C881    1.393   .     S
C358   O520    1.383   1_455 S
C359   H392    1.083   .     S
C359   C361    1.388   .     A
C359   C880    1.393   1_554 S
C360   C366    1.404   .     A
C360   C883    1.417   .     S
C360   C889    1.409   .     S
C361   H391    1.079   .     S
C361   C882    1.417   1_554 S
C362   O404    1.413   .     S
C362   C363    1.520   .     S
C362   H433    1.115   .     S
C362   H434    1.114   .     S
C363   H379    1.110   .     S
C363   H377    1.111   .     S
C363   H30     1.111   1_565 S
C364   H381    1.114   .     S
C364   C17     1.521   1_565 S
C364   H32     1.115   1_565 S
C364   O48     1.414   1_565 S
C365   H385    1.110   .     S
C365   H383    1.111   .     S
C365   H382    1.111   .     S
C366   C370    1.415   .     A
C367   C371    1.386   .     A
C367   C882    1.409   1_554 S
C367   C890    1.420   1_554 S
C368   C369    1.392   .     A
C368   C878    1.404   .     S
C368   C889    1.420   .     S
C369   C370    1.388   .     A
C369   H388    1.083   .     S
C370   H374    1.082   .     S
C371   H390    1.080   .     S
C372   H431    1.083   .     S
H373   C488    1.083   1_455 S
H375   C478    1.115   1_455 S
H376   C478    1.114   1_455 S
H384   C5      1.087   1_565 S
H386   N393    1.029   .     S
H387   N394    1.029   .     S
H389   C878    1.083   .     S
N393   N394    1.288   .     D
N393   Zn406   2.016   .     S
N394   Zn405   2.016   .     S
O395   Zn405   1.951   .     S
O395   C407    1.274   .     S
O397   Zn406   1.979   .     S
O398   Zn405   1.951   .     S
O398   C410    1.288   .     S
O399   Zn406   1.906   .     S
O400   Zn405   1.979   .     S
O401   Zn406   1.951   .     S
O401   C470    1.271   1_455 S
O402   Zn405   1.906   .     S
O403   Zn406   1.951   .     S
O403   C471    1.288   1_455 S
O404   C416    1.383   .     S
C407   O455    1.288   .     A
C407   C409    1.407   .     S
C408   C410    1.458   .     S
C408   C424    1.407   .     A
C408   C416    1.414   .     A
C409   C5      1.348   1_565 S
C409   O106    1.390   1_565 S
C410   O457    1.300   .     A
C411   C412    1.402   .     S
C412   O458    1.291   .     A
C412   O517    1.271   .     S
C413   C415    1.443   .     S
C413   O460    1.296   .     A
C413   O519    1.288   .     S
C414   C430    1.394   .     A
C414   C948    1.404   1_554 S
C414   H969    1.083   1_554 S
C415   C430    1.400   .     A
C415   C429    1.382   .     A
C416   C939    1.393   .     S
C417   H450    1.083   .     S
C417   C419    1.388   .     A
C417   C938    1.393   1_554 S
C418   C424    1.404   .     A
C418   C941    1.417   .     S
C418   C947    1.409   .     S
C419   H449    1.079   .     S
C419   C940    1.417   1_554 S
C420   O462    1.413   .     S
C420   C421    1.520   .     S
C420   H491    1.115   .     S
C420   H492    1.114   .     S
C421   H437    1.110   .     S
C421   H435    1.111   .     S
C421   H88     1.111   1_565 S
C422   H439    1.114   .     S
C422   C75     1.521   1_565 S
C422   H90     1.115   1_565 S
C422   O106    1.414   1_565 S
C423   H443    1.110   .     S
C423   H441    1.111   .     S
C423   H440    1.111   .     S
C424   C428    1.415   .     A
C425   C429    1.386   .     A
C425   C940    1.409   1_554 S
C425   C948    1.420   1_554 S
C426   C427    1.392   .     A
C426   C936    1.404   .     S
C426   C947    1.420   .     S
C427   C428    1.388   .     A
C427   H446    1.083   .     S
C428   H432    1.082   .     S
C429   H448    1.080   .     S
C430   H489    1.083   .     S
H442   C63     1.087   1_565 S
H444   N451    1.029   .     S
H445   N452    1.029   .     S
H447   C936    1.083   .     S
N451   N452    1.288   .     D
N451   Zn464   2.016   .     S
N452   Zn463   2.016   .     S
O453   Zn463   1.951   .     S
O453   C465    1.274   .     S
O455   Zn464   1.979   .     S
O456   Zn463   1.951   .     S
O456   C468    1.288   .     S
O457   Zn464   1.906   .     S
O458   Zn463   1.979   .     S
O459   Zn464   1.951   .     S
O460   Zn463   1.906   .     S
O461   Zn464   1.951   .     S
O462   C474    1.383   .     S
C465   O513    1.288   .     A
C465   C467    1.407   .     S
C466   C468    1.458   .     S
C466   C482    1.407   .     A
C466   C474    1.414   .     A
C467   C63     1.348   1_565 S
C467   O164    1.390   1_565 S
C468   O515    1.300   .     A
C469   C470    1.402   .     S
C469   C177    1.348   1_655 S
C470   O516    1.291   .     A
C470   O401    1.271   1_655 S
C471   C473    1.443   .     S
C471   O518    1.296   .     A
C471   O403    1.288   1_655 S
C472   C488    1.394   .     A
C472   C1006   1.404   1_554 S
C472   H1027   1.083   1_554 S
C473   C488    1.400   .     A
C473   C487    1.382   .     A
C474   C997    1.393   .     S
C475   H508    1.083   .     S
C475   C477    1.388   .     A
C475   C996    1.393   1_554 S
C476   C482    1.404   .     A
C476   C999    1.417   .     S
C476   C1005   1.409   .     S
C477   H507    1.079   .     S
C477   C998    1.417   1_554 S
C478   O520    1.413   .     S
C478   C479    1.520   .     S
C478   H375    1.115   1_655 S
C478   H376    1.114   1_655 S
C479   H495    1.110   .     S
C479   H493    1.111   .     S
C479   H146    1.111   1_565 S
C480   H497    1.114   .     S
C480   C133    1.521   1_565 S
C480   H148    1.115   1_565 S
C480   O164    1.414   1_565 S
C481   H501    1.110   .     S
C481   H499    1.111   .     S
C481   H498    1.111   .     S
C482   C486    1.415   .     A
C483   C487    1.386   .     A
C483   C998    1.409   1_554 S
C483   C1006   1.420   1_554 S
C484   C485    1.392   .     A
C484   C994    1.404   .     S
C484   C1005   1.420   .     S
C485   C486    1.388   .     A
C485   H504    1.083   .     S
C486   H490    1.082   .     S
C487   H506    1.080   .     S
C488   H373    1.083   1_655 S
H500   C121    1.087   1_565 S
H502   N509    1.029   .     S
H503   N510    1.029   .     S
H505   C994    1.083   .     S
N509   N510    1.288   .     D
N509   Zn522   2.016   .     S
N510   Zn521   2.016   .     S
O511   Zn521   1.951   .     S
O511   C349    1.274   1_655 S
O513   Zn522   1.979   .     S
O514   Zn521   1.951   .     S
O514   C352    1.288   1_655 S
O515   Zn522   1.906   .     S
O516   Zn521   1.979   .     S
O517   Zn522   1.951   .     S
O518   Zn521   1.906   .     S
O519   Zn522   1.951   .     S
O520   C358    1.383   1_655 S
C523   O571    1.288   .     A
C523   C525    1.407   .     S
C523   O685    1.274   1_455 S
C524   C526    1.458   .     S
C524   C540    1.407   .     A
C524   C532    1.414   .     A
C525   C817    1.348   1_455 S
C525   O744    1.390   .     S
C526   O573    1.300   .     A
C526   O688    1.288   1_455 S
C527   C528    1.402   .     S
C527   C931    1.348   1_545 S
C527   H906    1.087   1_545 S
C528   O574    1.291   .     A
C528   O633    1.271   .     S
C529   C531    1.443   .     S
C529   O576    1.296   .     A
C529   O635    1.288   .     S
C530   C546    1.394   .     A
C531   C546    1.400   .     A
C531   C545    1.382   .     A
C532   C11     1.393   1_556 S
C532   O694    1.383   1_455 S
C533   H566    1.083   .     S
C533   C535    1.388   .     A
C534   C540    1.404   .     A
C534   C13     1.417   1_556 S
C534   C19     1.409   1_556 S
C535   H565    1.079   .     S
C536   O578    1.413   .     S
C536   C537    1.520   .     S
C536   H607    1.115   .     S
C536   H608    1.114   .     S
C537   H553    1.110   .     S
C537   H551    1.111   .     S
C537   H726    1.111   .     S
C538   H555    1.114   .     S
C538   C713    1.521   .     S
C538   H728    1.115   .     S
C538   O744    1.414   .     S
C539   H559    1.110   .     S
C539   H557    1.111   .     S
C539   H556    1.111   .     S
C539   C886    1.521   1_545 S
C540   C544    1.415   .     A
C541   C545    1.386   .     A
C542   C543    1.392   .     A
C542   C8      1.404   1_556 S
C542   C19     1.420   1_556 S
C543   C544    1.388   .     A
C543   H562    1.083   .     S
C544   H548    1.082   .     S
C545   H564    1.080   .     S
C546   H605    1.083   .     S
H547   C662    1.083   1_455 S
H549   C652    1.115   1_455 S
H550   C652    1.114   1_455 S
H552   C885    1.111   1_545 S
H554   C886    1.115   1_545 S
H558   C701    1.087   .     S
H560   N567    1.029   .     S
H561   N568    1.029   .     S
H563   C8      1.083   1_556 S
N567   N568    1.288   .     D
N567   Zn580   2.016   .     S
N568   Zn579   2.016   .     S
O569   Zn579   1.951   .     S
O569   C581    1.274   .     S
O570   C886    1.414   1_545 S
O570   C873    1.390   1_545 S
O571   Zn580   1.979   .     S
O572   Zn579   1.951   .     S
O572   C584    1.288   .     S
O573   Zn580   1.906   .     S
O574   Zn579   1.979   .     S
O575   Zn580   1.951   .     S
O575   C644    1.271   1_455 S
O576   Zn579   1.906   .     S
O577   Zn580   1.951   .     S
O577   C645    1.288   1_455 S
O578   C590    1.383   .     S
C581   O629    1.288   .     A
C581   C583    1.407   .     S
C582   C584    1.458   .     S
C582   C598    1.407   .     A
C582   C590    1.414   .     A
C583   C701    1.348   .     S
C583   O802    1.390   .     S
C584   O631    1.300   .     A
C585   C586    1.402   .     S
C585   C989    1.348   1_545 S
C585   H964    1.087   1_545 S
C586   O632    1.291   .     A
C586   O691    1.271   .     S
C587   C589    1.443   .     S
C587   O634    1.296   .     A
C587   O693    1.288   .     S
C588   C604    1.394   .     A
C589   C604    1.400   .     A
C589   C603    1.382   .     A
C590   C69     1.393   1_556 S
C591   H624    1.083   .     S
C591   C593    1.388   .     A
C592   C598    1.404   .     A
C592   C71     1.417   1_556 S
C592   C77     1.409   1_556 S
C593   H623    1.079   .     S
C594   O636    1.413   .     S
C594   C595    1.520   .     S
C594   H665    1.115   .     S
C594   H666    1.114   .     S
C595   H611    1.110   .     S
C595   H609    1.111   .     S
C595   H784    1.111   .     S
C596   H613    1.114   .     S
C596   C771    1.521   .     S
C596   H786    1.115   .     S
C596   O802    1.414   .     S
C597   H617    1.110   .     S
C597   H615    1.111   .     S
C597   H614    1.111   .     S
C597   C944    1.521   1_545 S
C598   C602    1.415   .     A
C599   C603    1.386   .     A
C600   C601    1.392   .     A
C600   C66     1.404   1_556 S
C600   C77     1.420   1_556 S
C601   C602    1.388   .     A
C601   H620    1.083   .     S
C602   H606    1.082   .     S
C603   H622    1.080   .     S
C604   H663    1.083   .     S
H610   C943    1.111   1_545 S
H612   C944    1.115   1_545 S
H616   C759    1.087   .     S
H618   N625    1.029   .     S
H619   N626    1.029   .     S
H621   C66     1.083   1_556 S
N625   N626    1.288   .     D
N625   Zn638   2.016   .     S
N626   Zn637   2.016   .     S
O627   Zn637   1.951   .     S
O627   C639    1.274   .     S
O628   C944    1.414   1_545 S
O628   C931    1.390   1_545 S
O629   Zn638   1.979   .     S
O630   Zn637   1.951   .     S
O630   C642    1.288   .     S
O631   Zn638   1.906   .     S
O632   Zn637   1.979   .     S
O633   Zn638   1.951   .     S
O634   Zn637   1.906   .     S
O635   Zn638   1.951   .     S
O636   C648    1.383   .     S
C639   O687    1.288   .     A
C639   C641    1.407   .     S
C640   C642    1.458   .     S
C640   C656    1.407   .     A
C640   C648    1.414   .     A
C641   C759    1.348   .     S
C641   O860    1.390   .     S
C642   O689    1.300   .     A
C643   C644    1.402   .     S
C643   C873    1.348   1_645 S
C643   H1022   1.087   1_545 S
C644   O690    1.291   .     A
C644   O575    1.271   1_655 S
C645   C647    1.443   .     S
C645   O692    1.296   .     A
C645   O577    1.288   1_655 S
C646   C662    1.394   .     A
C647   C662    1.400   .     A
C647   C661    1.382   .     A
C648   C127    1.393   1_556 S
C649   H682    1.083   .     S
C649   C651    1.388   .     A
C650   C656    1.404   .     A
C650   C129    1.417   1_556 S
C650   C135    1.409   1_556 S
C651   H681    1.079   .     S
C652   O694    1.413   .     S
C652   C653    1.520   .     S
C652   H549    1.115   1_655 S
C652   H550    1.114   1_655 S
C653   H669    1.110   .     S
C653   H667    1.111   .     S
C653   H842    1.111   .     S
C654   H671    1.114   .     S
C654   C829    1.521   .     S
C654   H844    1.115   .     S
C654   O860    1.414   .     S
C655   H675    1.110   .     S
C655   H673    1.111   .     S
C655   H672    1.111   .     S
C655   C1002   1.521   1_545 S
C656   C660    1.415   .     A
C657   C661    1.386   .     A
C658   C659    1.392   .     A
C658   C124    1.404   1_556 S
C658   C135    1.420   1_556 S
C659   C660    1.388   .     A
C659   H678    1.083   .     S
C660   H664    1.082   .     S
C661   H680    1.080   .     S
C662   H547    1.083   1_655 S
H668   C1001   1.111   1_545 S
H670   C1002   1.115   1_545 S
H674   C817    1.087   .     S
H676   N683    1.029   .     S
H677   N684    1.029   .     S
H679   C124    1.083   1_556 S
N683   N684    1.288   .     D
N683   Zn696   2.016   .     S
N684   Zn695   2.016   .     S
O685   Zn695   1.951   .     S
O685   C523    1.274   1_655 S
O686   C1002   1.414   1_545 S
O686   C989    1.390   1_545 S
O687   Zn696   1.979   .     S
O688   Zn695   1.951   .     S
O688   C526    1.288   1_655 S
O689   Zn696   1.906   .     S
O690   Zn695   1.979   .     S
O691   Zn696   1.951   .     S
O692   Zn695   1.906   .     S
O693   Zn696   1.951   .     S
O694   C532    1.383   1_655 S
C697   O745    1.288   .     A
C697   C699    1.407   .     S
C697   O859    1.274   1_455 S
C698   C700    1.458   .     S
C698   C714    1.407   .     A
C698   C706    1.414   .     A
C699   C991    1.348   1_455 S
C699   O918    1.390   .     S
C700   O747    1.300   .     A
C700   O862    1.288   1_455 S
C701   C702    1.402   .     S
C702   O748    1.291   .     A
C702   O807    1.271   .     S
C703   C705    1.443   .     S
C703   O750    1.296   .     A
C703   O809    1.288   .     S
C704   C720    1.394   .     A
C705   C720    1.400   .     A
C705   C719    1.382   .     A
C706   C185    1.393   1_556 S
C706   O868    1.383   1_455 S
C707   H740    1.083   .     S
C707   C709    1.388   .     A
C708   C714    1.404   .     A
C708   C187    1.417   1_556 S
C708   C193    1.409   1_556 S
C709   H739    1.079   .     S
C710   O752    1.413   .     S
C710   C711    1.520   .     S
C710   H781    1.115   .     S
C710   H782    1.114   .     S
C711   H727    1.110   .     S
C711   H725    1.111   .     S
C711   H900    1.111   .     S
C712   H729    1.114   .     S
C712   C887    1.521   .     S
C712   H902    1.115   .     S
C712   O918    1.414   .     S
C713   H733    1.110   .     S
C713   H731    1.111   .     S
C713   H730    1.111   .     S
C714   C718    1.415   .     A
C715   C719    1.386   .     A
C716   C717    1.392   .     A
C716   C182    1.404   1_556 S
C716   C193    1.420   1_556 S
C717   C718    1.388   .     A
C717   H736    1.083   .     S
C718   H722    1.082   .     S
C719   H738    1.080   .     S
C720   H779    1.083   .     S
H721   C836    1.083   1_455 S
H723   C826    1.115   1_455 S
H724   C826    1.114   1_455 S
H732   C875    1.087   .     S
H734   N741    1.029   .     S
H735   N742    1.029   .     S
H737   C182    1.083   1_556 S
N741   N742    1.288   .     D
N741   Zn754   2.016   .     S
N742   Zn753   2.016   .     S
O743   Zn753   1.951   .     S
O743   C755    1.274   .     S
O745   Zn754   1.979   .     S
O746   Zn753   1.951   .     S
O746   C758    1.288   .     S
O747   Zn754   1.906   .     S
O748   Zn753   1.979   .     S
O749   Zn754   1.951   .     S
O749   C818    1.271   1_455 S
O750   Zn753   1.906   .     S
O751   Zn754   1.951   .     S
O751   C819    1.288   1_455 S
O752   C764    1.383   .     S
C755   O803    1.288   .     A
C755   C757    1.407   .     S
C756   C758    1.458   .     S
C756   C772    1.407   .     A
C756   C764    1.414   .     A
C757   C875    1.348   .     S
C757   O976    1.390   .     S
C758   O805    1.300   .     A
C759   C760    1.402   .     S
C760   O806    1.291   .     A
C760   O865    1.271   .     S
C761   C763    1.443   .     S
C761   O808    1.296   .     A
C761   O867    1.288   .     S
C762   C778    1.394   .     A
C763   C778    1.400   .     A
C763   C777    1.382   .     A
C764   C243    1.393   1_556 S
C765   H798    1.083   .     S
C765   C767    1.388   .     A
C766   C772    1.404   .     A
C766   C245    1.417   1_556 S
C766   C251    1.409   1_556 S
C767   H797    1.079   .     S
C768   O810    1.413   .     S
C768   C769    1.520   .     S
C768   H839    1.115   .     S
C768   H840    1.114   .     S
C769   H785    1.110   .     S
C769   H783    1.111   .     S
C769   H958    1.111   .     S
C770   H787    1.114   .     S
C770   C945    1.521   .     S
C770   H960    1.115   .     S
C770   O976    1.414   .     S
C771   H791    1.110   .     S
C771   H789    1.111   .     S
C771   H788    1.111   .     S
C772   C776    1.415   .     A
C773   C777    1.386   .     A
C774   C775    1.392   .     A
C774   C240    1.404   1_556 S
C774   C251    1.420   1_556 S
C775   C776    1.388   .     A
C775   H794    1.083   .     S
C776   H780    1.082   .     S
C777   H796    1.080   .     S
C778   H837    1.083   .     S
H790   C933    1.087   .     S
H792   N799    1.029   .     S
H793   N800    1.029   .     S
H795   C240    1.083   1_556 S
N799   N800    1.288   .     D
N799   Zn812   2.016   .     S
N800   Zn811   2.016   .     S
O801   Zn811   1.951   .     S
O801   C813    1.274   .     S
O803   Zn812   1.979   .     S
O804   Zn811   1.951   .     S
O804   C816    1.288   .     S
O805   Zn812   1.906   .     S
O806   Zn811   1.979   .     S
O807   Zn812   1.951   .     S
O808   Zn811   1.906   .     S
O809   Zn812   1.951   .     S
O810   C822    1.383   .     S
C813   O861    1.288   .     A
C813   C815    1.407   .     S
C814   C816    1.458   .     S
C814   C830    1.407   .     A
C814   C822    1.414   .     A
C815   C933    1.348   .     S
C815   O1034   1.390   .     S
C816   O863    1.300   .     A
C817   C818    1.402   .     S
C817   C525    1.348   1_655 S
C818   O864    1.291   .     A
C818   O749    1.271   1_655 S
C819   C821    1.443   .     S
C819   O866    1.296   .     A
C819   O751    1.288   1_655 S
C820   C836    1.394   .     A
C821   C836    1.400   .     A
C821   C835    1.382   .     A
C822   C301    1.393   1_556 S
C823   H856    1.083   .     S
C823   C825    1.388   .     A
C824   C830    1.404   .     A
C824   C303    1.417   1_556 S
C824   C309    1.409   1_556 S
C825   H855    1.079   .     S
C826   O868    1.413   .     S
C826   C827    1.520   .     S
C826   H723    1.115   1_655 S
C826   H724    1.114   1_655 S
C827   H843    1.110   .     S
C827   H841    1.111   .     S
C827   H1016   1.111   .     S
C828   H845    1.114   .     S
C828   C1003   1.521   .     S
C828   H1018   1.115   .     S
C828   O1034   1.414   .     S
C829   H849    1.110   .     S
C829   H847    1.111   .     S
C829   H846    1.111   .     S
C830   C834    1.415   .     A
C831   C835    1.386   .     A
C832   C833    1.392   .     A
C832   C298    1.404   1_556 S
C832   C309    1.420   1_556 S
C833   C834    1.388   .     A
C833   H852    1.083   .     S
C834   H838    1.082   .     S
C835   H854    1.080   .     S
C836   H721    1.083   1_655 S
H848   C991    1.087   .     S
H850   N857    1.029   .     S
H851   N858    1.029   .     S
H853   C298    1.083   1_556 S
N857   N858    1.288   .     D
N857   Zn870   2.016   .     S
N858   Zn869   2.016   .     S
O859   Zn869   1.951   .     S
O859   C697    1.274   1_655 S
O861   Zn870   1.979   .     S
O862   Zn869   1.951   .     S
O862   C700    1.288   1_655 S
O863   Zn870   1.906   .     S
O864   Zn869   1.979   .     S
O865   Zn870   1.951   .     S
O866   Zn869   1.906   .     S
O867   Zn870   1.951   .     S
O868   C706    1.383   1_655 S
C871   O919    1.288   .     A
C871   C873    1.407   .     S
C871   O1033   1.274   1_455 S
C872   C874    1.458   .     S
C872   C888    1.407   .     A
C872   C880    1.414   .     A
C873   C643    1.348   1_465 S
C873   O570    1.390   1_565 S
C874   O921    1.300   .     A
C874   O1036   1.288   1_455 S
C875   C876    1.402   .     S
C876   O922    1.291   .     A
C876   O981    1.271   .     S
C877   C879    1.443   .     S
C877   O924    1.296   .     A
C877   O983    1.288   .     S
C878   C894    1.394   .     A
C879   C894    1.400   .     A
C879   C893    1.382   .     A
C880   C359    1.393   1_556 S
C880   O1042   1.383   1_455 S
C881   H914    1.083   .     S
C881   C883    1.388   .     A
C882   C888    1.404   .     A
C882   C361    1.417   1_556 S
C882   C367    1.409   1_556 S
C883   H913    1.079   .     S
C884   O926    1.413   .     S
C884   C885    1.520   .     S
C884   H955    1.115   .     S
C884   H956    1.114   .     S
C885   H901    1.110   .     S
C885   H899    1.111   .     S
C885   H552    1.111   1_565 S
C886   H903    1.114   .     S
C886   C539    1.521   1_565 S
C886   H554    1.115   1_565 S
C886   O570    1.414   1_565 S
C887   H907    1.110   .     S
C887   H905    1.111   .     S
C887   H904    1.111   .     S
C888   C892    1.415   .     A
C889   C893    1.386   .     A
C890   C891    1.392   .     A
C890   C356    1.404   1_556 S
C890   C367    1.420   1_556 S
C891   C892    1.388   .     A
C891   H910    1.083   .     S
C892   H896    1.082   .     S
C893   H912    1.080   .     S
C894   H953    1.083   .     S
H895   C1010   1.083   1_455 S
H897   C1000   1.115   1_455 S
H898   C1000   1.114   1_455 S
H906   C527    1.087   1_565 S
H908   N915    1.029   .     S
H909   N916    1.029   .     S
H911   C356    1.083   1_556 S
N915   N916    1.288   .     D
N915   Zn928   2.016   .     S
N916   Zn927   2.016   .     S
O917   Zn927   1.951   .     S
O917   C929    1.274   .     S
O919   Zn928   1.979   .     S
O920   Zn927   1.951   .     S
O920   C932    1.288   .     S
O921   Zn928   1.906   .     S
O922   Zn927   1.979   .     S
O923   Zn928   1.951   .     S
O923   C992    1.271   1_455 S
O924   Zn927   1.906   .     S
O925   Zn928   1.951   .     S
O925   C993    1.288   1_455 S
O926   C938    1.383   .     S
C929   O977    1.288   .     A
C929   C931    1.407   .     S
C930   C932    1.458   .     S
C930   C946    1.407   .     A
C930   C938    1.414   .     A
C931   C527    1.348   1_565 S
C931   O628    1.390   1_565 S
C932   O979    1.300   .     A
C933   C934    1.402   .     S
C934   O980    1.291   .     A
C934   O1039   1.271   .     S
C935   C937    1.443   .     S
C935   O982    1.296   .     A
C935   O1041   1.288   .     S
C936   C952    1.394   .     A
C937   C952    1.400   .     A
C937   C951    1.382   .     A
C938   C417    1.393   1_556 S
C939   H972    1.083   .     S
C939   C941    1.388   .     A
C940   C946    1.404   .     A
C940   C419    1.417   1_556 S
C940   C425    1.409   1_556 S
C941   H971    1.079   .     S
C942   O984    1.413   .     S
C942   C943    1.520   .     S
C942   H1013   1.115   .     S
C942   H1014   1.114   .     S
C943   H959    1.110   .     S
C943   H957    1.111   .     S
C943   H610    1.111   1_565 S
C944   H961    1.114   .     S
C944   C597    1.521   1_565 S
C944   H612    1.115   1_565 S
C944   O628    1.414   1_565 S
C945   H965    1.110   .     S
C945   H963    1.111   .     S
C945   H962    1.111   .     S
C946   C950    1.415   .     A
C947   C951    1.386   .     A
C948   C949    1.392   .     A
C948   C414    1.404   1_556 S
C948   C425    1.420   1_556 S
C949   C950    1.388   .     A
C949   H968    1.083   .     S
C950   H954    1.082   .     S
C951   H970    1.080   .     S
C952   H1011   1.083   .     S
H964   C585    1.087   1_565 S
H966   N973    1.029   .     S
H967   N974    1.029   .     S
H969   C414    1.083   1_556 S
N973   N974    1.288   .     D
N973   Zn986   2.016   .     S
N974   Zn985   2.016   .     S
O975   Zn985   1.951   .     S
O975   C987    1.274   .     S
O977   Zn986   1.979   .     S
O978   Zn985   1.951   .     S
O978   C990    1.288   .     S
O979   Zn986   1.906   .     S
O980   Zn985   1.979   .     S
O981   Zn986   1.951   .     S
O982   Zn985   1.906   .     S
O983   Zn986   1.951   .     S
O984   C996    1.383   .     S
C987   O1035   1.288   .     A
C987   C989    1.407   .     S
C988   C990    1.458   .     S
C988   C1004   1.407   .     A
C988   C996    1.414   .     A
C989   C585    1.348   1_565 S
C989   O686    1.390   1_565 S
C990   O1037   1.300   .     A
C991   C992    1.402   .     S
C991   C699    1.348   1_655 S
C992   O1038   1.291   .     A
C992   O923    1.271   1_655 S
C993   C995    1.443   .     S
C993   O1040   1.296   .     A
C993   O925    1.288   1_655 S
C994   C1010   1.394   .     A
C995   C1010   1.400   .     A
C995   C1009   1.382   .     A
C996   C475    1.393   1_556 S
C997   H1030   1.083   .     S
C997   C999    1.388   .     A
C998   C1004   1.404   .     A
C998   C477    1.417   1_556 S
C998   C483    1.409   1_556 S
C999   H1029   1.079   .     S
C1000  O1042   1.413   .     S
C1000  C1001   1.520   .     S
C1000  H897    1.115   1_655 S
C1000  H898    1.114   1_655 S
C1001  H1017   1.110   .     S
C1001  H1015   1.111   .     S
C1001  H668    1.111   1_565 S
C1002  H1019   1.114   .     S
C1002  C655    1.521   1_565 S
C1002  H670    1.115   1_565 S
C1002  O686    1.414   1_565 S
C1003  H1023   1.110   .     S
C1003  H1021   1.111   .     S
C1003  H1020   1.111   .     S
C1004  C1008   1.415   .     A
C1005  C1009   1.386   .     A
C1006  C1007   1.392   .     A
C1006  C472    1.404   1_556 S
C1006  C483    1.420   1_556 S
C1007  C1008   1.388   .     A
C1007  H1026   1.083   .     S
C1008  H1012   1.082   .     S
C1009  H1028   1.080   .     S
C1010  H895    1.083   1_655 S
H1022  C643    1.087   1_565 S
H1024  N1031   1.029   .     S
H1025  N1032   1.029   .     S
H1027  C472    1.083   1_556 S
N1031  N1032   1.288   .     D
N1031  Zn1044  2.016   .     S
N1032  Zn1043  2.016   .     S
O1033  Zn1043  1.951   .     S
O1033  C871    1.274   1_655 S
O1035  Zn1044  1.979   .     S
O1036  Zn1043  1.951   .     S
O1036  C874    1.288   1_655 S
O1037  Zn1044  1.906   .     S
O1038  Zn1043  1.979   .     S
O1039  Zn1044  1.951   .     S
O1040  Zn1043  1.906   .     S
O1041  Zn1044  1.951   .     S
O1042  C880    1.383   1_655 S
