data_str_m3_o1_o10_pcu_sym.95
_audit_creation_date              2020-01-03
_audit_creation_method            'Materials Studio'
_symmetry_space_group_name_H-M    'P1'
_symmetry_Int_Tables_number       1
_symmetry_cell_setting            triclinic
loop_
_symmetry_equiv_pos_as_xyz
  x,y,z
_cell_length_a                    25.9417
_cell_length_b                    31.8072
_cell_length_c                    29.7363
_cell_angle_alpha                 89.8912
_cell_angle_beta                  98.3992
_cell_angle_gamma                 91.3229
loop_
_atom_site_label
_atom_site_type_symbol
_atom_site_fract_x
_atom_site_fract_y
_atom_site_fract_z
_atom_site_U_iso_or_equiv
_atom_site_adp_type
_atom_site_occupancy
C1     C     0.16584   0.08689   0.16658   0.00000  Uiso   1.00
C2     C     0.16749   0.24645   0.16676   0.00000  Uiso   1.00
C3     C     0.06733   0.16627   0.15497   0.00000  Uiso   1.00
C4     C     0.26601   0.16706   0.17837   0.00000  Uiso   1.00
C5     C     0.01276   0.16048   0.14967   0.00000  Uiso   1.00
C6     C     0.32057   0.17286   0.18367   0.00000  Uiso   1.00
C7     C     0.21429   0.02313   0.17099   0.00000  Uiso   1.00
C8     C     0.11904   0.31021   0.16234   0.00000  Uiso   1.00
C9     C     0.21484   0.31279   0.17109   0.00000  Uiso   1.00
C10    C     0.11849   0.02054   0.16225   0.00000  Uiso   1.00
C11    C     0.16718   0.29059   0.16668   0.00000  Uiso   1.00
C12    C     0.16615   0.04274   0.16666   0.00000  Uiso   1.00
C13    C     0.19934   0.19323   0.02811   0.00000  Uiso   1.00
C14    C     0.13400   0.14011   0.30522   0.00000  Uiso   1.00
C15    C     0.19915   0.19335   0.31342   0.00000  Uiso   1.00
C16    C     0.13419   0.13998   0.01991   0.00000  Uiso   1.00
N17    N     0.16665   0.16666   0.28573   0.00000  Uiso   1.00
N18    N     0.16668   0.16668   0.04760   0.00000  Uiso   1.00
O19    O     0.16666   0.10558   0.20487   0.00000  Uiso   1.00
O20    O     0.16667   0.22775   0.12846   0.00000  Uiso   1.00
O21    O     0.16666   0.10559   0.12843   0.00000  Uiso   1.00
O22    O     0.16667   0.22774   0.20490   0.00000  Uiso   1.00
O23    O     0.09058   0.16666   0.19595   0.00000  Uiso   1.00
O24    O     0.24275   0.16667   0.13739   0.00000  Uiso   1.00
O25    O     0.09058   0.16667   0.11950   0.00000  Uiso   1.00
O26    O     0.24275   0.16666   0.21383   0.00000  Uiso   1.00
Zn27   Zn    0.16667   0.16666   0.21771   0.00000  Uiso   1.00
Zn28   Zn    0.16667   0.16667   0.11563   0.00000  Uiso   1.00
N29    N     0.32105   0.13722   0.11060   0.00000  Uiso   1.00
H30    H     0.32813   0.15304   0.08118   0.00000  Uiso   1.00
H31    H     0.00432   0.10759   0.11092   0.00000  Uiso   1.00
N32    N     0.01228   0.19611   0.22273   0.00000  Uiso   1.00
H33    H     0.00520   0.18029   0.25216   0.00000  Uiso   1.00
H34    H     0.32901   0.22574   0.22241   0.00000  Uiso   1.00
N35    N     0.26176   0.04795   0.17515   0.00000  Uiso   1.00
H36    H     0.28167   0.04059   0.14819   0.00000  Uiso   1.00
H37    H     0.28497   0.04033   0.20569   0.00000  Uiso   1.00
N38    N     0.07158   0.28539   0.15818   0.00000  Uiso   1.00
H39    H     0.05167   0.29274   0.18515   0.00000  Uiso   1.00
H40    H     0.04836   0.29300   0.12765   0.00000  Uiso   1.00
N41    N     0.26296   0.29066   0.17586   0.00000  Uiso   1.00
H42    H     0.28526   0.29936   0.20672   0.00000  Uiso   1.00
H43    H     0.28344   0.29982   0.14958   0.00000  Uiso   1.00
N44    N     0.07037   0.04267   0.15747   0.00000  Uiso   1.00
H45    H     0.04808   0.03397   0.12661   0.00000  Uiso   1.00
H46    H     0.04989   0.03351   0.18375   0.00000  Uiso   1.00
C47    C     0.23460   0.22098   0.05675   0.00000  Uiso   1.00
N48    N     0.26320   0.24329   0.07939   0.00000  Uiso   1.00
C49    C     0.09873   0.11235   0.27658   0.00000  Uiso   1.00
N50    N     0.07014   0.09005   0.25394   0.00000  Uiso   1.00
C51    C     0.23289   0.22232   0.29352   0.00000  Uiso   1.00
N52    N     0.26001   0.24589   0.27802   0.00000  Uiso   1.00
C53    C     0.10044   0.11101   0.03982   0.00000  Uiso   1.00
N54    N     0.07333   0.08745   0.05531   0.00000  Uiso   1.00
C55    C     0.49917   0.08689   0.16658   0.00000  Uiso   1.00
C56    C     0.50083   0.24645   0.16676   0.00000  Uiso   1.00
C57    C     0.40066   0.16627   0.15497   0.00000  Uiso   1.00
C58    C     0.59934   0.16706   0.17837   0.00000  Uiso   1.00
C59    C     0.34609   0.16048   0.14967   0.00000  Uiso   1.00
C60    C     0.65391   0.17286   0.18367   0.00000  Uiso   1.00
C61    C     0.54762   0.02313   0.17099   0.00000  Uiso   1.00
C62    C     0.45238   0.31021   0.16234   0.00000  Uiso   1.00
C63    C     0.54817   0.31279   0.17109   0.00000  Uiso   1.00
C64    C     0.45183   0.02054   0.16225   0.00000  Uiso   1.00
C65    C     0.50051   0.29059   0.16668   0.00000  Uiso   1.00
C66    C     0.49949   0.04274   0.16666   0.00000  Uiso   1.00
C67    C     0.53267   0.19323   0.02811   0.00000  Uiso   1.00
C68    C     0.46733   0.14011   0.30522   0.00000  Uiso   1.00
C69    C     0.53248   0.19335   0.31342   0.00000  Uiso   1.00
C70    C     0.46752   0.13998   0.01991   0.00000  Uiso   1.00
N71    N     0.49999   0.16666   0.28573   0.00000  Uiso   1.00
N72    N     0.50001   0.16668   0.04760   0.00000  Uiso   1.00
O73    O     0.50000   0.10558   0.20487   0.00000  Uiso   1.00
O74    O     0.50000   0.22775   0.12846   0.00000  Uiso   1.00
O75    O     0.50000   0.10559   0.12843   0.00000  Uiso   1.00
O76    O     0.50000   0.22774   0.20490   0.00000  Uiso   1.00
O77    O     0.42392   0.16666   0.19595   0.00000  Uiso   1.00
O78    O     0.57608   0.16667   0.13739   0.00000  Uiso   1.00
O79    O     0.42392   0.16667   0.11950   0.00000  Uiso   1.00
O80    O     0.57608   0.16666   0.21383   0.00000  Uiso   1.00
Zn81   Zn    0.50000   0.16666   0.21771   0.00000  Uiso   1.00
Zn82   Zn    0.50000   0.16667   0.11563   0.00000  Uiso   1.00
N83    N     0.65439   0.13722   0.11060   0.00000  Uiso   1.00
H84    H     0.66146   0.15304   0.08118   0.00000  Uiso   1.00
H85    H     0.33766   0.10759   0.11092   0.00000  Uiso   1.00
N86    N     0.34561   0.19611   0.22273   0.00000  Uiso   1.00
H87    H     0.33854   0.18029   0.25216   0.00000  Uiso   1.00
H88    H     0.66234   0.22574   0.22241   0.00000  Uiso   1.00
N89    N     0.59509   0.04795   0.17515   0.00000  Uiso   1.00
H90    H     0.61501   0.04059   0.14819   0.00000  Uiso   1.00
H91    H     0.61830   0.04033   0.20569   0.00000  Uiso   1.00
N92    N     0.40491   0.28539   0.15818   0.00000  Uiso   1.00
H93    H     0.38500   0.29274   0.18515   0.00000  Uiso   1.00
H94    H     0.38169   0.29300   0.12765   0.00000  Uiso   1.00
N95    N     0.59630   0.29066   0.17586   0.00000  Uiso   1.00
H96    H     0.61859   0.29936   0.20672   0.00000  Uiso   1.00
H97    H     0.61677   0.29982   0.14958   0.00000  Uiso   1.00
N98    N     0.40370   0.04267   0.15747   0.00000  Uiso   1.00
H99    H     0.38141   0.03397   0.12661   0.00000  Uiso   1.00
H100   H     0.38323   0.03351   0.18375   0.00000  Uiso   1.00
C101   C     0.56794   0.22098   0.05675   0.00000  Uiso   1.00
N102   N     0.59653   0.24329   0.07939   0.00000  Uiso   1.00
C103   C     0.43206   0.11235   0.27658   0.00000  Uiso   1.00
N104   N     0.40347   0.09005   0.25394   0.00000  Uiso   1.00
C105   C     0.56623   0.22232   0.29352   0.00000  Uiso   1.00
N106   N     0.59334   0.24589   0.27802   0.00000  Uiso   1.00
C107   C     0.43377   0.11101   0.03982   0.00000  Uiso   1.00
N108   N     0.40666   0.08745   0.05531   0.00000  Uiso   1.00
C109   C     0.83251   0.08689   0.16658   0.00000  Uiso   1.00
C110   C     0.83416   0.24645   0.16676   0.00000  Uiso   1.00
C111   C     0.73399   0.16627   0.15497   0.00000  Uiso   1.00
C112   C     0.93267   0.16706   0.17837   0.00000  Uiso   1.00
C113   C     0.67943   0.16048   0.14967   0.00000  Uiso   1.00
C114   C     0.98724   0.17286   0.18367   0.00000  Uiso   1.00
C115   C     0.88096   0.02313   0.17099   0.00000  Uiso   1.00
C116   C     0.78571   0.31021   0.16234   0.00000  Uiso   1.00
C117   C     0.88151   0.31279   0.17109   0.00000  Uiso   1.00
C118   C     0.78516   0.02054   0.16225   0.00000  Uiso   1.00
C119   C     0.83385   0.29059   0.16668   0.00000  Uiso   1.00
C120   C     0.83282   0.04274   0.16666   0.00000  Uiso   1.00
C121   C     0.86600   0.19323   0.02811   0.00000  Uiso   1.00
C122   C     0.80066   0.14011   0.30522   0.00000  Uiso   1.00
C123   C     0.86581   0.19335   0.31342   0.00000  Uiso   1.00
C124   C     0.80085   0.13998   0.01991   0.00000  Uiso   1.00
N125   N     0.83332   0.16666   0.28573   0.00000  Uiso   1.00
N126   N     0.83335   0.16668   0.04760   0.00000  Uiso   1.00
O127   O     0.83333   0.10558   0.20487   0.00000  Uiso   1.00
O128   O     0.83334   0.22775   0.12846   0.00000  Uiso   1.00
O129   O     0.83333   0.10559   0.12843   0.00000  Uiso   1.00
O130   O     0.83334   0.22774   0.20490   0.00000  Uiso   1.00
O131   O     0.75725   0.16666   0.19595   0.00000  Uiso   1.00
O132   O     0.90942   0.16667   0.13739   0.00000  Uiso   1.00
O133   O     0.75725   0.16667   0.11950   0.00000  Uiso   1.00
O134   O     0.90942   0.16666   0.21383   0.00000  Uiso   1.00
Zn135  Zn    0.83333   0.16666   0.21771   0.00000  Uiso   1.00
Zn136  Zn    0.83333   0.16667   0.11563   0.00000  Uiso   1.00
N137   N     0.98772   0.13722   0.11060   0.00000  Uiso   1.00
H138   H     0.99480   0.15304   0.08118   0.00000  Uiso   1.00
H139   H     0.67099   0.10759   0.11092   0.00000  Uiso   1.00
N140   N     0.67895   0.19611   0.22273   0.00000  Uiso   1.00
H141   H     0.67187   0.18029   0.25216   0.00000  Uiso   1.00
H142   H     0.99568   0.22574   0.22241   0.00000  Uiso   1.00
N143   N     0.92842   0.04795   0.17515   0.00000  Uiso   1.00
H144   H     0.94834   0.04059   0.14819   0.00000  Uiso   1.00
H145   H     0.95164   0.04033   0.20569   0.00000  Uiso   1.00
N146   N     0.73824   0.28539   0.15818   0.00000  Uiso   1.00
H147   H     0.71833   0.29274   0.18515   0.00000  Uiso   1.00
H148   H     0.71502   0.29300   0.12765   0.00000  Uiso   1.00
N149   N     0.92963   0.29066   0.17586   0.00000  Uiso   1.00
H150   H     0.95192   0.29936   0.20672   0.00000  Uiso   1.00
H151   H     0.95011   0.29982   0.14958   0.00000  Uiso   1.00
N152   N     0.73704   0.04267   0.15747   0.00000  Uiso   1.00
H153   H     0.71474   0.03397   0.12661   0.00000  Uiso   1.00
H154   H     0.71656   0.03351   0.18375   0.00000  Uiso   1.00
C155   C     0.90127   0.22098   0.05675   0.00000  Uiso   1.00
N156   N     0.92986   0.24329   0.07939   0.00000  Uiso   1.00
C157   C     0.76540   0.11235   0.27658   0.00000  Uiso   1.00
N158   N     0.73680   0.09005   0.25394   0.00000  Uiso   1.00
C159   C     0.89956   0.22232   0.29352   0.00000  Uiso   1.00
N160   N     0.92667   0.24589   0.27802   0.00000  Uiso   1.00
C161   C     0.76711   0.11101   0.03982   0.00000  Uiso   1.00
N162   N     0.74000   0.08745   0.05531   0.00000  Uiso   1.00
C163   C     0.16584   0.42022   0.16658   0.00000  Uiso   1.00
C164   C     0.16749   0.57978   0.16676   0.00000  Uiso   1.00
C165   C     0.06733   0.49960   0.15497   0.00000  Uiso   1.00
C166   C     0.26601   0.50040   0.17837   0.00000  Uiso   1.00
C167   C     0.01276   0.49381   0.14967   0.00000  Uiso   1.00
C168   C     0.32057   0.50619   0.18367   0.00000  Uiso   1.00
C169   C     0.21429   0.35646   0.17099   0.00000  Uiso   1.00
C170   C     0.11904   0.64354   0.16234   0.00000  Uiso   1.00
C171   C     0.21484   0.64612   0.17109   0.00000  Uiso   1.00
C172   C     0.11849   0.35388   0.16225   0.00000  Uiso   1.00
C173   C     0.16718   0.62392   0.16668   0.00000  Uiso   1.00
C174   C     0.16615   0.37608   0.16666   0.00000  Uiso   1.00
C175   C     0.19934   0.52656   0.02811   0.00000  Uiso   1.00
C176   C     0.13400   0.47344   0.30522   0.00000  Uiso   1.00
C177   C     0.19915   0.52669   0.31342   0.00000  Uiso   1.00
C178   C     0.13419   0.47331   0.01991   0.00000  Uiso   1.00
N179   N     0.16665   0.49999   0.28573   0.00000  Uiso   1.00
N180   N     0.16668   0.50001   0.04760   0.00000  Uiso   1.00
O181   O     0.16666   0.43892   0.20487   0.00000  Uiso   1.00
O182   O     0.16667   0.56108   0.12846   0.00000  Uiso   1.00
O183   O     0.16666   0.43893   0.12843   0.00000  Uiso   1.00
O184   O     0.16667   0.56107   0.20490   0.00000  Uiso   1.00
O185   O     0.09058   0.50000   0.19595   0.00000  Uiso   1.00
O186   O     0.24275   0.50000   0.13739   0.00000  Uiso   1.00
O187   O     0.09058   0.50000   0.11950   0.00000  Uiso   1.00
O188   O     0.24275   0.50000   0.21383   0.00000  Uiso   1.00
Zn189  Zn    0.16667   0.49999   0.21771   0.00000  Uiso   1.00
Zn190  Zn    0.16667   0.50001   0.11563   0.00000  Uiso   1.00
N191   N     0.32105   0.47056   0.11060   0.00000  Uiso   1.00
H192   H     0.32813   0.48637   0.08118   0.00000  Uiso   1.00
H193   H     0.00432   0.44093   0.11092   0.00000  Uiso   1.00
N194   N     0.01228   0.52944   0.22273   0.00000  Uiso   1.00
H195   H     0.00520   0.51363   0.25216   0.00000  Uiso   1.00
H196   H     0.32901   0.55907   0.22241   0.00000  Uiso   1.00
N197   N     0.26176   0.38128   0.17515   0.00000  Uiso   1.00
H198   H     0.28167   0.37392   0.14819   0.00000  Uiso   1.00
H199   H     0.28497   0.37367   0.20569   0.00000  Uiso   1.00
N200   N     0.07158   0.61872   0.15818   0.00000  Uiso   1.00
H201   H     0.05167   0.62608   0.18515   0.00000  Uiso   1.00
H202   H     0.04836   0.62634   0.12765   0.00000  Uiso   1.00
N203   N     0.26296   0.62399   0.17586   0.00000  Uiso   1.00
H204   H     0.28526   0.63269   0.20672   0.00000  Uiso   1.00
H205   H     0.28344   0.63316   0.14958   0.00000  Uiso   1.00
N206   N     0.07037   0.37601   0.15747   0.00000  Uiso   1.00
H207   H     0.04808   0.36731   0.12661   0.00000  Uiso   1.00
H208   H     0.04989   0.36684   0.18375   0.00000  Uiso   1.00
C209   C     0.23460   0.55431   0.05675   0.00000  Uiso   1.00
N210   N     0.26320   0.57662   0.07939   0.00000  Uiso   1.00
C211   C     0.09873   0.44569   0.27658   0.00000  Uiso   1.00
N212   N     0.07014   0.42338   0.25394   0.00000  Uiso   1.00
C213   C     0.23289   0.55565   0.29352   0.00000  Uiso   1.00
N214   N     0.26001   0.57922   0.27802   0.00000  Uiso   1.00
C215   C     0.10044   0.44435   0.03982   0.00000  Uiso   1.00
N216   N     0.07333   0.42078   0.05531   0.00000  Uiso   1.00
C217   C     0.49917   0.42022   0.16658   0.00000  Uiso   1.00
C218   C     0.50083   0.57978   0.16676   0.00000  Uiso   1.00
C219   C     0.40066   0.49960   0.15497   0.00000  Uiso   1.00
C220   C     0.59934   0.50040   0.17837   0.00000  Uiso   1.00
C221   C     0.34609   0.49381   0.14967   0.00000  Uiso   1.00
C222   C     0.65391   0.50619   0.18367   0.00000  Uiso   1.00
C223   C     0.54762   0.35646   0.17099   0.00000  Uiso   1.00
C224   C     0.45238   0.64354   0.16234   0.00000  Uiso   1.00
C225   C     0.54817   0.64612   0.17109   0.00000  Uiso   1.00
C226   C     0.45183   0.35388   0.16225   0.00000  Uiso   1.00
C227   C     0.50051   0.62392   0.16668   0.00000  Uiso   1.00
C228   C     0.49949   0.37608   0.16666   0.00000  Uiso   1.00
C229   C     0.53267   0.52656   0.02811   0.00000  Uiso   1.00
C230   C     0.46733   0.47344   0.30522   0.00000  Uiso   1.00
C231   C     0.53248   0.52669   0.31342   0.00000  Uiso   1.00
C232   C     0.46752   0.47331   0.01991   0.00000  Uiso   1.00
N233   N     0.49999   0.49999   0.28573   0.00000  Uiso   1.00
N234   N     0.50001   0.50001   0.04760   0.00000  Uiso   1.00
O235   O     0.50000   0.43892   0.20487   0.00000  Uiso   1.00
O236   O     0.50000   0.56108   0.12846   0.00000  Uiso   1.00
O237   O     0.50000   0.43893   0.12843   0.00000  Uiso   1.00
O238   O     0.50000   0.56107   0.20490   0.00000  Uiso   1.00
O239   O     0.42392   0.50000   0.19595   0.00000  Uiso   1.00
O240   O     0.57608   0.50000   0.13739   0.00000  Uiso   1.00
O241   O     0.42392   0.50000   0.11950   0.00000  Uiso   1.00
O242   O     0.57608   0.50000   0.21383   0.00000  Uiso   1.00
Zn243  Zn    0.50000   0.49999   0.21771   0.00000  Uiso   1.00
Zn244  Zn    0.50000   0.50001   0.11563   0.00000  Uiso   1.00
N245   N     0.65439   0.47056   0.11060   0.00000  Uiso   1.00
H246   H     0.66146   0.48637   0.08118   0.00000  Uiso   1.00
H247   H     0.33766   0.44093   0.11092   0.00000  Uiso   1.00
N248   N     0.34561   0.52944   0.22273   0.00000  Uiso   1.00
H249   H     0.33854   0.51363   0.25216   0.00000  Uiso   1.00
H250   H     0.66234   0.55907   0.22241   0.00000  Uiso   1.00
N251   N     0.59509   0.38128   0.17515   0.00000  Uiso   1.00
H252   H     0.61501   0.37392   0.14819   0.00000  Uiso   1.00
H253   H     0.61830   0.37367   0.20569   0.00000  Uiso   1.00
N254   N     0.40491   0.61872   0.15818   0.00000  Uiso   1.00
H255   H     0.38500   0.62608   0.18515   0.00000  Uiso   1.00
H256   H     0.38169   0.62634   0.12765   0.00000  Uiso   1.00
N257   N     0.59630   0.62399   0.17586   0.00000  Uiso   1.00
H258   H     0.61859   0.63269   0.20672   0.00000  Uiso   1.00
H259   H     0.61677   0.63316   0.14958   0.00000  Uiso   1.00
N260   N     0.40370   0.37601   0.15747   0.00000  Uiso   1.00
H261   H     0.38141   0.36731   0.12661   0.00000  Uiso   1.00
H262   H     0.38323   0.36684   0.18375   0.00000  Uiso   1.00
C263   C     0.56794   0.55431   0.05675   0.00000  Uiso   1.00
N264   N     0.59653   0.57662   0.07939   0.00000  Uiso   1.00
C265   C     0.43206   0.44569   0.27658   0.00000  Uiso   1.00
N266   N     0.40347   0.42338   0.25394   0.00000  Uiso   1.00
C267   C     0.56623   0.55565   0.29352   0.00000  Uiso   1.00
N268   N     0.59334   0.57922   0.27802   0.00000  Uiso   1.00
C269   C     0.43377   0.44435   0.03982   0.00000  Uiso   1.00
N270   N     0.40666   0.42078   0.05531   0.00000  Uiso   1.00
C271   C     0.83251   0.42022   0.16658   0.00000  Uiso   1.00
C272   C     0.83416   0.57978   0.16676   0.00000  Uiso   1.00
C273   C     0.73399   0.49960   0.15497   0.00000  Uiso   1.00
C274   C     0.93267   0.50040   0.17837   0.00000  Uiso   1.00
C275   C     0.67943   0.49381   0.14967   0.00000  Uiso   1.00
C276   C     0.98724   0.50619   0.18367   0.00000  Uiso   1.00
C277   C     0.88096   0.35646   0.17099   0.00000  Uiso   1.00
C278   C     0.78571   0.64354   0.16234   0.00000  Uiso   1.00
C279   C     0.88151   0.64612   0.17109   0.00000  Uiso   1.00
C280   C     0.78516   0.35388   0.16225   0.00000  Uiso   1.00
C281   C     0.83385   0.62392   0.16668   0.00000  Uiso   1.00
C282   C     0.83282   0.37608   0.16666   0.00000  Uiso   1.00
C283   C     0.86600   0.52656   0.02811   0.00000  Uiso   1.00
C284   C     0.80066   0.47344   0.30522   0.00000  Uiso   1.00
C285   C     0.86581   0.52669   0.31342   0.00000  Uiso   1.00
C286   C     0.80085   0.47331   0.01991   0.00000  Uiso   1.00
N287   N     0.83332   0.49999   0.28573   0.00000  Uiso   1.00
N288   N     0.83335   0.50001   0.04760   0.00000  Uiso   1.00
O289   O     0.83333   0.43892   0.20487   0.00000  Uiso   1.00
O290   O     0.83334   0.56108   0.12846   0.00000  Uiso   1.00
O291   O     0.83333   0.43893   0.12843   0.00000  Uiso   1.00
O292   O     0.83334   0.56107   0.20490   0.00000  Uiso   1.00
O293   O     0.75725   0.50000   0.19595   0.00000  Uiso   1.00
O294   O     0.90942   0.50000   0.13739   0.00000  Uiso   1.00
O295   O     0.75725   0.50000   0.11950   0.00000  Uiso   1.00
O296   O     0.90942   0.50000   0.21383   0.00000  Uiso   1.00
Zn297  Zn    0.83333   0.49999   0.21771   0.00000  Uiso   1.00
Zn298  Zn    0.83333   0.50001   0.11563   0.00000  Uiso   1.00
N299   N     0.98772   0.47056   0.11060   0.00000  Uiso   1.00
H300   H     0.99480   0.48637   0.08118   0.00000  Uiso   1.00
H301   H     0.67099   0.44093   0.11092   0.00000  Uiso   1.00
N302   N     0.67895   0.52944   0.22273   0.00000  Uiso   1.00
H303   H     0.67187   0.51363   0.25216   0.00000  Uiso   1.00
H304   H     0.99568   0.55907   0.22241   0.00000  Uiso   1.00
N305   N     0.92842   0.38128   0.17515   0.00000  Uiso   1.00
H306   H     0.94834   0.37392   0.14819   0.00000  Uiso   1.00
H307   H     0.95164   0.37367   0.20569   0.00000  Uiso   1.00
N308   N     0.73824   0.61872   0.15818   0.00000  Uiso   1.00
H309   H     0.71833   0.62608   0.18515   0.00000  Uiso   1.00
H310   H     0.71502   0.62634   0.12765   0.00000  Uiso   1.00
N311   N     0.92963   0.62399   0.17586   0.00000  Uiso   1.00
H312   H     0.95192   0.63269   0.20672   0.00000  Uiso   1.00
H313   H     0.95011   0.63316   0.14958   0.00000  Uiso   1.00
N314   N     0.73704   0.37601   0.15747   0.00000  Uiso   1.00
H315   H     0.71474   0.36731   0.12661   0.00000  Uiso   1.00
H316   H     0.71656   0.36684   0.18375   0.00000  Uiso   1.00
C317   C     0.90127   0.55431   0.05675   0.00000  Uiso   1.00
N318   N     0.92986   0.57662   0.07939   0.00000  Uiso   1.00
C319   C     0.76540   0.44569   0.27658   0.00000  Uiso   1.00
N320   N     0.73680   0.42338   0.25394   0.00000  Uiso   1.00
C321   C     0.89956   0.55565   0.29352   0.00000  Uiso   1.00
N322   N     0.92667   0.57922   0.27802   0.00000  Uiso   1.00
C323   C     0.76711   0.44435   0.03982   0.00000  Uiso   1.00
N324   N     0.74000   0.42078   0.05531   0.00000  Uiso   1.00
C325   C     0.16584   0.75355   0.16658   0.00000  Uiso   1.00
C326   C     0.16749   0.91311   0.16676   0.00000  Uiso   1.00
C327   C     0.06733   0.83294   0.15497   0.00000  Uiso   1.00
C328   C     0.26601   0.83373   0.17837   0.00000  Uiso   1.00
C329   C     0.01276   0.82714   0.14967   0.00000  Uiso   1.00
C330   C     0.32057   0.83952   0.18367   0.00000  Uiso   1.00
C331   C     0.21429   0.68979   0.17099   0.00000  Uiso   1.00
C332   C     0.11904   0.97687   0.16234   0.00000  Uiso   1.00
C333   C     0.21484   0.97946   0.17109   0.00000  Uiso   1.00
C334   C     0.11849   0.68721   0.16225   0.00000  Uiso   1.00
C335   C     0.16718   0.95726   0.16668   0.00000  Uiso   1.00
C336   C     0.16615   0.70941   0.16666   0.00000  Uiso   1.00
C337   C     0.19934   0.85989   0.02811   0.00000  Uiso   1.00
C338   C     0.13400   0.80677   0.30522   0.00000  Uiso   1.00
C339   C     0.19915   0.86002   0.31342   0.00000  Uiso   1.00
C340   C     0.13419   0.80665   0.01991   0.00000  Uiso   1.00
N341   N     0.16665   0.83332   0.28573   0.00000  Uiso   1.00
N342   N     0.16668   0.83334   0.04760   0.00000  Uiso   1.00
O343   O     0.16666   0.77225   0.20487   0.00000  Uiso   1.00
O344   O     0.16667   0.89442   0.12846   0.00000  Uiso   1.00
O345   O     0.16666   0.77226   0.12843   0.00000  Uiso   1.00
O346   O     0.16667   0.89441   0.20490   0.00000  Uiso   1.00
O347   O     0.09058   0.83333   0.19595   0.00000  Uiso   1.00
O348   O     0.24275   0.83334   0.13739   0.00000  Uiso   1.00
O349   O     0.09058   0.83334   0.11950   0.00000  Uiso   1.00
O350   O     0.24275   0.83333   0.21383   0.00000  Uiso   1.00
Zn351  Zn    0.16667   0.83333   0.21771   0.00000  Uiso   1.00
Zn352  Zn    0.16667   0.83334   0.11563   0.00000  Uiso   1.00
N353   N     0.32105   0.80389   0.11060   0.00000  Uiso   1.00
H354   H     0.32813   0.81971   0.08118   0.00000  Uiso   1.00
H355   H     0.00432   0.77426   0.11092   0.00000  Uiso   1.00
N356   N     0.01228   0.86278   0.22273   0.00000  Uiso   1.00
H357   H     0.00520   0.84696   0.25216   0.00000  Uiso   1.00
H358   H     0.32901   0.89241   0.22241   0.00000  Uiso   1.00
N359   N     0.26176   0.71461   0.17515   0.00000  Uiso   1.00
H360   H     0.28167   0.70725   0.14819   0.00000  Uiso   1.00
H361   H     0.28497   0.70700   0.20569   0.00000  Uiso   1.00
N362   N     0.07158   0.95206   0.15818   0.00000  Uiso   1.00
H363   H     0.05167   0.95941   0.18515   0.00000  Uiso   1.00
H364   H     0.04836   0.95967   0.12765   0.00000  Uiso   1.00
N365   N     0.26296   0.95733   0.17586   0.00000  Uiso   1.00
H366   H     0.28526   0.96603   0.20672   0.00000  Uiso   1.00
H367   H     0.28344   0.96649   0.14958   0.00000  Uiso   1.00
N368   N     0.07037   0.70934   0.15747   0.00000  Uiso   1.00
H369   H     0.04808   0.70064   0.12661   0.00000  Uiso   1.00
H370   H     0.04989   0.70018   0.18375   0.00000  Uiso   1.00
C371   C     0.23460   0.88765   0.05675   0.00000  Uiso   1.00
N372   N     0.26320   0.90995   0.07939   0.00000  Uiso   1.00
C373   C     0.09873   0.77902   0.27658   0.00000  Uiso   1.00
N374   N     0.07014   0.75671   0.25394   0.00000  Uiso   1.00
C375   C     0.23289   0.88898   0.29352   0.00000  Uiso   1.00
N376   N     0.26001   0.91255   0.27802   0.00000  Uiso   1.00
C377   C     0.10044   0.77768   0.03982   0.00000  Uiso   1.00
N378   N     0.07333   0.75411   0.05531   0.00000  Uiso   1.00
C379   C     0.49917   0.75355   0.16658   0.00000  Uiso   1.00
C380   C     0.50083   0.91311   0.16676   0.00000  Uiso   1.00
C381   C     0.40066   0.83294   0.15497   0.00000  Uiso   1.00
C382   C     0.59934   0.83373   0.17837   0.00000  Uiso   1.00
C383   C     0.34609   0.82714   0.14967   0.00000  Uiso   1.00
C384   C     0.65391   0.83952   0.18367   0.00000  Uiso   1.00
C385   C     0.54762   0.68979   0.17099   0.00000  Uiso   1.00
C386   C     0.45238   0.97687   0.16234   0.00000  Uiso   1.00
C387   C     0.54817   0.97946   0.17109   0.00000  Uiso   1.00
C388   C     0.45183   0.68721   0.16225   0.00000  Uiso   1.00
C389   C     0.50051   0.95726   0.16668   0.00000  Uiso   1.00
C390   C     0.49949   0.70941   0.16666   0.00000  Uiso   1.00
C391   C     0.53267   0.85989   0.02811   0.00000  Uiso   1.00
C392   C     0.46733   0.80677   0.30522   0.00000  Uiso   1.00
C393   C     0.53248   0.86002   0.31342   0.00000  Uiso   1.00
C394   C     0.46752   0.80665   0.01991   0.00000  Uiso   1.00
N395   N     0.49999   0.83332   0.28573   0.00000  Uiso   1.00
N396   N     0.50001   0.83334   0.04760   0.00000  Uiso   1.00
O397   O     0.50000   0.77225   0.20487   0.00000  Uiso   1.00
O398   O     0.50000   0.89442   0.12846   0.00000  Uiso   1.00
O399   O     0.50000   0.77226   0.12843   0.00000  Uiso   1.00
O400   O     0.50000   0.89441   0.20490   0.00000  Uiso   1.00
O401   O     0.42392   0.83333   0.19595   0.00000  Uiso   1.00
O402   O     0.57608   0.83334   0.13739   0.00000  Uiso   1.00
O403   O     0.42392   0.83334   0.11950   0.00000  Uiso   1.00
O404   O     0.57608   0.83333   0.21383   0.00000  Uiso   1.00
Zn405  Zn    0.50000   0.83333   0.21771   0.00000  Uiso   1.00
Zn406  Zn    0.50000   0.83334   0.11563   0.00000  Uiso   1.00
N407   N     0.65439   0.80389   0.11060   0.00000  Uiso   1.00
H408   H     0.66146   0.81971   0.08118   0.00000  Uiso   1.00
H409   H     0.33766   0.77426   0.11092   0.00000  Uiso   1.00
N410   N     0.34561   0.86278   0.22273   0.00000  Uiso   1.00
H411   H     0.33854   0.84696   0.25216   0.00000  Uiso   1.00
H412   H     0.66234   0.89241   0.22241   0.00000  Uiso   1.00
N413   N     0.59509   0.71461   0.17515   0.00000  Uiso   1.00
H414   H     0.61501   0.70725   0.14819   0.00000  Uiso   1.00
H415   H     0.61830   0.70700   0.20569   0.00000  Uiso   1.00
N416   N     0.40491   0.95206   0.15818   0.00000  Uiso   1.00
H417   H     0.38500   0.95941   0.18515   0.00000  Uiso   1.00
H418   H     0.38169   0.95967   0.12765   0.00000  Uiso   1.00
N419   N     0.59630   0.95733   0.17586   0.00000  Uiso   1.00
H420   H     0.61859   0.96603   0.20672   0.00000  Uiso   1.00
H421   H     0.61677   0.96649   0.14958   0.00000  Uiso   1.00
N422   N     0.40370   0.70934   0.15747   0.00000  Uiso   1.00
H423   H     0.38141   0.70064   0.12661   0.00000  Uiso   1.00
H424   H     0.38323   0.70018   0.18375   0.00000  Uiso   1.00
C425   C     0.56794   0.88765   0.05675   0.00000  Uiso   1.00
N426   N     0.59653   0.90995   0.07939   0.00000  Uiso   1.00
C427   C     0.43206   0.77902   0.27658   0.00000  Uiso   1.00
N428   N     0.40347   0.75671   0.25394   0.00000  Uiso   1.00
C429   C     0.56623   0.88898   0.29352   0.00000  Uiso   1.00
N430   N     0.59334   0.91255   0.27802   0.00000  Uiso   1.00
C431   C     0.43377   0.77768   0.03982   0.00000  Uiso   1.00
N432   N     0.40666   0.75411   0.05531   0.00000  Uiso   1.00
C433   C     0.83251   0.75355   0.16658   0.00000  Uiso   1.00
C434   C     0.83416   0.91311   0.16676   0.00000  Uiso   1.00
C435   C     0.73399   0.83294   0.15497   0.00000  Uiso   1.00
C436   C     0.93267   0.83373   0.17837   0.00000  Uiso   1.00
C437   C     0.67943   0.82714   0.14967   0.00000  Uiso   1.00
C438   C     0.98724   0.83952   0.18367   0.00000  Uiso   1.00
C439   C     0.88096   0.68979   0.17099   0.00000  Uiso   1.00
C440   C     0.78571   0.97687   0.16234   0.00000  Uiso   1.00
C441   C     0.88151   0.97946   0.17109   0.00000  Uiso   1.00
C442   C     0.78516   0.68721   0.16225   0.00000  Uiso   1.00
C443   C     0.83385   0.95726   0.16668   0.00000  Uiso   1.00
C444   C     0.83282   0.70941   0.16666   0.00000  Uiso   1.00
C445   C     0.86600   0.85989   0.02811   0.00000  Uiso   1.00
C446   C     0.80066   0.80677   0.30522   0.00000  Uiso   1.00
C447   C     0.86581   0.86002   0.31342   0.00000  Uiso   1.00
C448   C     0.80085   0.80665   0.01991   0.00000  Uiso   1.00
N449   N     0.83332   0.83332   0.28573   0.00000  Uiso   1.00
N450   N     0.83335   0.83334   0.04760   0.00000  Uiso   1.00
O451   O     0.83333   0.77225   0.20487   0.00000  Uiso   1.00
O452   O     0.83334   0.89442   0.12846   0.00000  Uiso   1.00
O453   O     0.83333   0.77226   0.12843   0.00000  Uiso   1.00
O454   O     0.83334   0.89441   0.20490   0.00000  Uiso   1.00
O455   O     0.75725   0.83333   0.19595   0.00000  Uiso   1.00
O456   O     0.90942   0.83334   0.13739   0.00000  Uiso   1.00
O457   O     0.75725   0.83334   0.11950   0.00000  Uiso   1.00
O458   O     0.90942   0.83333   0.21383   0.00000  Uiso   1.00
Zn459  Zn    0.83333   0.83333   0.21771   0.00000  Uiso   1.00
Zn460  Zn    0.83333   0.83334   0.11563   0.00000  Uiso   1.00
N461   N     0.98772   0.80389   0.11060   0.00000  Uiso   1.00
H462   H     0.99480   0.81971   0.08118   0.00000  Uiso   1.00
H463   H     0.67099   0.77426   0.11092   0.00000  Uiso   1.00
N464   N     0.67895   0.86278   0.22273   0.00000  Uiso   1.00
H465   H     0.67187   0.84696   0.25216   0.00000  Uiso   1.00
H466   H     0.99568   0.89241   0.22241   0.00000  Uiso   1.00
N467   N     0.92842   0.71461   0.17515   0.00000  Uiso   1.00
H468   H     0.94834   0.70725   0.14819   0.00000  Uiso   1.00
H469   H     0.95164   0.70700   0.20569   0.00000  Uiso   1.00
N470   N     0.73824   0.95206   0.15818   0.00000  Uiso   1.00
H471   H     0.71833   0.95941   0.18515   0.00000  Uiso   1.00
H472   H     0.71502   0.95967   0.12765   0.00000  Uiso   1.00
N473   N     0.92963   0.95733   0.17586   0.00000  Uiso   1.00
H474   H     0.95192   0.96603   0.20672   0.00000  Uiso   1.00
H475   H     0.95011   0.96649   0.14958   0.00000  Uiso   1.00
N476   N     0.73704   0.70934   0.15747   0.00000  Uiso   1.00
H477   H     0.71474   0.70064   0.12661   0.00000  Uiso   1.00
H478   H     0.71656   0.70018   0.18375   0.00000  Uiso   1.00
C479   C     0.90127   0.88765   0.05675   0.00000  Uiso   1.00
N480   N     0.92986   0.90995   0.07939   0.00000  Uiso   1.00
C481   C     0.76540   0.77902   0.27658   0.00000  Uiso   1.00
N482   N     0.73680   0.75671   0.25394   0.00000  Uiso   1.00
C483   C     0.89956   0.88898   0.29352   0.00000  Uiso   1.00
N484   N     0.92667   0.91255   0.27802   0.00000  Uiso   1.00
C485   C     0.76711   0.77768   0.03982   0.00000  Uiso   1.00
N486   N     0.74000   0.75411   0.05531   0.00000  Uiso   1.00
C487   C     0.16584   0.08689   0.49991   0.00000  Uiso   1.00
C488   C     0.16749   0.24645   0.50009   0.00000  Uiso   1.00
C489   C     0.06733   0.16627   0.48830   0.00000  Uiso   1.00
C490   C     0.26601   0.16706   0.51170   0.00000  Uiso   1.00
C491   C     0.01276   0.16048   0.48300   0.00000  Uiso   1.00
C492   C     0.32057   0.17286   0.51700   0.00000  Uiso   1.00
C493   C     0.21429   0.02313   0.50433   0.00000  Uiso   1.00
C494   C     0.11904   0.31021   0.49567   0.00000  Uiso   1.00
C495   C     0.21484   0.31279   0.50442   0.00000  Uiso   1.00
C496   C     0.11849   0.02054   0.49558   0.00000  Uiso   1.00
C497   C     0.16718   0.29059   0.50001   0.00000  Uiso   1.00
C498   C     0.16615   0.04274   0.49999   0.00000  Uiso   1.00
C499   C     0.19934   0.19323   0.36145   0.00000  Uiso   1.00
C500   C     0.13400   0.14011   0.63855   0.00000  Uiso   1.00
C501   C     0.19915   0.19335   0.64676   0.00000  Uiso   1.00
C502   C     0.13419   0.13998   0.35324   0.00000  Uiso   1.00
N503   N     0.16665   0.16666   0.61907   0.00000  Uiso   1.00
N504   N     0.16668   0.16668   0.38093   0.00000  Uiso   1.00
O505   O     0.16666   0.10558   0.53821   0.00000  Uiso   1.00
O506   O     0.16667   0.22775   0.46179   0.00000  Uiso   1.00
O507   O     0.16666   0.10559   0.46176   0.00000  Uiso   1.00
O508   O     0.16667   0.22774   0.53824   0.00000  Uiso   1.00
O509   O     0.09058   0.16666   0.52928   0.00000  Uiso   1.00
O510   O     0.24275   0.16667   0.47072   0.00000  Uiso   1.00
O511   O     0.09058   0.16667   0.45284   0.00000  Uiso   1.00
O512   O     0.24275   0.16666   0.54716   0.00000  Uiso   1.00
Zn513  Zn    0.16667   0.16666   0.55104   0.00000  Uiso   1.00
Zn514  Zn    0.16667   0.16667   0.44896   0.00000  Uiso   1.00
N515   N     0.32105   0.13722   0.44394   0.00000  Uiso   1.00
H516   H     0.32813   0.15304   0.41451   0.00000  Uiso   1.00
H517   H     0.00432   0.10759   0.44425   0.00000  Uiso   1.00
N518   N     0.01228   0.19611   0.55606   0.00000  Uiso   1.00
H519   H     0.00520   0.18029   0.58549   0.00000  Uiso   1.00
H520   H     0.32901   0.22574   0.55575   0.00000  Uiso   1.00
N521   N     0.26176   0.04795   0.50849   0.00000  Uiso   1.00
H522   H     0.28167   0.04059   0.48152   0.00000  Uiso   1.00
H523   H     0.28497   0.04033   0.53903   0.00000  Uiso   1.00
N524   N     0.07158   0.28539   0.49152   0.00000  Uiso   1.00
H525   H     0.05167   0.29274   0.51849   0.00000  Uiso   1.00
H526   H     0.04836   0.29300   0.46098   0.00000  Uiso   1.00
N527   N     0.26296   0.29066   0.50920   0.00000  Uiso   1.00
H528   H     0.28526   0.29936   0.54006   0.00000  Uiso   1.00
H529   H     0.28344   0.29982   0.48292   0.00000  Uiso   1.00
N530   N     0.07037   0.04267   0.49080   0.00000  Uiso   1.00
H531   H     0.04808   0.03397   0.45994   0.00000  Uiso   1.00
H532   H     0.04989   0.03351   0.51708   0.00000  Uiso   1.00
C533   C     0.23460   0.22098   0.39009   0.00000  Uiso   1.00
N534   N     0.26320   0.24329   0.41272   0.00000  Uiso   1.00
C535   C     0.09873   0.11235   0.60992   0.00000  Uiso   1.00
N536   N     0.07014   0.09005   0.58728   0.00000  Uiso   1.00
C537   C     0.23289   0.22232   0.62685   0.00000  Uiso   1.00
N538   N     0.26001   0.24589   0.61136   0.00000  Uiso   1.00
C539   C     0.10044   0.11101   0.37315   0.00000  Uiso   1.00
N540   N     0.07333   0.08745   0.38864   0.00000  Uiso   1.00
C541   C     0.49917   0.08689   0.49991   0.00000  Uiso   1.00
C542   C     0.50083   0.24645   0.50009   0.00000  Uiso   1.00
C543   C     0.40066   0.16627   0.48830   0.00000  Uiso   1.00
C544   C     0.59934   0.16706   0.51170   0.00000  Uiso   1.00
C545   C     0.34609   0.16048   0.48300   0.00000  Uiso   1.00
C546   C     0.65391   0.17286   0.51700   0.00000  Uiso   1.00
C547   C     0.54762   0.02313   0.50433   0.00000  Uiso   1.00
C548   C     0.45238   0.31021   0.49567   0.00000  Uiso   1.00
C549   C     0.54817   0.31279   0.50442   0.00000  Uiso   1.00
C550   C     0.45183   0.02054   0.49558   0.00000  Uiso   1.00
C551   C     0.50051   0.29059   0.50001   0.00000  Uiso   1.00
C552   C     0.49949   0.04274   0.49999   0.00000  Uiso   1.00
C553   C     0.53267   0.19323   0.36145   0.00000  Uiso   1.00
C554   C     0.46733   0.14011   0.63855   0.00000  Uiso   1.00
C555   C     0.53248   0.19335   0.64676   0.00000  Uiso   1.00
C556   C     0.46752   0.13998   0.35324   0.00000  Uiso   1.00
N557   N     0.49999   0.16666   0.61907   0.00000  Uiso   1.00
N558   N     0.50001   0.16668   0.38093   0.00000  Uiso   1.00
O559   O     0.50000   0.10558   0.53821   0.00000  Uiso   1.00
O560   O     0.50000   0.22775   0.46179   0.00000  Uiso   1.00
O561   O     0.50000   0.10559   0.46176   0.00000  Uiso   1.00
O562   O     0.50000   0.22774   0.53824   0.00000  Uiso   1.00
O563   O     0.42392   0.16666   0.52928   0.00000  Uiso   1.00
O564   O     0.57608   0.16667   0.47072   0.00000  Uiso   1.00
O565   O     0.42392   0.16667   0.45284   0.00000  Uiso   1.00
O566   O     0.57608   0.16666   0.54716   0.00000  Uiso   1.00
Zn567  Zn    0.50000   0.16666   0.55104   0.00000  Uiso   1.00
Zn568  Zn    0.50000   0.16667   0.44896   0.00000  Uiso   1.00
N569   N     0.65439   0.13722   0.44394   0.00000  Uiso   1.00
H570   H     0.66146   0.15304   0.41451   0.00000  Uiso   1.00
H571   H     0.33766   0.10759   0.44425   0.00000  Uiso   1.00
N572   N     0.34561   0.19611   0.55606   0.00000  Uiso   1.00
H573   H     0.33854   0.18029   0.58549   0.00000  Uiso   1.00
H574   H     0.66234   0.22574   0.55575   0.00000  Uiso   1.00
N575   N     0.59509   0.04795   0.50849   0.00000  Uiso   1.00
H576   H     0.61501   0.04059   0.48152   0.00000  Uiso   1.00
H577   H     0.61830   0.04033   0.53903   0.00000  Uiso   1.00
N578   N     0.40491   0.28539   0.49152   0.00000  Uiso   1.00
H579   H     0.38500   0.29274   0.51849   0.00000  Uiso   1.00
H580   H     0.38169   0.29300   0.46098   0.00000  Uiso   1.00
N581   N     0.59630   0.29066   0.50920   0.00000  Uiso   1.00
H582   H     0.61859   0.29936   0.54006   0.00000  Uiso   1.00
H583   H     0.61677   0.29982   0.48292   0.00000  Uiso   1.00
N584   N     0.40370   0.04267   0.49080   0.00000  Uiso   1.00
H585   H     0.38141   0.03397   0.45994   0.00000  Uiso   1.00
H586   H     0.38323   0.03351   0.51708   0.00000  Uiso   1.00
C587   C     0.56794   0.22098   0.39009   0.00000  Uiso   1.00
N588   N     0.59653   0.24329   0.41272   0.00000  Uiso   1.00
C589   C     0.43206   0.11235   0.60992   0.00000  Uiso   1.00
N590   N     0.40347   0.09005   0.58728   0.00000  Uiso   1.00
C591   C     0.56623   0.22232   0.62685   0.00000  Uiso   1.00
N592   N     0.59334   0.24589   0.61136   0.00000  Uiso   1.00
C593   C     0.43377   0.11101   0.37315   0.00000  Uiso   1.00
N594   N     0.40666   0.08745   0.38864   0.00000  Uiso   1.00
C595   C     0.83251   0.08689   0.49991   0.00000  Uiso   1.00
C596   C     0.83416   0.24645   0.50009   0.00000  Uiso   1.00
C597   C     0.73399   0.16627   0.48830   0.00000  Uiso   1.00
C598   C     0.93267   0.16706   0.51170   0.00000  Uiso   1.00
C599   C     0.67943   0.16048   0.48300   0.00000  Uiso   1.00
C600   C     0.98724   0.17286   0.51700   0.00000  Uiso   1.00
C601   C     0.88096   0.02313   0.50433   0.00000  Uiso   1.00
C602   C     0.78571   0.31021   0.49567   0.00000  Uiso   1.00
C603   C     0.88151   0.31279   0.50442   0.00000  Uiso   1.00
C604   C     0.78516   0.02054   0.49558   0.00000  Uiso   1.00
C605   C     0.83385   0.29059   0.50001   0.00000  Uiso   1.00
C606   C     0.83282   0.04274   0.49999   0.00000  Uiso   1.00
C607   C     0.86600   0.19323   0.36145   0.00000  Uiso   1.00
C608   C     0.80066   0.14011   0.63855   0.00000  Uiso   1.00
C609   C     0.86581   0.19335   0.64676   0.00000  Uiso   1.00
C610   C     0.80085   0.13998   0.35324   0.00000  Uiso   1.00
N611   N     0.83332   0.16666   0.61907   0.00000  Uiso   1.00
N612   N     0.83335   0.16668   0.38093   0.00000  Uiso   1.00
O613   O     0.83333   0.10558   0.53821   0.00000  Uiso   1.00
O614   O     0.83334   0.22775   0.46179   0.00000  Uiso   1.00
O615   O     0.83333   0.10559   0.46176   0.00000  Uiso   1.00
O616   O     0.83334   0.22774   0.53824   0.00000  Uiso   1.00
O617   O     0.75725   0.16666   0.52928   0.00000  Uiso   1.00
O618   O     0.90942   0.16667   0.47072   0.00000  Uiso   1.00
O619   O     0.75725   0.16667   0.45284   0.00000  Uiso   1.00
O620   O     0.90942   0.16666   0.54716   0.00000  Uiso   1.00
Zn621  Zn    0.83333   0.16666   0.55104   0.00000  Uiso   1.00
Zn622  Zn    0.83333   0.16667   0.44896   0.00000  Uiso   1.00
N623   N     0.98772   0.13722   0.44394   0.00000  Uiso   1.00
H624   H     0.99480   0.15304   0.41451   0.00000  Uiso   1.00
H625   H     0.67099   0.10759   0.44425   0.00000  Uiso   1.00
N626   N     0.67895   0.19611   0.55606   0.00000  Uiso   1.00
H627   H     0.67187   0.18029   0.58549   0.00000  Uiso   1.00
H628   H     0.99568   0.22574   0.55575   0.00000  Uiso   1.00
N629   N     0.92842   0.04795   0.50849   0.00000  Uiso   1.00
H630   H     0.94834   0.04059   0.48152   0.00000  Uiso   1.00
H631   H     0.95164   0.04033   0.53903   0.00000  Uiso   1.00
N632   N     0.73824   0.28539   0.49152   0.00000  Uiso   1.00
H633   H     0.71833   0.29274   0.51849   0.00000  Uiso   1.00
H634   H     0.71502   0.29300   0.46098   0.00000  Uiso   1.00
N635   N     0.92963   0.29066   0.50920   0.00000  Uiso   1.00
H636   H     0.95192   0.29936   0.54006   0.00000  Uiso   1.00
H637   H     0.95011   0.29982   0.48292   0.00000  Uiso   1.00
N638   N     0.73704   0.04267   0.49080   0.00000  Uiso   1.00
H639   H     0.71474   0.03397   0.45994   0.00000  Uiso   1.00
H640   H     0.71656   0.03351   0.51708   0.00000  Uiso   1.00
C641   C     0.90127   0.22098   0.39009   0.00000  Uiso   1.00
N642   N     0.92986   0.24329   0.41272   0.00000  Uiso   1.00
C643   C     0.76540   0.11235   0.60992   0.00000  Uiso   1.00
N644   N     0.73680   0.09005   0.58728   0.00000  Uiso   1.00
C645   C     0.89956   0.22232   0.62685   0.00000  Uiso   1.00
N646   N     0.92667   0.24589   0.61136   0.00000  Uiso   1.00
C647   C     0.76711   0.11101   0.37315   0.00000  Uiso   1.00
N648   N     0.74000   0.08745   0.38864   0.00000  Uiso   1.00
C649   C     0.16584   0.42022   0.49991   0.00000  Uiso   1.00
C650   C     0.16749   0.57978   0.50009   0.00000  Uiso   1.00
C651   C     0.06733   0.49960   0.48830   0.00000  Uiso   1.00
C652   C     0.26601   0.50040   0.51170   0.00000  Uiso   1.00
C653   C     0.01276   0.49381   0.48300   0.00000  Uiso   1.00
C654   C     0.32057   0.50619   0.51700   0.00000  Uiso   1.00
C655   C     0.21429   0.35646   0.50433   0.00000  Uiso   1.00
C656   C     0.11904   0.64354   0.49567   0.00000  Uiso   1.00
C657   C     0.21484   0.64612   0.50442   0.00000  Uiso   1.00
C658   C     0.11849   0.35388   0.49558   0.00000  Uiso   1.00
C659   C     0.16718   0.62392   0.50001   0.00000  Uiso   1.00
C660   C     0.16615   0.37608   0.49999   0.00000  Uiso   1.00
C661   C     0.19934   0.52656   0.36145   0.00000  Uiso   1.00
C662   C     0.13400   0.47344   0.63855   0.00000  Uiso   1.00
C663   C     0.19915   0.52669   0.64676   0.00000  Uiso   1.00
C664   C     0.13419   0.47331   0.35324   0.00000  Uiso   1.00
N665   N     0.16665   0.49999   0.61907   0.00000  Uiso   1.00
N666   N     0.16668   0.50001   0.38093   0.00000  Uiso   1.00
O667   O     0.16666   0.43892   0.53821   0.00000  Uiso   1.00
O668   O     0.16667   0.56108   0.46179   0.00000  Uiso   1.00
O669   O     0.16666   0.43893   0.46176   0.00000  Uiso   1.00
O670   O     0.16667   0.56107   0.53824   0.00000  Uiso   1.00
O671   O     0.09058   0.50000   0.52928   0.00000  Uiso   1.00
O672   O     0.24275   0.50000   0.47072   0.00000  Uiso   1.00
O673   O     0.09058   0.50000   0.45284   0.00000  Uiso   1.00
O674   O     0.24275   0.50000   0.54716   0.00000  Uiso   1.00
Zn675  Zn    0.16667   0.49999   0.55104   0.00000  Uiso   1.00
Zn676  Zn    0.16667   0.50001   0.44896   0.00000  Uiso   1.00
N677   N     0.32105   0.47056   0.44394   0.00000  Uiso   1.00
H678   H     0.32813   0.48637   0.41451   0.00000  Uiso   1.00
H679   H     0.00432   0.44093   0.44425   0.00000  Uiso   1.00
N680   N     0.01228   0.52944   0.55606   0.00000  Uiso   1.00
H681   H     0.00520   0.51363   0.58549   0.00000  Uiso   1.00
H682   H     0.32901   0.55907   0.55575   0.00000  Uiso   1.00
N683   N     0.26176   0.38128   0.50849   0.00000  Uiso   1.00
H684   H     0.28167   0.37392   0.48152   0.00000  Uiso   1.00
H685   H     0.28497   0.37367   0.53903   0.00000  Uiso   1.00
N686   N     0.07158   0.61872   0.49152   0.00000  Uiso   1.00
H687   H     0.05167   0.62608   0.51849   0.00000  Uiso   1.00
H688   H     0.04836   0.62634   0.46098   0.00000  Uiso   1.00
N689   N     0.26296   0.62399   0.50920   0.00000  Uiso   1.00
H690   H     0.28526   0.63269   0.54006   0.00000  Uiso   1.00
H691   H     0.28344   0.63316   0.48292   0.00000  Uiso   1.00
N692   N     0.07037   0.37601   0.49080   0.00000  Uiso   1.00
H693   H     0.04808   0.36731   0.45994   0.00000  Uiso   1.00
H694   H     0.04989   0.36684   0.51708   0.00000  Uiso   1.00
C695   C     0.23460   0.55431   0.39009   0.00000  Uiso   1.00
N696   N     0.26320   0.57662   0.41272   0.00000  Uiso   1.00
C697   C     0.09873   0.44569   0.60992   0.00000  Uiso   1.00
N698   N     0.07014   0.42338   0.58728   0.00000  Uiso   1.00
C699   C     0.23289   0.55565   0.62685   0.00000  Uiso   1.00
N700   N     0.26001   0.57922   0.61136   0.00000  Uiso   1.00
C701   C     0.10044   0.44435   0.37315   0.00000  Uiso   1.00
N702   N     0.07333   0.42078   0.38864   0.00000  Uiso   1.00
C703   C     0.49917   0.42022   0.49991   0.00000  Uiso   1.00
C704   C     0.50083   0.57978   0.50009   0.00000  Uiso   1.00
C705   C     0.40066   0.49960   0.48830   0.00000  Uiso   1.00
C706   C     0.59934   0.50040   0.51170   0.00000  Uiso   1.00
C707   C     0.34609   0.49381   0.48300   0.00000  Uiso   1.00
C708   C     0.65391   0.50619   0.51700   0.00000  Uiso   1.00
C709   C     0.54762   0.35646   0.50433   0.00000  Uiso   1.00
C710   C     0.45238   0.64354   0.49567   0.00000  Uiso   1.00
C711   C     0.54817   0.64612   0.50442   0.00000  Uiso   1.00
C712   C     0.45183   0.35388   0.49558   0.00000  Uiso   1.00
C713   C     0.50051   0.62392   0.50001   0.00000  Uiso   1.00
C714   C     0.49949   0.37608   0.49999   0.00000  Uiso   1.00
C715   C     0.53267   0.52656   0.36145   0.00000  Uiso   1.00
C716   C     0.46733   0.47344   0.63855   0.00000  Uiso   1.00
C717   C     0.53248   0.52669   0.64676   0.00000  Uiso   1.00
C718   C     0.46752   0.47331   0.35324   0.00000  Uiso   1.00
N719   N     0.49999   0.49999   0.61907   0.00000  Uiso   1.00
N720   N     0.50001   0.50001   0.38093   0.00000  Uiso   1.00
O721   O     0.50000   0.43892   0.53821   0.00000  Uiso   1.00
O722   O     0.50000   0.56108   0.46179   0.00000  Uiso   1.00
O723   O     0.50000   0.43893   0.46176   0.00000  Uiso   1.00
O724   O     0.50000   0.56107   0.53824   0.00000  Uiso   1.00
O725   O     0.42392   0.50000   0.52928   0.00000  Uiso   1.00
O726   O     0.57608   0.50000   0.47072   0.00000  Uiso   1.00
O727   O     0.42392   0.50000   0.45284   0.00000  Uiso   1.00
O728   O     0.57608   0.50000   0.54716   0.00000  Uiso   1.00
Zn729  Zn    0.50000   0.49999   0.55104   0.00000  Uiso   1.00
Zn730  Zn    0.50000   0.50001   0.44896   0.00000  Uiso   1.00
N731   N     0.65439   0.47056   0.44394   0.00000  Uiso   1.00
H732   H     0.66146   0.48637   0.41451   0.00000  Uiso   1.00
H733   H     0.33766   0.44093   0.44425   0.00000  Uiso   1.00
N734   N     0.34561   0.52944   0.55606   0.00000  Uiso   1.00
H735   H     0.33854   0.51363   0.58549   0.00000  Uiso   1.00
H736   H     0.66234   0.55907   0.55575   0.00000  Uiso   1.00
N737   N     0.59509   0.38128   0.50849   0.00000  Uiso   1.00
H738   H     0.61501   0.37392   0.48152   0.00000  Uiso   1.00
H739   H     0.61830   0.37367   0.53903   0.00000  Uiso   1.00
N740   N     0.40491   0.61872   0.49152   0.00000  Uiso   1.00
H741   H     0.38500   0.62608   0.51849   0.00000  Uiso   1.00
H742   H     0.38169   0.62634   0.46098   0.00000  Uiso   1.00
N743   N     0.59630   0.62399   0.50920   0.00000  Uiso   1.00
H744   H     0.61859   0.63269   0.54006   0.00000  Uiso   1.00
H745   H     0.61677   0.63316   0.48292   0.00000  Uiso   1.00
N746   N     0.40370   0.37601   0.49080   0.00000  Uiso   1.00
H747   H     0.38141   0.36731   0.45994   0.00000  Uiso   1.00
H748   H     0.38323   0.36684   0.51708   0.00000  Uiso   1.00
C749   C     0.56794   0.55431   0.39009   0.00000  Uiso   1.00
N750   N     0.59653   0.57662   0.41272   0.00000  Uiso   1.00
C751   C     0.43206   0.44569   0.60992   0.00000  Uiso   1.00
N752   N     0.40347   0.42338   0.58728   0.00000  Uiso   1.00
C753   C     0.56623   0.55565   0.62685   0.00000  Uiso   1.00
N754   N     0.59334   0.57922   0.61136   0.00000  Uiso   1.00
C755   C     0.43377   0.44435   0.37315   0.00000  Uiso   1.00
N756   N     0.40666   0.42078   0.38864   0.00000  Uiso   1.00
C757   C     0.83251   0.42022   0.49991   0.00000  Uiso   1.00
C758   C     0.83416   0.57978   0.50009   0.00000  Uiso   1.00
C759   C     0.73399   0.49960   0.48830   0.00000  Uiso   1.00
C760   C     0.93267   0.50040   0.51170   0.00000  Uiso   1.00
C761   C     0.67943   0.49381   0.48300   0.00000  Uiso   1.00
C762   C     0.98724   0.50619   0.51700   0.00000  Uiso   1.00
C763   C     0.88096   0.35646   0.50433   0.00000  Uiso   1.00
C764   C     0.78571   0.64354   0.49567   0.00000  Uiso   1.00
C765   C     0.88151   0.64612   0.50442   0.00000  Uiso   1.00
C766   C     0.78516   0.35388   0.49558   0.00000  Uiso   1.00
C767   C     0.83385   0.62392   0.50001   0.00000  Uiso   1.00
C768   C     0.83282   0.37608   0.49999   0.00000  Uiso   1.00
C769   C     0.86600   0.52656   0.36145   0.00000  Uiso   1.00
C770   C     0.80066   0.47344   0.63855   0.00000  Uiso   1.00
C771   C     0.86581   0.52669   0.64676   0.00000  Uiso   1.00
C772   C     0.80085   0.47331   0.35324   0.00000  Uiso   1.00
N773   N     0.83332   0.49999   0.61907   0.00000  Uiso   1.00
N774   N     0.83335   0.50001   0.38093   0.00000  Uiso   1.00
O775   O     0.83333   0.43892   0.53821   0.00000  Uiso   1.00
O776   O     0.83334   0.56108   0.46179   0.00000  Uiso   1.00
O777   O     0.83333   0.43893   0.46176   0.00000  Uiso   1.00
O778   O     0.83334   0.56107   0.53824   0.00000  Uiso   1.00
O779   O     0.75725   0.50000   0.52928   0.00000  Uiso   1.00
O780   O     0.90942   0.50000   0.47072   0.00000  Uiso   1.00
O781   O     0.75725   0.50000   0.45284   0.00000  Uiso   1.00
O782   O     0.90942   0.50000   0.54716   0.00000  Uiso   1.00
Zn783  Zn    0.83333   0.49999   0.55104   0.00000  Uiso   1.00
Zn784  Zn    0.83333   0.50001   0.44896   0.00000  Uiso   1.00
N785   N     0.98772   0.47056   0.44394   0.00000  Uiso   1.00
H786   H     0.99480   0.48637   0.41451   0.00000  Uiso   1.00
H787   H     0.67099   0.44093   0.44425   0.00000  Uiso   1.00
N788   N     0.67895   0.52944   0.55606   0.00000  Uiso   1.00
H789   H     0.67187   0.51363   0.58549   0.00000  Uiso   1.00
H790   H     0.99568   0.55907   0.55575   0.00000  Uiso   1.00
N791   N     0.92842   0.38128   0.50849   0.00000  Uiso   1.00
H792   H     0.94834   0.37392   0.48152   0.00000  Uiso   1.00
H793   H     0.95164   0.37367   0.53903   0.00000  Uiso   1.00
N794   N     0.73824   0.61872   0.49152   0.00000  Uiso   1.00
H795   H     0.71833   0.62608   0.51849   0.00000  Uiso   1.00
H796   H     0.71502   0.62634   0.46098   0.00000  Uiso   1.00
N797   N     0.92963   0.62399   0.50920   0.00000  Uiso   1.00
H798   H     0.95192   0.63269   0.54006   0.00000  Uiso   1.00
H799   H     0.95011   0.63316   0.48292   0.00000  Uiso   1.00
N800   N     0.73704   0.37601   0.49080   0.00000  Uiso   1.00
H801   H     0.71474   0.36731   0.45994   0.00000  Uiso   1.00
H802   H     0.71656   0.36684   0.51708   0.00000  Uiso   1.00
C803   C     0.90127   0.55431   0.39009   0.00000  Uiso   1.00
N804   N     0.92986   0.57662   0.41272   0.00000  Uiso   1.00
C805   C     0.76540   0.44569   0.60992   0.00000  Uiso   1.00
N806   N     0.73680   0.42338   0.58728   0.00000  Uiso   1.00
C807   C     0.89956   0.55565   0.62685   0.00000  Uiso   1.00
N808   N     0.92667   0.57922   0.61136   0.00000  Uiso   1.00
C809   C     0.76711   0.44435   0.37315   0.00000  Uiso   1.00
N810   N     0.74000   0.42078   0.38864   0.00000  Uiso   1.00
C811   C     0.16584   0.75355   0.49991   0.00000  Uiso   1.00
C812   C     0.16749   0.91311   0.50009   0.00000  Uiso   1.00
C813   C     0.06733   0.83294   0.48830   0.00000  Uiso   1.00
C814   C     0.26601   0.83373   0.51170   0.00000  Uiso   1.00
C815   C     0.01276   0.82714   0.48300   0.00000  Uiso   1.00
C816   C     0.32057   0.83952   0.51700   0.00000  Uiso   1.00
C817   C     0.21429   0.68979   0.50433   0.00000  Uiso   1.00
C818   C     0.11904   0.97687   0.49567   0.00000  Uiso   1.00
C819   C     0.21484   0.97946   0.50442   0.00000  Uiso   1.00
C820   C     0.11849   0.68721   0.49558   0.00000  Uiso   1.00
C821   C     0.16718   0.95726   0.50001   0.00000  Uiso   1.00
C822   C     0.16615   0.70941   0.49999   0.00000  Uiso   1.00
C823   C     0.19934   0.85989   0.36145   0.00000  Uiso   1.00
C824   C     0.13400   0.80677   0.63855   0.00000  Uiso   1.00
C825   C     0.19915   0.86002   0.64676   0.00000  Uiso   1.00
C826   C     0.13419   0.80665   0.35324   0.00000  Uiso   1.00
N827   N     0.16665   0.83332   0.61907   0.00000  Uiso   1.00
N828   N     0.16668   0.83334   0.38093   0.00000  Uiso   1.00
O829   O     0.16666   0.77225   0.53821   0.00000  Uiso   1.00
O830   O     0.16667   0.89442   0.46179   0.00000  Uiso   1.00
O831   O     0.16666   0.77226   0.46176   0.00000  Uiso   1.00
O832   O     0.16667   0.89441   0.53824   0.00000  Uiso   1.00
O833   O     0.09058   0.83333   0.52928   0.00000  Uiso   1.00
O834   O     0.24275   0.83334   0.47072   0.00000  Uiso   1.00
O835   O     0.09058   0.83334   0.45284   0.00000  Uiso   1.00
O836   O     0.24275   0.83333   0.54716   0.00000  Uiso   1.00
Zn837  Zn    0.16667   0.83333   0.55104   0.00000  Uiso   1.00
Zn838  Zn    0.16667   0.83334   0.44896   0.00000  Uiso   1.00
N839   N     0.32105   0.80389   0.44394   0.00000  Uiso   1.00
H840   H     0.32813   0.81971   0.41451   0.00000  Uiso   1.00
H841   H     0.00432   0.77426   0.44425   0.00000  Uiso   1.00
N842   N     0.01228   0.86278   0.55606   0.00000  Uiso   1.00
H843   H     0.00520   0.84696   0.58549   0.00000  Uiso   1.00
H844   H     0.32901   0.89241   0.55575   0.00000  Uiso   1.00
N845   N     0.26176   0.71461   0.50849   0.00000  Uiso   1.00
H846   H     0.28167   0.70725   0.48152   0.00000  Uiso   1.00
H847   H     0.28497   0.70700   0.53903   0.00000  Uiso   1.00
N848   N     0.07158   0.95206   0.49152   0.00000  Uiso   1.00
H849   H     0.05167   0.95941   0.51849   0.00000  Uiso   1.00
H850   H     0.04836   0.95967   0.46098   0.00000  Uiso   1.00
N851   N     0.26296   0.95733   0.50920   0.00000  Uiso   1.00
H852   H     0.28526   0.96603   0.54006   0.00000  Uiso   1.00
H853   H     0.28344   0.96649   0.48292   0.00000  Uiso   1.00
N854   N     0.07037   0.70934   0.49080   0.00000  Uiso   1.00
H855   H     0.04808   0.70064   0.45994   0.00000  Uiso   1.00
H856   H     0.04989   0.70018   0.51708   0.00000  Uiso   1.00
C857   C     0.23460   0.88765   0.39009   0.00000  Uiso   1.00
N858   N     0.26320   0.90995   0.41272   0.00000  Uiso   1.00
C859   C     0.09873   0.77902   0.60992   0.00000  Uiso   1.00
N860   N     0.07014   0.75671   0.58728   0.00000  Uiso   1.00
C861   C     0.23289   0.88898   0.62685   0.00000  Uiso   1.00
N862   N     0.26001   0.91255   0.61136   0.00000  Uiso   1.00
C863   C     0.10044   0.77768   0.37315   0.00000  Uiso   1.00
N864   N     0.07333   0.75411   0.38864   0.00000  Uiso   1.00
C865   C     0.49917   0.75355   0.49991   0.00000  Uiso   1.00
C866   C     0.50083   0.91311   0.50009   0.00000  Uiso   1.00
C867   C     0.40066   0.83294   0.48830   0.00000  Uiso   1.00
C868   C     0.59934   0.83373   0.51170   0.00000  Uiso   1.00
C869   C     0.34609   0.82714   0.48300   0.00000  Uiso   1.00
C870   C     0.65391   0.83952   0.51700   0.00000  Uiso   1.00
C871   C     0.54762   0.68979   0.50433   0.00000  Uiso   1.00
C872   C     0.45238   0.97687   0.49567   0.00000  Uiso   1.00
C873   C     0.54817   0.97946   0.50442   0.00000  Uiso   1.00
C874   C     0.45183   0.68721   0.49558   0.00000  Uiso   1.00
C875   C     0.50051   0.95726   0.50001   0.00000  Uiso   1.00
C876   C     0.49949   0.70941   0.49999   0.00000  Uiso   1.00
C877   C     0.53267   0.85989   0.36145   0.00000  Uiso   1.00
C878   C     0.46733   0.80677   0.63855   0.00000  Uiso   1.00
C879   C     0.53248   0.86002   0.64676   0.00000  Uiso   1.00
C880   C     0.46752   0.80665   0.35324   0.00000  Uiso   1.00
N881   N     0.49999   0.83332   0.61907   0.00000  Uiso   1.00
N882   N     0.50001   0.83334   0.38093   0.00000  Uiso   1.00
O883   O     0.50000   0.77225   0.53821   0.00000  Uiso   1.00
O884   O     0.50000   0.89442   0.46179   0.00000  Uiso   1.00
O885   O     0.50000   0.77226   0.46176   0.00000  Uiso   1.00
O886   O     0.50000   0.89441   0.53824   0.00000  Uiso   1.00
O887   O     0.42392   0.83333   0.52928   0.00000  Uiso   1.00
O888   O     0.57608   0.83334   0.47072   0.00000  Uiso   1.00
O889   O     0.42392   0.83334   0.45284   0.00000  Uiso   1.00
O890   O     0.57608   0.83333   0.54716   0.00000  Uiso   1.00
Zn891  Zn    0.50000   0.83333   0.55104   0.00000  Uiso   1.00
Zn892  Zn    0.50000   0.83334   0.44896   0.00000  Uiso   1.00
N893   N     0.65439   0.80389   0.44394   0.00000  Uiso   1.00
H894   H     0.66146   0.81971   0.41451   0.00000  Uiso   1.00
H895   H     0.33766   0.77426   0.44425   0.00000  Uiso   1.00
N896   N     0.34561   0.86278   0.55606   0.00000  Uiso   1.00
H897   H     0.33854   0.84696   0.58549   0.00000  Uiso   1.00
H898   H     0.66234   0.89241   0.55575   0.00000  Uiso   1.00
N899   N     0.59509   0.71461   0.50849   0.00000  Uiso   1.00
H900   H     0.61501   0.70725   0.48152   0.00000  Uiso   1.00
H901   H     0.61830   0.70700   0.53903   0.00000  Uiso   1.00
N902   N     0.40491   0.95206   0.49152   0.00000  Uiso   1.00
H903   H     0.38500   0.95941   0.51849   0.00000  Uiso   1.00
H904   H     0.38169   0.95967   0.46098   0.00000  Uiso   1.00
N905   N     0.59630   0.95733   0.50920   0.00000  Uiso   1.00
H906   H     0.61859   0.96603   0.54006   0.00000  Uiso   1.00
H907   H     0.61677   0.96649   0.48292   0.00000  Uiso   1.00
N908   N     0.40370   0.70934   0.49080   0.00000  Uiso   1.00
H909   H     0.38141   0.70064   0.45994   0.00000  Uiso   1.00
H910   H     0.38323   0.70018   0.51708   0.00000  Uiso   1.00
C911   C     0.56794   0.88765   0.39009   0.00000  Uiso   1.00
N912   N     0.59653   0.90995   0.41272   0.00000  Uiso   1.00
C913   C     0.43206   0.77902   0.60992   0.00000  Uiso   1.00
N914   N     0.40347   0.75671   0.58728   0.00000  Uiso   1.00
C915   C     0.56623   0.88898   0.62685   0.00000  Uiso   1.00
N916   N     0.59334   0.91255   0.61136   0.00000  Uiso   1.00
C917   C     0.43377   0.77768   0.37315   0.00000  Uiso   1.00
N918   N     0.40666   0.75411   0.38864   0.00000  Uiso   1.00
C919   C     0.83251   0.75355   0.49991   0.00000  Uiso   1.00
C920   C     0.83416   0.91311   0.50009   0.00000  Uiso   1.00
C921   C     0.73399   0.83294   0.48830   0.00000  Uiso   1.00
C922   C     0.93267   0.83373   0.51170   0.00000  Uiso   1.00
C923   C     0.67943   0.82714   0.48300   0.00000  Uiso   1.00
C924   C     0.98724   0.83952   0.51700   0.00000  Uiso   1.00
C925   C     0.88096   0.68979   0.50433   0.00000  Uiso   1.00
C926   C     0.78571   0.97687   0.49567   0.00000  Uiso   1.00
C927   C     0.88151   0.97946   0.50442   0.00000  Uiso   1.00
C928   C     0.78516   0.68721   0.49558   0.00000  Uiso   1.00
C929   C     0.83385   0.95726   0.50001   0.00000  Uiso   1.00
C930   C     0.83282   0.70941   0.49999   0.00000  Uiso   1.00
C931   C     0.86600   0.85989   0.36145   0.00000  Uiso   1.00
C932   C     0.80066   0.80677   0.63855   0.00000  Uiso   1.00
C933   C     0.86581   0.86002   0.64676   0.00000  Uiso   1.00
C934   C     0.80085   0.80665   0.35324   0.00000  Uiso   1.00
N935   N     0.83332   0.83332   0.61907   0.00000  Uiso   1.00
N936   N     0.83335   0.83334   0.38093   0.00000  Uiso   1.00
O937   O     0.83333   0.77225   0.53821   0.00000  Uiso   1.00
O938   O     0.83334   0.89442   0.46179   0.00000  Uiso   1.00
O939   O     0.83333   0.77226   0.46176   0.00000  Uiso   1.00
O940   O     0.83334   0.89441   0.53824   0.00000  Uiso   1.00
O941   O     0.75725   0.83333   0.52928   0.00000  Uiso   1.00
O942   O     0.90942   0.83334   0.47072   0.00000  Uiso   1.00
O943   O     0.75725   0.83334   0.45284   0.00000  Uiso   1.00
O944   O     0.90942   0.83333   0.54716   0.00000  Uiso   1.00
Zn945  Zn    0.83333   0.83333   0.55104   0.00000  Uiso   1.00
Zn946  Zn    0.83333   0.83334   0.44896   0.00000  Uiso   1.00
N947   N     0.98772   0.80389   0.44394   0.00000  Uiso   1.00
H948   H     0.99480   0.81971   0.41451   0.00000  Uiso   1.00
H949   H     0.67099   0.77426   0.44425   0.00000  Uiso   1.00
N950   N     0.67895   0.86278   0.55606   0.00000  Uiso   1.00
H951   H     0.67187   0.84696   0.58549   0.00000  Uiso   1.00
H952   H     0.99568   0.89241   0.55575   0.00000  Uiso   1.00
N953   N     0.92842   0.71461   0.50849   0.00000  Uiso   1.00
H954   H     0.94834   0.70725   0.48152   0.00000  Uiso   1.00
H955   H     0.95164   0.70700   0.53903   0.00000  Uiso   1.00
N956   N     0.73824   0.95206   0.49152   0.00000  Uiso   1.00
H957   H     0.71833   0.95941   0.51849   0.00000  Uiso   1.00
H958   H     0.71502   0.95967   0.46098   0.00000  Uiso   1.00
N959   N     0.92963   0.95733   0.50920   0.00000  Uiso   1.00
H960   H     0.95192   0.96603   0.54006   0.00000  Uiso   1.00
H961   H     0.95011   0.96649   0.48292   0.00000  Uiso   1.00
N962   N     0.73704   0.70934   0.49080   0.00000  Uiso   1.00
H963   H     0.71474   0.70064   0.45994   0.00000  Uiso   1.00
H964   H     0.71656   0.70018   0.51708   0.00000  Uiso   1.00
C965   C     0.90127   0.88765   0.39009   0.00000  Uiso   1.00
N966   N     0.92986   0.90995   0.41272   0.00000  Uiso   1.00
C967   C     0.76540   0.77902   0.60992   0.00000  Uiso   1.00
N968   N     0.73680   0.75671   0.58728   0.00000  Uiso   1.00
C969   C     0.89956   0.88898   0.62685   0.00000  Uiso   1.00
N970   N     0.92667   0.91255   0.61136   0.00000  Uiso   1.00
C971   C     0.76711   0.77768   0.37315   0.00000  Uiso   1.00
N972   N     0.74000   0.75411   0.38864   0.00000  Uiso   1.00
C973   C     0.16584   0.08689   0.83324   0.00000  Uiso   1.00
C974   C     0.16749   0.24645   0.83342   0.00000  Uiso   1.00
C975   C     0.06733   0.16627   0.82163   0.00000  Uiso   1.00
C976   C     0.26601   0.16706   0.84503   0.00000  Uiso   1.00
C977   C     0.01276   0.16048   0.81633   0.00000  Uiso   1.00
C978   C     0.32057   0.17286   0.85033   0.00000  Uiso   1.00
C979   C     0.21429   0.02313   0.83766   0.00000  Uiso   1.00
C980   C     0.11904   0.31021   0.82901   0.00000  Uiso   1.00
C981   C     0.21484   0.31279   0.83775   0.00000  Uiso   1.00
C982   C     0.11849   0.02054   0.82891   0.00000  Uiso   1.00
C983   C     0.16718   0.29059   0.83334   0.00000  Uiso   1.00
C984   C     0.16615   0.04274   0.83332   0.00000  Uiso   1.00
C985   C     0.19934   0.19323   0.69478   0.00000  Uiso   1.00
C986   C     0.13400   0.14011   0.97189   0.00000  Uiso   1.00
C987   C     0.19915   0.19335   0.98009   0.00000  Uiso   1.00
C988   C     0.13419   0.13998   0.68658   0.00000  Uiso   1.00
N989   N     0.16665   0.16666   0.95240   0.00000  Uiso   1.00
N990   N     0.16668   0.16668   0.71427   0.00000  Uiso   1.00
O991   O     0.16666   0.10558   0.87154   0.00000  Uiso   1.00
O992   O     0.16667   0.22775   0.79513   0.00000  Uiso   1.00
O993   O     0.16666   0.10559   0.79510   0.00000  Uiso   1.00
O994   O     0.16667   0.22774   0.87157   0.00000  Uiso   1.00
O995   O     0.09058   0.16666   0.86261   0.00000  Uiso   1.00
O996   O     0.24275   0.16667   0.80405   0.00000  Uiso   1.00
O997   O     0.09058   0.16667   0.78617   0.00000  Uiso   1.00
O998   O     0.24275   0.16666   0.88050   0.00000  Uiso   1.00
Zn999  Zn    0.16667   0.16666   0.88437   0.00000  Uiso   1.00
Zn1000 Zn    0.16667   0.16667   0.78229   0.00000  Uiso   1.00
N1001  N     0.32105   0.13722   0.77727   0.00000  Uiso   1.00
H1002  H     0.32813   0.15304   0.74784   0.00000  Uiso   1.00
H1003  H     0.00432   0.10759   0.77759   0.00000  Uiso   1.00
N1004  N     0.01228   0.19611   0.88940   0.00000  Uiso   1.00
H1005  H     0.00520   0.18029   0.91882   0.00000  Uiso   1.00
H1006  H     0.32901   0.22574   0.88908   0.00000  Uiso   1.00
N1007  N     0.26176   0.04795   0.84182   0.00000  Uiso   1.00
H1008  H     0.28167   0.04059   0.81486   0.00000  Uiso   1.00
H1009  H     0.28497   0.04033   0.87236   0.00000  Uiso   1.00
N1010  N     0.07158   0.28539   0.82485   0.00000  Uiso   1.00
H1011  H     0.05167   0.29274   0.85182   0.00000  Uiso   1.00
H1012  H     0.04836   0.29300   0.79431   0.00000  Uiso   1.00
N1013  N     0.26296   0.29066   0.84253   0.00000  Uiso   1.00
H1014  H     0.28526   0.29936   0.87339   0.00000  Uiso   1.00
H1015  H     0.28344   0.29982   0.81625   0.00000  Uiso   1.00
N1016  N     0.07037   0.04267   0.82414   0.00000  Uiso   1.00
H1017  H     0.04808   0.03397   0.79328   0.00000  Uiso   1.00
H1018  H     0.04989   0.03351   0.85042   0.00000  Uiso   1.00
C1019  C     0.23460   0.22098   0.72342   0.00000  Uiso   1.00
N1020  N     0.26320   0.24329   0.74606   0.00000  Uiso   1.00
C1021  C     0.09873   0.11235   0.94325   0.00000  Uiso   1.00
N1022  N     0.07014   0.09005   0.92061   0.00000  Uiso   1.00
C1023  C     0.23289   0.22232   0.96018   0.00000  Uiso   1.00
N1024  N     0.26001   0.24589   0.94469   0.00000  Uiso   1.00
C1025  C     0.10044   0.11101   0.70648   0.00000  Uiso   1.00
N1026  N     0.07333   0.08745   0.72198   0.00000  Uiso   1.00
C1027  C     0.49917   0.08689   0.83324   0.00000  Uiso   1.00
C1028  C     0.50083   0.24645   0.83342   0.00000  Uiso   1.00
C1029  C     0.40066   0.16627   0.82163   0.00000  Uiso   1.00
C1030  C     0.59934   0.16706   0.84503   0.00000  Uiso   1.00
C1031  C     0.34609   0.16048   0.81633   0.00000  Uiso   1.00
C1032  C     0.65391   0.17286   0.85033   0.00000  Uiso   1.00
C1033  C     0.54762   0.02313   0.83766   0.00000  Uiso   1.00
C1034  C     0.45238   0.31021   0.82901   0.00000  Uiso   1.00
C1035  C     0.54817   0.31279   0.83775   0.00000  Uiso   1.00
C1036  C     0.45183   0.02054   0.82891   0.00000  Uiso   1.00
C1037  C     0.50051   0.29059   0.83334   0.00000  Uiso   1.00
C1038  C     0.49949   0.04274   0.83332   0.00000  Uiso   1.00
C1039  C     0.53267   0.19323   0.69478   0.00000  Uiso   1.00
C1040  C     0.46733   0.14011   0.97189   0.00000  Uiso   1.00
C1041  C     0.53248   0.19335   0.98009   0.00000  Uiso   1.00
C1042  C     0.46752   0.13998   0.68658   0.00000  Uiso   1.00
N1043  N     0.49999   0.16666   0.95240   0.00000  Uiso   1.00
N1044  N     0.50001   0.16668   0.71427   0.00000  Uiso   1.00
O1045  O     0.50000   0.10558   0.87154   0.00000  Uiso   1.00
O1046  O     0.50000   0.22775   0.79513   0.00000  Uiso   1.00
O1047  O     0.50000   0.10559   0.79510   0.00000  Uiso   1.00
O1048  O     0.50000   0.22774   0.87157   0.00000  Uiso   1.00
O1049  O     0.42392   0.16666   0.86261   0.00000  Uiso   1.00
O1050  O     0.57608   0.16667   0.80405   0.00000  Uiso   1.00
O1051  O     0.42392   0.16667   0.78617   0.00000  Uiso   1.00
O1052  O     0.57608   0.16666   0.88050   0.00000  Uiso   1.00
Zn1053 Zn    0.50000   0.16666   0.88437   0.00000  Uiso   1.00
Zn1054 Zn    0.50000   0.16667   0.78229   0.00000  Uiso   1.00
N1055  N     0.65439   0.13722   0.77727   0.00000  Uiso   1.00
H1056  H     0.66146   0.15304   0.74784   0.00000  Uiso   1.00
H1057  H     0.33766   0.10759   0.77759   0.00000  Uiso   1.00
N1058  N     0.34561   0.19611   0.88940   0.00000  Uiso   1.00
H1059  H     0.33854   0.18029   0.91882   0.00000  Uiso   1.00
H1060  H     0.66234   0.22574   0.88908   0.00000  Uiso   1.00
N1061  N     0.59509   0.04795   0.84182   0.00000  Uiso   1.00
H1062  H     0.61501   0.04059   0.81486   0.00000  Uiso   1.00
H1063  H     0.61830   0.04033   0.87236   0.00000  Uiso   1.00
N1064  N     0.40491   0.28539   0.82485   0.00000  Uiso   1.00
H1065  H     0.38500   0.29274   0.85182   0.00000  Uiso   1.00
H1066  H     0.38169   0.29300   0.79431   0.00000  Uiso   1.00
N1067  N     0.59630   0.29066   0.84253   0.00000  Uiso   1.00
H1068  H     0.61859   0.29936   0.87339   0.00000  Uiso   1.00
H1069  H     0.61677   0.29982   0.81625   0.00000  Uiso   1.00
N1070  N     0.40370   0.04267   0.82414   0.00000  Uiso   1.00
H1071  H     0.38141   0.03397   0.79328   0.00000  Uiso   1.00
H1072  H     0.38323   0.03351   0.85042   0.00000  Uiso   1.00
C1073  C     0.56794   0.22098   0.72342   0.00000  Uiso   1.00
N1074  N     0.59653   0.24329   0.74606   0.00000  Uiso   1.00
C1075  C     0.43206   0.11235   0.94325   0.00000  Uiso   1.00
N1076  N     0.40347   0.09005   0.92061   0.00000  Uiso   1.00
C1077  C     0.56623   0.22232   0.96018   0.00000  Uiso   1.00
N1078  N     0.59334   0.24589   0.94469   0.00000  Uiso   1.00
C1079  C     0.43377   0.11101   0.70648   0.00000  Uiso   1.00
N1080  N     0.40666   0.08745   0.72198   0.00000  Uiso   1.00
C1081  C     0.83251   0.08689   0.83324   0.00000  Uiso   1.00
C1082  C     0.83416   0.24645   0.83342   0.00000  Uiso   1.00
C1083  C     0.73399   0.16627   0.82163   0.00000  Uiso   1.00
C1084  C     0.93267   0.16706   0.84503   0.00000  Uiso   1.00
C1085  C     0.67943   0.16048   0.81633   0.00000  Uiso   1.00
C1086  C     0.98724   0.17286   0.85033   0.00000  Uiso   1.00
C1087  C     0.88096   0.02313   0.83766   0.00000  Uiso   1.00
C1088  C     0.78571   0.31021   0.82901   0.00000  Uiso   1.00
C1089  C     0.88151   0.31279   0.83775   0.00000  Uiso   1.00
C1090  C     0.78516   0.02054   0.82891   0.00000  Uiso   1.00
C1091  C     0.83385   0.29059   0.83334   0.00000  Uiso   1.00
C1092  C     0.83282   0.04274   0.83332   0.00000  Uiso   1.00
C1093  C     0.86600   0.19323   0.69478   0.00000  Uiso   1.00
C1094  C     0.80066   0.14011   0.97189   0.00000  Uiso   1.00
C1095  C     0.86581   0.19335   0.98009   0.00000  Uiso   1.00
C1096  C     0.80085   0.13998   0.68658   0.00000  Uiso   1.00
N1097  N     0.83332   0.16666   0.95240   0.00000  Uiso   1.00
N1098  N     0.83335   0.16668   0.71427   0.00000  Uiso   1.00
O1099  O     0.83333   0.10558   0.87154   0.00000  Uiso   1.00
O1100  O     0.83334   0.22775   0.79513   0.00000  Uiso   1.00
O1101  O     0.83333   0.10559   0.79510   0.00000  Uiso   1.00
O1102  O     0.83334   0.22774   0.87157   0.00000  Uiso   1.00
O1103  O     0.75725   0.16666   0.86261   0.00000  Uiso   1.00
O1104  O     0.90942   0.16667   0.80405   0.00000  Uiso   1.00
O1105  O     0.75725   0.16667   0.78617   0.00000  Uiso   1.00
O1106  O     0.90942   0.16666   0.88050   0.00000  Uiso   1.00
Zn1107 Zn    0.83333   0.16666   0.88437   0.00000  Uiso   1.00
Zn1108 Zn    0.83333   0.16667   0.78229   0.00000  Uiso   1.00
N1109  N     0.98772   0.13722   0.77727   0.00000  Uiso   1.00
H1110  H     0.99480   0.15304   0.74784   0.00000  Uiso   1.00
H1111  H     0.67099   0.10759   0.77759   0.00000  Uiso   1.00
N1112  N     0.67895   0.19611   0.88940   0.00000  Uiso   1.00
H1113  H     0.67187   0.18029   0.91882   0.00000  Uiso   1.00
H1114  H     0.99568   0.22574   0.88908   0.00000  Uiso   1.00
N1115  N     0.92842   0.04795   0.84182   0.00000  Uiso   1.00
H1116  H     0.94834   0.04059   0.81486   0.00000  Uiso   1.00
H1117  H     0.95164   0.04033   0.87236   0.00000  Uiso   1.00
N1118  N     0.73824   0.28539   0.82485   0.00000  Uiso   1.00
H1119  H     0.71833   0.29274   0.85182   0.00000  Uiso   1.00
H1120  H     0.71502   0.29300   0.79431   0.00000  Uiso   1.00
N1121  N     0.92963   0.29066   0.84253   0.00000  Uiso   1.00
H1122  H     0.95192   0.29936   0.87339   0.00000  Uiso   1.00
H1123  H     0.95011   0.29982   0.81625   0.00000  Uiso   1.00
N1124  N     0.73704   0.04267   0.82414   0.00000  Uiso   1.00
H1125  H     0.71474   0.03397   0.79328   0.00000  Uiso   1.00
H1126  H     0.71656   0.03351   0.85042   0.00000  Uiso   1.00
C1127  C     0.90127   0.22098   0.72342   0.00000  Uiso   1.00
N1128  N     0.92986   0.24329   0.74606   0.00000  Uiso   1.00
C1129  C     0.76540   0.11235   0.94325   0.00000  Uiso   1.00
N1130  N     0.73680   0.09005   0.92061   0.00000  Uiso   1.00
C1131  C     0.89956   0.22232   0.96018   0.00000  Uiso   1.00
N1132  N     0.92667   0.24589   0.94469   0.00000  Uiso   1.00
C1133  C     0.76711   0.11101   0.70648   0.00000  Uiso   1.00
N1134  N     0.74000   0.08745   0.72198   0.00000  Uiso   1.00
C1135  C     0.16584   0.42022   0.83324   0.00000  Uiso   1.00
C1136  C     0.16749   0.57978   0.83342   0.00000  Uiso   1.00
C1137  C     0.06733   0.49960   0.82163   0.00000  Uiso   1.00
C1138  C     0.26601   0.50040   0.84503   0.00000  Uiso   1.00
C1139  C     0.01276   0.49381   0.81633   0.00000  Uiso   1.00
C1140  C     0.32057   0.50619   0.85033   0.00000  Uiso   1.00
C1141  C     0.21429   0.35646   0.83766   0.00000  Uiso   1.00
C1142  C     0.11904   0.64354   0.82901   0.00000  Uiso   1.00
C1143  C     0.21484   0.64612   0.83775   0.00000  Uiso   1.00
C1144  C     0.11849   0.35388   0.82891   0.00000  Uiso   1.00
C1145  C     0.16718   0.62392   0.83334   0.00000  Uiso   1.00
C1146  C     0.16615   0.37608   0.83332   0.00000  Uiso   1.00
C1147  C     0.19934   0.52656   0.69478   0.00000  Uiso   1.00
C1148  C     0.13400   0.47344   0.97189   0.00000  Uiso   1.00
C1149  C     0.19915   0.52669   0.98009   0.00000  Uiso   1.00
C1150  C     0.13419   0.47331   0.68658   0.00000  Uiso   1.00
N1151  N     0.16665   0.49999   0.95240   0.00000  Uiso   1.00
N1152  N     0.16668   0.50001   0.71427   0.00000  Uiso   1.00
O1153  O     0.16666   0.43892   0.87154   0.00000  Uiso   1.00
O1154  O     0.16667   0.56108   0.79513   0.00000  Uiso   1.00
O1155  O     0.16666   0.43893   0.79510   0.00000  Uiso   1.00
O1156  O     0.16667   0.56107   0.87157   0.00000  Uiso   1.00
O1157  O     0.09058   0.50000   0.86261   0.00000  Uiso   1.00
O1158  O     0.24275   0.50000   0.80405   0.00000  Uiso   1.00
O1159  O     0.09058   0.50000   0.78617   0.00000  Uiso   1.00
O1160  O     0.24275   0.50000   0.88050   0.00000  Uiso   1.00
Zn1161 Zn    0.16667   0.49999   0.88437   0.00000  Uiso   1.00
Zn1162 Zn    0.16667   0.50001   0.78229   0.00000  Uiso   1.00
N1163  N     0.32105   0.47056   0.77727   0.00000  Uiso   1.00
H1164  H     0.32813   0.48637   0.74784   0.00000  Uiso   1.00
H1165  H     0.00432   0.44093   0.77759   0.00000  Uiso   1.00
N1166  N     0.01228   0.52944   0.88940   0.00000  Uiso   1.00
H1167  H     0.00520   0.51363   0.91882   0.00000  Uiso   1.00
H1168  H     0.32901   0.55907   0.88908   0.00000  Uiso   1.00
N1169  N     0.26176   0.38128   0.84182   0.00000  Uiso   1.00
H1170  H     0.28167   0.37392   0.81486   0.00000  Uiso   1.00
H1171  H     0.28497   0.37367   0.87236   0.00000  Uiso   1.00
N1172  N     0.07158   0.61872   0.82485   0.00000  Uiso   1.00
H1173  H     0.05167   0.62608   0.85182   0.00000  Uiso   1.00
H1174  H     0.04836   0.62634   0.79431   0.00000  Uiso   1.00
N1175  N     0.26296   0.62399   0.84253   0.00000  Uiso   1.00
H1176  H     0.28526   0.63269   0.87339   0.00000  Uiso   1.00
H1177  H     0.28344   0.63316   0.81625   0.00000  Uiso   1.00
N1178  N     0.07037   0.37601   0.82414   0.00000  Uiso   1.00
H1179  H     0.04808   0.36731   0.79328   0.00000  Uiso   1.00
H1180  H     0.04989   0.36684   0.85042   0.00000  Uiso   1.00
C1181  C     0.23460   0.55431   0.72342   0.00000  Uiso   1.00
N1182  N     0.26320   0.57662   0.74606   0.00000  Uiso   1.00
C1183  C     0.09873   0.44569   0.94325   0.00000  Uiso   1.00
N1184  N     0.07014   0.42338   0.92061   0.00000  Uiso   1.00
C1185  C     0.23289   0.55565   0.96018   0.00000  Uiso   1.00
N1186  N     0.26001   0.57922   0.94469   0.00000  Uiso   1.00
C1187  C     0.10044   0.44435   0.70648   0.00000  Uiso   1.00
N1188  N     0.07333   0.42078   0.72198   0.00000  Uiso   1.00
C1189  C     0.49917   0.42022   0.83324   0.00000  Uiso   1.00
C1190  C     0.50083   0.57978   0.83342   0.00000  Uiso   1.00
C1191  C     0.40066   0.49960   0.82163   0.00000  Uiso   1.00
C1192  C     0.59934   0.50040   0.84503   0.00000  Uiso   1.00
C1193  C     0.34609   0.49381   0.81633   0.00000  Uiso   1.00
C1194  C     0.65391   0.50619   0.85033   0.00000  Uiso   1.00
C1195  C     0.54762   0.35646   0.83766   0.00000  Uiso   1.00
C1196  C     0.45238   0.64354   0.82901   0.00000  Uiso   1.00
C1197  C     0.54817   0.64612   0.83775   0.00000  Uiso   1.00
C1198  C     0.45183   0.35388   0.82891   0.00000  Uiso   1.00
C1199  C     0.50051   0.62392   0.83334   0.00000  Uiso   1.00
C1200  C     0.49949   0.37608   0.83332   0.00000  Uiso   1.00
C1201  C     0.53267   0.52656   0.69478   0.00000  Uiso   1.00
C1202  C     0.46733   0.47344   0.97189   0.00000  Uiso   1.00
C1203  C     0.53248   0.52669   0.98009   0.00000  Uiso   1.00
C1204  C     0.46752   0.47331   0.68658   0.00000  Uiso   1.00
N1205  N     0.49999   0.49999   0.95240   0.00000  Uiso   1.00
N1206  N     0.50001   0.50001   0.71427   0.00000  Uiso   1.00
O1207  O     0.50000   0.43892   0.87154   0.00000  Uiso   1.00
O1208  O     0.50000   0.56108   0.79513   0.00000  Uiso   1.00
O1209  O     0.50000   0.43893   0.79510   0.00000  Uiso   1.00
O1210  O     0.50000   0.56107   0.87157   0.00000  Uiso   1.00
O1211  O     0.42392   0.50000   0.86261   0.00000  Uiso   1.00
O1212  O     0.57608   0.50000   0.80405   0.00000  Uiso   1.00
O1213  O     0.42392   0.50000   0.78617   0.00000  Uiso   1.00
O1214  O     0.57608   0.50000   0.88050   0.00000  Uiso   1.00
Zn1215 Zn    0.50000   0.49999   0.88437   0.00000  Uiso   1.00
Zn1216 Zn    0.50000   0.50001   0.78229   0.00000  Uiso   1.00
N1217  N     0.65439   0.47056   0.77727   0.00000  Uiso   1.00
H1218  H     0.66146   0.48637   0.74784   0.00000  Uiso   1.00
H1219  H     0.33766   0.44093   0.77759   0.00000  Uiso   1.00
N1220  N     0.34561   0.52944   0.88940   0.00000  Uiso   1.00
H1221  H     0.33854   0.51363   0.91882   0.00000  Uiso   1.00
H1222  H     0.66234   0.55907   0.88908   0.00000  Uiso   1.00
N1223  N     0.59509   0.38128   0.84182   0.00000  Uiso   1.00
H1224  H     0.61501   0.37392   0.81486   0.00000  Uiso   1.00
H1225  H     0.61830   0.37367   0.87236   0.00000  Uiso   1.00
N1226  N     0.40491   0.61872   0.82485   0.00000  Uiso   1.00
H1227  H     0.38500   0.62608   0.85182   0.00000  Uiso   1.00
H1228  H     0.38169   0.62634   0.79431   0.00000  Uiso   1.00
N1229  N     0.59630   0.62399   0.84253   0.00000  Uiso   1.00
H1230  H     0.61859   0.63269   0.87339   0.00000  Uiso   1.00
H1231  H     0.61677   0.63316   0.81625   0.00000  Uiso   1.00
N1232  N     0.40370   0.37601   0.82414   0.00000  Uiso   1.00
H1233  H     0.38141   0.36731   0.79328   0.00000  Uiso   1.00
H1234  H     0.38323   0.36684   0.85042   0.00000  Uiso   1.00
C1235  C     0.56794   0.55431   0.72342   0.00000  Uiso   1.00
N1236  N     0.59653   0.57662   0.74606   0.00000  Uiso   1.00
C1237  C     0.43206   0.44569   0.94325   0.00000  Uiso   1.00
N1238  N     0.40347   0.42338   0.92061   0.00000  Uiso   1.00
C1239  C     0.56623   0.55565   0.96018   0.00000  Uiso   1.00
N1240  N     0.59334   0.57922   0.94469   0.00000  Uiso   1.00
C1241  C     0.43377   0.44435   0.70648   0.00000  Uiso   1.00
N1242  N     0.40666   0.42078   0.72198   0.00000  Uiso   1.00
C1243  C     0.83251   0.42022   0.83324   0.00000  Uiso   1.00
C1244  C     0.83416   0.57978   0.83342   0.00000  Uiso   1.00
C1245  C     0.73399   0.49960   0.82163   0.00000  Uiso   1.00
C1246  C     0.93267   0.50040   0.84503   0.00000  Uiso   1.00
C1247  C     0.67943   0.49381   0.81633   0.00000  Uiso   1.00
C1248  C     0.98724   0.50619   0.85033   0.00000  Uiso   1.00
C1249  C     0.88096   0.35646   0.83766   0.00000  Uiso   1.00
C1250  C     0.78571   0.64354   0.82901   0.00000  Uiso   1.00
C1251  C     0.88151   0.64612   0.83775   0.00000  Uiso   1.00
C1252  C     0.78516   0.35388   0.82891   0.00000  Uiso   1.00
C1253  C     0.83385   0.62392   0.83334   0.00000  Uiso   1.00
C1254  C     0.83282   0.37608   0.83332   0.00000  Uiso   1.00
C1255  C     0.86600   0.52656   0.69478   0.00000  Uiso   1.00
C1256  C     0.80066   0.47344   0.97189   0.00000  Uiso   1.00
C1257  C     0.86581   0.52669   0.98009   0.00000  Uiso   1.00
C1258  C     0.80085   0.47331   0.68658   0.00000  Uiso   1.00
N1259  N     0.83332   0.49999   0.95240   0.00000  Uiso   1.00
N1260  N     0.83335   0.50001   0.71427   0.00000  Uiso   1.00
O1261  O     0.83333   0.43892   0.87154   0.00000  Uiso   1.00
O1262  O     0.83334   0.56108   0.79513   0.00000  Uiso   1.00
O1263  O     0.83333   0.43893   0.79510   0.00000  Uiso   1.00
O1264  O     0.83334   0.56107   0.87157   0.00000  Uiso   1.00
O1265  O     0.75725   0.50000   0.86261   0.00000  Uiso   1.00
O1266  O     0.90942   0.50000   0.80405   0.00000  Uiso   1.00
O1267  O     0.75725   0.50000   0.78617   0.00000  Uiso   1.00
O1268  O     0.90942   0.50000   0.88050   0.00000  Uiso   1.00
Zn1269 Zn    0.83333   0.49999   0.88437   0.00000  Uiso   1.00
Zn1270 Zn    0.83333   0.50001   0.78229   0.00000  Uiso   1.00
N1271  N     0.98772   0.47056   0.77727   0.00000  Uiso   1.00
H1272  H     0.99480   0.48637   0.74784   0.00000  Uiso   1.00
H1273  H     0.67099   0.44093   0.77759   0.00000  Uiso   1.00
N1274  N     0.67895   0.52944   0.88940   0.00000  Uiso   1.00
H1275  H     0.67187   0.51363   0.91882   0.00000  Uiso   1.00
H1276  H     0.99568   0.55907   0.88908   0.00000  Uiso   1.00
N1277  N     0.92842   0.38128   0.84182   0.00000  Uiso   1.00
H1278  H     0.94834   0.37392   0.81486   0.00000  Uiso   1.00
H1279  H     0.95164   0.37367   0.87236   0.00000  Uiso   1.00
N1280  N     0.73824   0.61872   0.82485   0.00000  Uiso   1.00
H1281  H     0.71833   0.62608   0.85182   0.00000  Uiso   1.00
H1282  H     0.71502   0.62634   0.79431   0.00000  Uiso   1.00
N1283  N     0.92963   0.62399   0.84253   0.00000  Uiso   1.00
H1284  H     0.95192   0.63269   0.87339   0.00000  Uiso   1.00
H1285  H     0.95011   0.63316   0.81625   0.00000  Uiso   1.00
N1286  N     0.73704   0.37601   0.82414   0.00000  Uiso   1.00
H1287  H     0.71474   0.36731   0.79328   0.00000  Uiso   1.00
H1288  H     0.71656   0.36684   0.85042   0.00000  Uiso   1.00
C1289  C     0.90127   0.55431   0.72342   0.00000  Uiso   1.00
N1290  N     0.92986   0.57662   0.74606   0.00000  Uiso   1.00
C1291  C     0.76540   0.44569   0.94325   0.00000  Uiso   1.00
N1292  N     0.73680   0.42338   0.92061   0.00000  Uiso   1.00
C1293  C     0.89956   0.55565   0.96018   0.00000  Uiso   1.00
N1294  N     0.92667   0.57922   0.94469   0.00000  Uiso   1.00
C1295  C     0.76711   0.44435   0.70648   0.00000  Uiso   1.00
N1296  N     0.74000   0.42078   0.72198   0.00000  Uiso   1.00
C1297  C     0.16584   0.75355   0.83324   0.00000  Uiso   1.00
C1298  C     0.16749   0.91311   0.83342   0.00000  Uiso   1.00
C1299  C     0.06733   0.83294   0.82163   0.00000  Uiso   1.00
C1300  C     0.26601   0.83373   0.84503   0.00000  Uiso   1.00
C1301  C     0.01276   0.82714   0.81633   0.00000  Uiso   1.00
C1302  C     0.32057   0.83952   0.85033   0.00000  Uiso   1.00
C1303  C     0.21429   0.68979   0.83766   0.00000  Uiso   1.00
C1304  C     0.11904   0.97687   0.82901   0.00000  Uiso   1.00
C1305  C     0.21484   0.97946   0.83775   0.00000  Uiso   1.00
C1306  C     0.11849   0.68721   0.82891   0.00000  Uiso   1.00
C1307  C     0.16718   0.95726   0.83334   0.00000  Uiso   1.00
C1308  C     0.16615   0.70941   0.83332   0.00000  Uiso   1.00
C1309  C     0.19934   0.85989   0.69478   0.00000  Uiso   1.00
C1310  C     0.13400   0.80677   0.97189   0.00000  Uiso   1.00
C1311  C     0.19915   0.86002   0.98009   0.00000  Uiso   1.00
C1312  C     0.13419   0.80665   0.68658   0.00000  Uiso   1.00
N1313  N     0.16665   0.83332   0.95240   0.00000  Uiso   1.00
N1314  N     0.16668   0.83334   0.71427   0.00000  Uiso   1.00
O1315  O     0.16666   0.77225   0.87154   0.00000  Uiso   1.00
O1316  O     0.16667   0.89442   0.79513   0.00000  Uiso   1.00
O1317  O     0.16666   0.77226   0.79510   0.00000  Uiso   1.00
O1318  O     0.16667   0.89441   0.87157   0.00000  Uiso   1.00
O1319  O     0.09058   0.83333   0.86261   0.00000  Uiso   1.00
O1320  O     0.24275   0.83334   0.80405   0.00000  Uiso   1.00
O1321  O     0.09058   0.83334   0.78617   0.00000  Uiso   1.00
O1322  O     0.24275   0.83333   0.88050   0.00000  Uiso   1.00
Zn1323 Zn    0.16667   0.83333   0.88437   0.00000  Uiso   1.00
Zn1324 Zn    0.16667   0.83334   0.78229   0.00000  Uiso   1.00
N1325  N     0.32105   0.80389   0.77727   0.00000  Uiso   1.00
H1326  H     0.32813   0.81971   0.74784   0.00000  Uiso   1.00
H1327  H     0.00432   0.77426   0.77759   0.00000  Uiso   1.00
N1328  N     0.01228   0.86278   0.88940   0.00000  Uiso   1.00
H1329  H     0.00520   0.84696   0.91882   0.00000  Uiso   1.00
H1330  H     0.32901   0.89241   0.88908   0.00000  Uiso   1.00
N1331  N     0.26176   0.71461   0.84182   0.00000  Uiso   1.00
H1332  H     0.28167   0.70725   0.81486   0.00000  Uiso   1.00
H1333  H     0.28497   0.70700   0.87236   0.00000  Uiso   1.00
N1334  N     0.07158   0.95206   0.82485   0.00000  Uiso   1.00
H1335  H     0.05167   0.95941   0.85182   0.00000  Uiso   1.00
H1336  H     0.04836   0.95967   0.79431   0.00000  Uiso   1.00
N1337  N     0.26296   0.95733   0.84253   0.00000  Uiso   1.00
H1338  H     0.28526   0.96603   0.87339   0.00000  Uiso   1.00
H1339  H     0.28344   0.96649   0.81625   0.00000  Uiso   1.00
N1340  N     0.07037   0.70934   0.82414   0.00000  Uiso   1.00
H1341  H     0.04808   0.70064   0.79328   0.00000  Uiso   1.00
H1342  H     0.04989   0.70018   0.85042   0.00000  Uiso   1.00
C1343  C     0.23460   0.88765   0.72342   0.00000  Uiso   1.00
N1344  N     0.26320   0.90995   0.74606   0.00000  Uiso   1.00
C1345  C     0.09873   0.77902   0.94325   0.00000  Uiso   1.00
N1346  N     0.07014   0.75671   0.92061   0.00000  Uiso   1.00
C1347  C     0.23289   0.88898   0.96018   0.00000  Uiso   1.00
N1348  N     0.26001   0.91255   0.94469   0.00000  Uiso   1.00
C1349  C     0.10044   0.77768   0.70648   0.00000  Uiso   1.00
N1350  N     0.07333   0.75411   0.72198   0.00000  Uiso   1.00
C1351  C     0.49917   0.75355   0.83324   0.00000  Uiso   1.00
C1352  C     0.50083   0.91311   0.83342   0.00000  Uiso   1.00
C1353  C     0.40066   0.83294   0.82163   0.00000  Uiso   1.00
C1354  C     0.59934   0.83373   0.84503   0.00000  Uiso   1.00
C1355  C     0.34609   0.82714   0.81633   0.00000  Uiso   1.00
C1356  C     0.65391   0.83952   0.85033   0.00000  Uiso   1.00
C1357  C     0.54762   0.68979   0.83766   0.00000  Uiso   1.00
C1358  C     0.45238   0.97687   0.82901   0.00000  Uiso   1.00
C1359  C     0.54817   0.97946   0.83775   0.00000  Uiso   1.00
C1360  C     0.45183   0.68721   0.82891   0.00000  Uiso   1.00
C1361  C     0.50051   0.95726   0.83334   0.00000  Uiso   1.00
C1362  C     0.49949   0.70941   0.83332   0.00000  Uiso   1.00
C1363  C     0.53267   0.85989   0.69478   0.00000  Uiso   1.00
C1364  C     0.46733   0.80677   0.97189   0.00000  Uiso   1.00
C1365  C     0.53248   0.86002   0.98009   0.00000  Uiso   1.00
C1366  C     0.46752   0.80665   0.68658   0.00000  Uiso   1.00
N1367  N     0.49999   0.83332   0.95240   0.00000  Uiso   1.00
N1368  N     0.50001   0.83334   0.71427   0.00000  Uiso   1.00
O1369  O     0.50000   0.77225   0.87154   0.00000  Uiso   1.00
O1370  O     0.50000   0.89442   0.79513   0.00000  Uiso   1.00
O1371  O     0.50000   0.77226   0.79510   0.00000  Uiso   1.00
O1372  O     0.50000   0.89441   0.87157   0.00000  Uiso   1.00
O1373  O     0.42392   0.83333   0.86261   0.00000  Uiso   1.00
O1374  O     0.57608   0.83334   0.80405   0.00000  Uiso   1.00
O1375  O     0.42392   0.83334   0.78617   0.00000  Uiso   1.00
O1376  O     0.57608   0.83333   0.88050   0.00000  Uiso   1.00
Zn1377 Zn    0.50000   0.83333   0.88437   0.00000  Uiso   1.00
Zn1378 Zn    0.50000   0.83334   0.78229   0.00000  Uiso   1.00
N1379  N     0.65439   0.80389   0.77727   0.00000  Uiso   1.00
H1380  H     0.66146   0.81971   0.74784   0.00000  Uiso   1.00
H1381  H     0.33766   0.77426   0.77759   0.00000  Uiso   1.00
N1382  N     0.34561   0.86278   0.88940   0.00000  Uiso   1.00
H1383  H     0.33854   0.84696   0.91882   0.00000  Uiso   1.00
H1384  H     0.66234   0.89241   0.88908   0.00000  Uiso   1.00
N1385  N     0.59509   0.71461   0.84182   0.00000  Uiso   1.00
H1386  H     0.61501   0.70725   0.81486   0.00000  Uiso   1.00
H1387  H     0.61830   0.70700   0.87236   0.00000  Uiso   1.00
N1388  N     0.40491   0.95206   0.82485   0.00000  Uiso   1.00
H1389  H     0.38500   0.95941   0.85182   0.00000  Uiso   1.00
H1390  H     0.38169   0.95967   0.79431   0.00000  Uiso   1.00
N1391  N     0.59630   0.95733   0.84253   0.00000  Uiso   1.00
H1392  H     0.61859   0.96603   0.87339   0.00000  Uiso   1.00
H1393  H     0.61677   0.96649   0.81625   0.00000  Uiso   1.00
N1394  N     0.40370   0.70934   0.82414   0.00000  Uiso   1.00
H1395  H     0.38141   0.70064   0.79328   0.00000  Uiso   1.00
H1396  H     0.38323   0.70018   0.85042   0.00000  Uiso   1.00
C1397  C     0.56794   0.88765   0.72342   0.00000  Uiso   1.00
N1398  N     0.59653   0.90995   0.74606   0.00000  Uiso   1.00
C1399  C     0.43206   0.77902   0.94325   0.00000  Uiso   1.00
N1400  N     0.40347   0.75671   0.92061   0.00000  Uiso   1.00
C1401  C     0.56623   0.88898   0.96018   0.00000  Uiso   1.00
N1402  N     0.59334   0.91255   0.94469   0.00000  Uiso   1.00
C1403  C     0.43377   0.77768   0.70648   0.00000  Uiso   1.00
N1404  N     0.40666   0.75411   0.72198   0.00000  Uiso   1.00
C1405  C     0.83251   0.75355   0.83324   0.00000  Uiso   1.00
C1406  C     0.83416   0.91311   0.83342   0.00000  Uiso   1.00
C1407  C     0.73399   0.83294   0.82163   0.00000  Uiso   1.00
C1408  C     0.93267   0.83373   0.84503   0.00000  Uiso   1.00
C1409  C     0.67943   0.82714   0.81633   0.00000  Uiso   1.00
C1410  C     0.98724   0.83952   0.85033   0.00000  Uiso   1.00
C1411  C     0.88096   0.68979   0.83766   0.00000  Uiso   1.00
C1412  C     0.78571   0.97687   0.82901   0.00000  Uiso   1.00
C1413  C     0.88151   0.97946   0.83775   0.00000  Uiso   1.00
C1414  C     0.78516   0.68721   0.82891   0.00000  Uiso   1.00
C1415  C     0.83385   0.95726   0.83334   0.00000  Uiso   1.00
C1416  C     0.83282   0.70941   0.83332   0.00000  Uiso   1.00
C1417  C     0.86600   0.85989   0.69478   0.00000  Uiso   1.00
C1418  C     0.80066   0.80677   0.97189   0.00000  Uiso   1.00
C1419  C     0.86581   0.86002   0.98009   0.00000  Uiso   1.00
C1420  C     0.80085   0.80665   0.68658   0.00000  Uiso   1.00
N1421  N     0.83332   0.83332   0.95240   0.00000  Uiso   1.00
N1422  N     0.83335   0.83334   0.71427   0.00000  Uiso   1.00
O1423  O     0.83333   0.77225   0.87154   0.00000  Uiso   1.00
O1424  O     0.83334   0.89442   0.79513   0.00000  Uiso   1.00
O1425  O     0.83333   0.77226   0.79510   0.00000  Uiso   1.00
O1426  O     0.83334   0.89441   0.87157   0.00000  Uiso   1.00
O1427  O     0.75725   0.83333   0.86261   0.00000  Uiso   1.00
O1428  O     0.90942   0.83334   0.80405   0.00000  Uiso   1.00
O1429  O     0.75725   0.83334   0.78617   0.00000  Uiso   1.00
O1430  O     0.90942   0.83333   0.88050   0.00000  Uiso   1.00
Zn1431 Zn    0.83333   0.83333   0.88437   0.00000  Uiso   1.00
Zn1432 Zn    0.83333   0.83334   0.78229   0.00000  Uiso   1.00
N1433  N     0.98772   0.80389   0.77727   0.00000  Uiso   1.00
H1434  H     0.99480   0.81971   0.74784   0.00000  Uiso   1.00
H1435  H     0.67099   0.77426   0.77759   0.00000  Uiso   1.00
N1436  N     0.67895   0.86278   0.88940   0.00000  Uiso   1.00
H1437  H     0.67187   0.84696   0.91882   0.00000  Uiso   1.00
H1438  H     0.99568   0.89241   0.88908   0.00000  Uiso   1.00
N1439  N     0.92842   0.71461   0.84182   0.00000  Uiso   1.00
H1440  H     0.94834   0.70725   0.81486   0.00000  Uiso   1.00
H1441  H     0.95164   0.70700   0.87236   0.00000  Uiso   1.00
N1442  N     0.73824   0.95206   0.82485   0.00000  Uiso   1.00
H1443  H     0.71833   0.95941   0.85182   0.00000  Uiso   1.00
H1444  H     0.71502   0.95967   0.79431   0.00000  Uiso   1.00
N1445  N     0.92963   0.95733   0.84253   0.00000  Uiso   1.00
H1446  H     0.95192   0.96603   0.87339   0.00000  Uiso   1.00
H1447  H     0.95011   0.96649   0.81625   0.00000  Uiso   1.00
N1448  N     0.73704   0.70934   0.82414   0.00000  Uiso   1.00
H1449  H     0.71474   0.70064   0.79328   0.00000  Uiso   1.00
H1450  H     0.71656   0.70018   0.85042   0.00000  Uiso   1.00
C1451  C     0.90127   0.88765   0.72342   0.00000  Uiso   1.00
N1452  N     0.92986   0.90995   0.74606   0.00000  Uiso   1.00
C1453  C     0.76540   0.77902   0.94325   0.00000  Uiso   1.00
N1454  N     0.73680   0.75671   0.92061   0.00000  Uiso   1.00
C1455  C     0.89956   0.88898   0.96018   0.00000  Uiso   1.00
N1456  N     0.92667   0.91255   0.94469   0.00000  Uiso   1.00
C1457  C     0.76711   0.77768   0.70648   0.00000  Uiso   1.00
N1458  N     0.74000   0.75411   0.72198   0.00000  Uiso   1.00
loop_
_geom_bond_atom_site_label_1
_geom_bond_atom_site_label_2
_geom_bond_distance
_geom_bond_site_symmetry_2
_ccdc_geom_bond_type
C1     O21     1.283   .     A
C1     C12     1.404   .     S
C1     O19     1.283   .     A
C2     O22     1.283   .     A
C2     C11     1.404   .     S
C2     O20     1.283   .     A
C3     O23     1.278   .     A
C3     O25     1.289   .     A
C3     C5      1.409   .     S
C4     O26     1.289   .     A
C4     C6      1.409   .     S
C4     O24     1.278   .     A
C5     C114    1.351   1_455 S
C5     N137    1.442   1_455 S
C6     C59     1.351   .     S
C6     N86     1.442   .     S
C7     C12     1.398   .     A
C7     N35     1.437   .     S
C7     C333    1.389   1_545 S
C8     N38     1.437   .     S
C8     C11     1.398   .     A
C8     C172    1.389   .     S
C9     N41     1.436   .     S
C9     C11     1.399   .     A
C9     C169    1.389   .     S
C10    C12     1.399   .     A
C10    N44     1.436   .     S
C10    C332    1.389   1_545 S
C13    N18     1.369   .     A
C13    C47     1.442   .     S
C13    C987    1.427   1_554 S
C14    N17     1.369   .     A
C14    C49     1.442   .     S
C14    C502    1.427   .     S
C15    C51     1.441   .     S
C15    N17     1.370   .     A
C15    C499    1.427   .     S
C16    N18     1.370   .     A
C16    C53     1.441   .     S
C16    C986    1.427   1_554 S
N17    Zn27    2.023   .     S
N18    Zn28    2.023   .     S
O19    Zn27    1.981   .     S
O20    Zn28    1.981   .     S
O21    Zn28    1.979   .     S
O22    Zn27    1.979   .     S
O23    Zn27    1.985   .     S
O24    Zn28    1.985   .     S
O25    Zn28    1.994   .     S
O26    Zn27    1.994   .     S
N29    H30     1.046   .     S
N29    C59     1.442   .     S
N29    H85     1.045   .     S
H31    N137    1.045   1_455 S
N32    H33     1.046   .     S
N32    C114    1.442   1_455 S
N32    H142    1.045   1_455 S
H34    N86     1.045   .     S
N35    H37     1.045   .     S
N35    H36     1.045   .     S
N38    H40     1.045   .     S
N38    H39     1.045   .     S
N41    H42     1.045   .     S
N41    H43     1.045   .     S
N44    H46     1.045   .     S
N44    H45     1.045   .     S
C47    N48     1.157   .     T
C49    N50     1.157   .     T
C51    N52     1.157   .     T
C53    N54     1.157   .     T
C55    O75     1.283   .     A
C55    C66     1.404   .     S
C55    O73     1.283   .     A
C56    O76     1.283   .     A
C56    C65     1.404   .     S
C56    O74     1.283   .     A
C57    O77     1.278   .     A
C57    O79     1.289   .     A
C57    C59     1.409   .     S
C58    O80     1.289   .     A
C58    C60     1.409   .     S
C58    O78     1.278   .     A
C60    C113    1.351   .     S
C60    N140    1.442   .     S
C61    C66     1.398   .     A
C61    N89     1.437   .     S
C61    C387    1.389   1_545 S
C62    N92     1.437   .     S
C62    C65     1.398   .     A
C62    C226    1.389   .     S
C63    N95     1.436   .     S
C63    C65     1.399   .     A
C63    C223    1.389   .     S
C64    C66     1.399   .     A
C64    N98     1.436   .     S
C64    C386    1.389   1_545 S
C67    N72     1.369   .     A
C67    C101    1.442   .     S
C67    C1041   1.427   1_554 S
C68    N71     1.369   .     A
C68    C103    1.442   .     S
C68    C556    1.427   .     S
C69    C105    1.441   .     S
C69    N71     1.370   .     A
C69    C553    1.427   .     S
C70    N72     1.370   .     A
C70    C107    1.441   .     S
C70    C1040   1.427   1_554 S
N71    Zn81    2.023   .     S
N72    Zn82    2.023   .     S
O73    Zn81    1.981   .     S
O74    Zn82    1.981   .     S
O75    Zn82    1.979   .     S
O76    Zn81    1.979   .     S
O77    Zn81    1.985   .     S
O78    Zn82    1.985   .     S
O79    Zn82    1.994   .     S
O80    Zn81    1.994   .     S
N83    H84     1.046   .     S
N83    C113    1.442   .     S
N83    H139    1.045   .     S
N86    H87     1.046   .     S
H88    N140    1.045   .     S
N89    H91     1.045   .     S
N89    H90     1.045   .     S
N92    H94     1.045   .     S
N92    H93     1.045   .     S
N95    H96     1.045   .     S
N95    H97     1.045   .     S
N98    H100    1.045   .     S
N98    H99     1.045   .     S
C101   N102    1.157   .     T
C103   N104    1.157   .     T
C105   N106    1.157   .     T
C107   N108    1.157   .     T
C109   O129    1.283   .     A
C109   C120    1.404   .     S
C109   O127    1.283   .     A
C110   O130    1.283   .     A
C110   C119    1.404   .     S
C110   O128    1.283   .     A
C111   O131    1.278   .     A
C111   O133    1.289   .     A
C111   C113    1.409   .     S
C112   O134    1.289   .     A
C112   C114    1.409   .     S
C112   O132    1.278   .     A
C114   C5      1.351   1_655 S
C114   N32     1.442   1_655 S
C115   C120    1.398   .     A
C115   N143    1.437   .     S
C115   C441    1.389   1_545 S
C116   N146    1.437   .     S
C116   C119    1.398   .     A
C116   C280    1.389   .     S
C117   N149    1.436   .     S
C117   C119    1.399   .     A
C117   C277    1.389   .     S
C118   C120    1.399   .     A
C118   N152    1.436   .     S
C118   C440    1.389   1_545 S
C121   N126    1.369   .     A
C121   C155    1.442   .     S
C121   C1095   1.427   1_554 S
C122   N125    1.369   .     A
C122   C157    1.442   .     S
C122   C610    1.427   .     S
C123   C159    1.441   .     S
C123   N125    1.370   .     A
C123   C607    1.427   .     S
C124   N126    1.370   .     A
C124   C161    1.441   .     S
C124   C1094   1.427   1_554 S
N125   Zn135   2.023   .     S
N126   Zn136   2.023   .     S
O127   Zn135   1.981   .     S
O128   Zn136   1.981   .     S
O129   Zn136   1.979   .     S
O130   Zn135   1.979   .     S
O131   Zn135   1.985   .     S
O132   Zn136   1.985   .     S
O133   Zn136   1.994   .     S
O134   Zn135   1.994   .     S
N137   H138    1.046   .     S
N137   C5      1.442   1_655 S
N137   H31     1.045   1_655 S
N140   H141    1.046   .     S
H142   N32     1.045   1_655 S
N143   H145    1.045   .     S
N143   H144    1.045   .     S
N146   H148    1.045   .     S
N146   H147    1.045   .     S
N149   H150    1.045   .     S
N149   H151    1.045   .     S
N152   H154    1.045   .     S
N152   H153    1.045   .     S
C155   N156    1.157   .     T
C157   N158    1.157   .     T
C159   N160    1.157   .     T
C161   N162    1.157   .     T
C163   O183    1.283   .     A
C163   C174    1.404   .     S
C163   O181    1.283   .     A
C164   O184    1.283   .     A
C164   C173    1.404   .     S
C164   O182    1.283   .     A
C165   O185    1.278   .     A
C165   O187    1.289   .     A
C165   C167    1.409   .     S
C166   O188    1.289   .     A
C166   C168    1.409   .     S
C166   O186    1.278   .     A
C167   C276    1.351   1_455 S
C167   N299    1.442   1_455 S
C168   C221    1.351   .     S
C168   N248    1.442   .     S
C169   C174    1.398   .     A
C169   N197    1.437   .     S
C170   N200    1.437   .     S
C170   C173    1.398   .     A
C170   C334    1.389   .     S
C171   N203    1.436   .     S
C171   C173    1.399   .     A
C171   C331    1.389   .     S
C172   C174    1.399   .     A
C172   N206    1.436   .     S
C175   N180    1.369   .     A
C175   C209    1.442   .     S
C175   C1149   1.427   1_554 S
C176   N179    1.369   .     A
C176   C211    1.442   .     S
C176   C664    1.427   .     S
C177   C213    1.441   .     S
C177   N179    1.370   .     A
C177   C661    1.427   .     S
C178   N180    1.370   .     A
C178   C215    1.441   .     S
C178   C1148   1.427   1_554 S
N179   Zn189   2.023   .     S
N180   Zn190   2.023   .     S
O181   Zn189   1.981   .     S
O182   Zn190   1.981   .     S
O183   Zn190   1.979   .     S
O184   Zn189   1.979   .     S
O185   Zn189   1.985   .     S
O186   Zn190   1.985   .     S
O187   Zn190   1.994   .     S
O188   Zn189   1.994   .     S
N191   H192    1.046   .     S
N191   C221    1.442   .     S
N191   H247    1.045   .     S
H193   N299    1.045   1_455 S
N194   H195    1.046   .     S
N194   C276    1.442   1_455 S
N194   H304    1.045   1_455 S
H196   N248    1.045   .     S
N197   H199    1.045   .     S
N197   H198    1.045   .     S
N200   H202    1.045   .     S
N200   H201    1.045   .     S
N203   H204    1.045   .     S
N203   H205    1.045   .     S
N206   H208    1.045   .     S
N206   H207    1.045   .     S
C209   N210    1.157   .     T
C211   N212    1.157   .     T
C213   N214    1.157   .     T
C215   N216    1.157   .     T
C217   O237    1.283   .     A
C217   C228    1.404   .     S
C217   O235    1.283   .     A
C218   O238    1.283   .     A
C218   C227    1.404   .     S
C218   O236    1.283   .     A
C219   O239    1.278   .     A
C219   O241    1.289   .     A
C219   C221    1.409   .     S
C220   O242    1.289   .     A
C220   C222    1.409   .     S
C220   O240    1.278   .     A
C222   C275    1.351   .     S
C222   N302    1.442   .     S
C223   C228    1.398   .     A
C223   N251    1.437   .     S
C224   N254    1.437   .     S
C224   C227    1.398   .     A
C224   C388    1.389   .     S
C225   N257    1.436   .     S
C225   C227    1.399   .     A
C225   C385    1.389   .     S
C226   C228    1.399   .     A
C226   N260    1.436   .     S
C229   N234    1.369   .     A
C229   C263    1.442   .     S
C229   C1203   1.427   1_554 S
C230   N233    1.369   .     A
C230   C265    1.442   .     S
C230   C718    1.427   .     S
C231   C267    1.441   .     S
C231   N233    1.370   .     A
C231   C715    1.427   .     S
C232   N234    1.370   .     A
C232   C269    1.441   .     S
C232   C1202   1.427   1_554 S
N233   Zn243   2.023   .     S
N234   Zn244   2.023   .     S
O235   Zn243   1.981   .     S
O236   Zn244   1.981   .     S
O237   Zn244   1.979   .     S
O238   Zn243   1.979   .     S
O239   Zn243   1.985   .     S
O240   Zn244   1.985   .     S
O241   Zn244   1.994   .     S
O242   Zn243   1.994   .     S
N245   H246    1.046   .     S
N245   C275    1.442   .     S
N245   H301    1.045   .     S
N248   H249    1.046   .     S
H250   N302    1.045   .     S
N251   H253    1.045   .     S
N251   H252    1.045   .     S
N254   H256    1.045   .     S
N254   H255    1.045   .     S
N257   H258    1.045   .     S
N257   H259    1.045   .     S
N260   H262    1.045   .     S
N260   H261    1.045   .     S
C263   N264    1.157   .     T
C265   N266    1.157   .     T
C267   N268    1.157   .     T
C269   N270    1.157   .     T
C271   O291    1.283   .     A
C271   C282    1.404   .     S
C271   O289    1.283   .     A
C272   O292    1.283   .     A
C272   C281    1.404   .     S
C272   O290    1.283   .     A
C273   O293    1.278   .     A
C273   O295    1.289   .     A
C273   C275    1.409   .     S
C274   O296    1.289   .     A
C274   C276    1.409   .     S
C274   O294    1.278   .     A
C276   C167    1.351   1_655 S
C276   N194    1.442   1_655 S
C277   C282    1.398   .     A
C277   N305    1.437   .     S
C278   N308    1.437   .     S
C278   C281    1.398   .     A
C278   C442    1.389   .     S
C279   N311    1.436   .     S
C279   C281    1.399   .     A
C279   C439    1.389   .     S
C280   C282    1.399   .     A
C280   N314    1.436   .     S
C283   N288    1.369   .     A
C283   C317    1.442   .     S
C283   C1257   1.427   1_554 S
C284   N287    1.369   .     A
C284   C319    1.442   .     S
C284   C772    1.427   .     S
C285   C321    1.441   .     S
C285   N287    1.370   .     A
C285   C769    1.427   .     S
C286   N288    1.370   .     A
C286   C323    1.441   .     S
C286   C1256   1.427   1_554 S
N287   Zn297   2.023   .     S
N288   Zn298   2.023   .     S
O289   Zn297   1.981   .     S
O290   Zn298   1.981   .     S
O291   Zn298   1.979   .     S
O292   Zn297   1.979   .     S
O293   Zn297   1.985   .     S
O294   Zn298   1.985   .     S
O295   Zn298   1.994   .     S
O296   Zn297   1.994   .     S
N299   H300    1.046   .     S
N299   C167    1.442   1_655 S
N299   H193    1.045   1_655 S
N302   H303    1.046   .     S
H304   N194    1.045   1_655 S
N305   H307    1.045   .     S
N305   H306    1.045   .     S
N308   H310    1.045   .     S
N308   H309    1.045   .     S
N311   H312    1.045   .     S
N311   H313    1.045   .     S
N314   H316    1.045   .     S
N314   H315    1.045   .     S
C317   N318    1.157   .     T
C319   N320    1.157   .     T
C321   N322    1.157   .     T
C323   N324    1.157   .     T
C325   O345    1.283   .     A
C325   C336    1.404   .     S
C325   O343    1.283   .     A
C326   O346    1.283   .     A
C326   C335    1.404   .     S
C326   O344    1.283   .     A
C327   O347    1.278   .     A
C327   O349    1.289   .     A
C327   C329    1.409   .     S
C328   O350    1.289   .     A
C328   C330    1.409   .     S
C328   O348    1.278   .     A
C329   C438    1.351   1_455 S
C329   N461    1.442   1_455 S
C330   C383    1.351   .     S
C330   N410    1.442   .     S
C331   C336    1.398   .     A
C331   N359    1.437   .     S
C332   N362    1.437   .     S
C332   C335    1.398   .     A
C332   C10     1.389   1_565 S
C333   N365    1.436   .     S
C333   C335    1.399   .     A
C333   C7      1.389   1_565 S
C334   C336    1.399   .     A
C334   N368    1.436   .     S
C337   N342    1.369   .     A
C337   C371    1.442   .     S
C337   C1311   1.427   1_554 S
C338   N341    1.369   .     A
C338   C373    1.442   .     S
C338   C826    1.427   .     S
C339   C375    1.441   .     S
C339   N341    1.370   .     A
C339   C823    1.427   .     S
C340   N342    1.370   .     A
C340   C377    1.441   .     S
C340   C1310   1.427   1_554 S
N341   Zn351   2.023   .     S
N342   Zn352   2.023   .     S
O343   Zn351   1.981   .     S
O344   Zn352   1.981   .     S
O345   Zn352   1.979   .     S
O346   Zn351   1.979   .     S
O347   Zn351   1.985   .     S
O348   Zn352   1.985   .     S
O349   Zn352   1.994   .     S
O350   Zn351   1.994   .     S
N353   H354    1.046   .     S
N353   C383    1.442   .     S
N353   H409    1.045   .     S
H355   N461    1.045   1_455 S
N356   H357    1.046   .     S
N356   C438    1.442   1_455 S
N356   H466    1.045   1_455 S
H358   N410    1.045   .     S
N359   H361    1.045   .     S
N359   H360    1.045   .     S
N362   H364    1.045   .     S
N362   H363    1.045   .     S
N365   H366    1.045   .     S
N365   H367    1.045   .     S
N368   H370    1.045   .     S
N368   H369    1.045   .     S
C371   N372    1.157   .     T
C373   N374    1.157   .     T
C375   N376    1.157   .     T
C377   N378    1.157   .     T
C379   O399    1.283   .     A
C379   C390    1.404   .     S
C379   O397    1.283   .     A
C380   O400    1.283   .     A
C380   C389    1.404   .     S
C380   O398    1.283   .     A
C381   O401    1.278   .     A
C381   O403    1.289   .     A
C381   C383    1.409   .     S
C382   O404    1.289   .     A
C382   C384    1.409   .     S
C382   O402    1.278   .     A
C384   C437    1.351   .     S
C384   N464    1.442   .     S
C385   C390    1.398   .     A
C385   N413    1.437   .     S
C386   N416    1.437   .     S
C386   C389    1.398   .     A
C386   C64     1.389   1_565 S
C387   N419    1.436   .     S
C387   C389    1.399   .     A
C387   C61     1.389   1_565 S
C388   C390    1.399   .     A
C388   N422    1.436   .     S
C391   N396    1.369   .     A
C391   C425    1.442   .     S
C391   C1365   1.427   1_554 S
C392   N395    1.369   .     A
C392   C427    1.442   .     S
C392   C880    1.427   .     S
C393   C429    1.441   .     S
C393   N395    1.370   .     A
C393   C877    1.427   .     S
C394   N396    1.370   .     A
C394   C431    1.441   .     S
C394   C1364   1.427   1_554 S
N395   Zn405   2.023   .     S
N396   Zn406   2.023   .     S
O397   Zn405   1.981   .     S
O398   Zn406   1.981   .     S
O399   Zn406   1.979   .     S
O400   Zn405   1.979   .     S
O401   Zn405   1.985   .     S
O402   Zn406   1.985   .     S
O403   Zn406   1.994   .     S
O404   Zn405   1.994   .     S
N407   H408    1.046   .     S
N407   C437    1.442   .     S
N407   H463    1.045   .     S
N410   H411    1.046   .     S
H412   N464    1.045   .     S
N413   H415    1.045   .     S
N413   H414    1.045   .     S
N416   H418    1.045   .     S
N416   H417    1.045   .     S
N419   H420    1.045   .     S
N419   H421    1.045   .     S
N422   H424    1.045   .     S
N422   H423    1.045   .     S
C425   N426    1.157   .     T
C427   N428    1.157   .     T
C429   N430    1.157   .     T
C431   N432    1.157   .     T
C433   O453    1.283   .     A
C433   C444    1.404   .     S
C433   O451    1.283   .     A
C434   O454    1.283   .     A
C434   C443    1.404   .     S
C434   O452    1.283   .     A
C435   O455    1.278   .     A
C435   O457    1.289   .     A
C435   C437    1.409   .     S
C436   O458    1.289   .     A
C436   C438    1.409   .     S
C436   O456    1.278   .     A
C438   C329    1.351   1_655 S
C438   N356    1.442   1_655 S
C439   C444    1.398   .     A
C439   N467    1.437   .     S
C440   N470    1.437   .     S
C440   C443    1.398   .     A
C440   C118    1.389   1_565 S
C441   N473    1.436   .     S
C441   C443    1.399   .     A
C441   C115    1.389   1_565 S
C442   C444    1.399   .     A
C442   N476    1.436   .     S
C445   N450    1.369   .     A
C445   C479    1.442   .     S
C445   C1419   1.427   1_554 S
C446   N449    1.369   .     A
C446   C481    1.442   .     S
C446   C934    1.427   .     S
C447   C483    1.441   .     S
C447   N449    1.370   .     A
C447   C931    1.427   .     S
C448   N450    1.370   .     A
C448   C485    1.441   .     S
C448   C1418   1.427   1_554 S
N449   Zn459   2.023   .     S
N450   Zn460   2.023   .     S
O451   Zn459   1.981   .     S
O452   Zn460   1.981   .     S
O453   Zn460   1.979   .     S
O454   Zn459   1.979   .     S
O455   Zn459   1.985   .     S
O456   Zn460   1.985   .     S
O457   Zn460   1.994   .     S
O458   Zn459   1.994   .     S
N461   H462    1.046   .     S
N461   C329    1.442   1_655 S
N461   H355    1.045   1_655 S
N464   H465    1.046   .     S
H466   N356    1.045   1_655 S
N467   H469    1.045   .     S
N467   H468    1.045   .     S
N470   H472    1.045   .     S
N470   H471    1.045   .     S
N473   H474    1.045   .     S
N473   H475    1.045   .     S
N476   H478    1.045   .     S
N476   H477    1.045   .     S
C479   N480    1.157   .     T
C481   N482    1.157   .     T
C483   N484    1.157   .     T
C485   N486    1.157   .     T
C487   O507    1.283   .     A
C487   C498    1.404   .     S
C487   O505    1.283   .     A
C488   O508    1.283   .     A
C488   C497    1.404   .     S
C488   O506    1.283   .     A
C489   O509    1.278   .     A
C489   O511    1.289   .     A
C489   C491    1.409   .     S
C490   O512    1.289   .     A
C490   C492    1.409   .     S
C490   O510    1.278   .     A
C491   C600    1.351   1_455 S
C491   N623    1.442   1_455 S
C492   C545    1.351   .     S
C492   N572    1.442   .     S
C493   C498    1.398   .     A
C493   N521    1.437   .     S
C493   C819    1.389   1_545 S
C494   N524    1.437   .     S
C494   C497    1.398   .     A
C494   C658    1.389   .     S
C495   N527    1.436   .     S
C495   C497    1.399   .     A
C495   C655    1.389   .     S
C496   C498    1.399   .     A
C496   N530    1.436   .     S
C496   C818    1.389   1_545 S
C499   N504    1.369   .     A
C499   C533    1.442   .     S
C500   N503    1.369   .     A
C500   C535    1.442   .     S
C500   C988    1.427   .     S
C501   C537    1.441   .     S
C501   N503    1.370   .     A
C501   C985    1.427   .     S
C502   N504    1.370   .     A
C502   C539    1.441   .     S
N503   Zn513   2.023   .     S
N504   Zn514   2.023   .     S
O505   Zn513   1.981   .     S
O506   Zn514   1.981   .     S
O507   Zn514   1.979   .     S
O508   Zn513   1.979   .     S
O509   Zn513   1.985   .     S
O510   Zn514   1.985   .     S
O511   Zn514   1.994   .     S
O512   Zn513   1.994   .     S
N515   H516    1.046   .     S
N515   C545    1.442   .     S
N515   H571    1.045   .     S
H517   N623    1.045   1_455 S
N518   H519    1.046   .     S
N518   C600    1.442   1_455 S
N518   H628    1.045   1_455 S
H520   N572    1.045   .     S
N521   H523    1.045   .     S
N521   H522    1.045   .     S
N524   H526    1.045   .     S
N524   H525    1.045   .     S
N527   H528    1.045   .     S
N527   H529    1.045   .     S
N530   H532    1.045   .     S
N530   H531    1.045   .     S
C533   N534    1.157   .     T
C535   N536    1.157   .     T
C537   N538    1.157   .     T
C539   N540    1.157   .     T
C541   O561    1.283   .     A
C541   C552    1.404   .     S
C541   O559    1.283   .     A
C542   O562    1.283   .     A
C542   C551    1.404   .     S
C542   O560    1.283   .     A
C543   O563    1.278   .     A
C543   O565    1.289   .     A
C543   C545    1.409   .     S
C544   O566    1.289   .     A
C544   C546    1.409   .     S
C544   O564    1.278   .     A
C546   C599    1.351   .     S
C546   N626    1.442   .     S
C547   C552    1.398   .     A
C547   N575    1.437   .     S
C547   C873    1.389   1_545 S
C548   N578    1.437   .     S
C548   C551    1.398   .     A
C548   C712    1.389   .     S
C549   N581    1.436   .     S
C549   C551    1.399   .     A
C549   C709    1.389   .     S
C550   C552    1.399   .     A
C550   N584    1.436   .     S
C550   C872    1.389   1_545 S
C553   N558    1.369   .     A
C553   C587    1.442   .     S
C554   N557    1.369   .     A
C554   C589    1.442   .     S
C554   C1042   1.427   .     S
C555   C591    1.441   .     S
C555   N557    1.370   .     A
C555   C1039   1.427   .     S
C556   N558    1.370   .     A
C556   C593    1.441   .     S
N557   Zn567   2.023   .     S
N558   Zn568   2.023   .     S
O559   Zn567   1.981   .     S
O560   Zn568   1.981   .     S
O561   Zn568   1.979   .     S
O562   Zn567   1.979   .     S
O563   Zn567   1.985   .     S
O564   Zn568   1.985   .     S
O565   Zn568   1.994   .     S
O566   Zn567   1.994   .     S
N569   H570    1.046   .     S
N569   C599    1.442   .     S
N569   H625    1.045   .     S
N572   H573    1.046   .     S
H574   N626    1.045   .     S
N575   H577    1.045   .     S
N575   H576    1.045   .     S
N578   H580    1.045   .     S
N578   H579    1.045   .     S
N581   H582    1.045   .     S
N581   H583    1.045   .     S
N584   H586    1.045   .     S
N584   H585    1.045   .     S
C587   N588    1.157   .     T
C589   N590    1.157   .     T
C591   N592    1.157   .     T
C593   N594    1.157   .     T
C595   O615    1.283   .     A
C595   C606    1.404   .     S
C595   O613    1.283   .     A
C596   O616    1.283   .     A
C596   C605    1.404   .     S
C596   O614    1.283   .     A
C597   O617    1.278   .     A
C597   O619    1.289   .     A
C597   C599    1.409   .     S
C598   O620    1.289   .     A
C598   C600    1.409   .     S
C598   O618    1.278   .     A
C600   C491    1.351   1_655 S
C600   N518    1.442   1_655 S
C601   C606    1.398   .     A
C601   N629    1.437   .     S
C601   C927    1.389   1_545 S
C602   N632    1.437   .     S
C602   C605    1.398   .     A
C602   C766    1.389   .     S
C603   N635    1.436   .     S
C603   C605    1.399   .     A
C603   C763    1.389   .     S
C604   C606    1.399   .     A
C604   N638    1.436   .     S
C604   C926    1.389   1_545 S
C607   N612    1.369   .     A
C607   C641    1.442   .     S
C608   N611    1.369   .     A
C608   C643    1.442   .     S
C608   C1096   1.427   .     S
C609   C645    1.441   .     S
C609   N611    1.370   .     A
C609   C1093   1.427   .     S
C610   N612    1.370   .     A
C610   C647    1.441   .     S
N611   Zn621   2.023   .     S
N612   Zn622   2.023   .     S
O613   Zn621   1.981   .     S
O614   Zn622   1.981   .     S
O615   Zn622   1.979   .     S
O616   Zn621   1.979   .     S
O617   Zn621   1.985   .     S
O618   Zn622   1.985   .     S
O619   Zn622   1.994   .     S
O620   Zn621   1.994   .     S
N623   H624    1.046   .     S
N623   C491    1.442   1_655 S
N623   H517    1.045   1_655 S
N626   H627    1.046   .     S
H628   N518    1.045   1_655 S
N629   H631    1.045   .     S
N629   H630    1.045   .     S
N632   H634    1.045   .     S
N632   H633    1.045   .     S
N635   H636    1.045   .     S
N635   H637    1.045   .     S
N638   H640    1.045   .     S
N638   H639    1.045   .     S
C641   N642    1.157   .     T
C643   N644    1.157   .     T
C645   N646    1.157   .     T
C647   N648    1.157   .     T
C649   O669    1.283   .     A
C649   C660    1.404   .     S
C649   O667    1.283   .     A
C650   O670    1.283   .     A
C650   C659    1.404   .     S
C650   O668    1.283   .     A
C651   O671    1.278   .     A
C651   O673    1.289   .     A
C651   C653    1.409   .     S
C652   O674    1.289   .     A
C652   C654    1.409   .     S
C652   O672    1.278   .     A
C653   C762    1.351   1_455 S
C653   N785    1.442   1_455 S
C654   C707    1.351   .     S
C654   N734    1.442   .     S
C655   C660    1.398   .     A
C655   N683    1.437   .     S
C656   N686    1.437   .     S
C656   C659    1.398   .     A
C656   C820    1.389   .     S
C657   N689    1.436   .     S
C657   C659    1.399   .     A
C657   C817    1.389   .     S
C658   C660    1.399   .     A
C658   N692    1.436   .     S
C661   N666    1.369   .     A
C661   C695    1.442   .     S
C662   N665    1.369   .     A
C662   C697    1.442   .     S
C662   C1150   1.427   .     S
C663   C699    1.441   .     S
C663   N665    1.370   .     A
C663   C1147   1.427   .     S
C664   N666    1.370   .     A
C664   C701    1.441   .     S
N665   Zn675   2.023   .     S
N666   Zn676   2.023   .     S
O667   Zn675   1.981   .     S
O668   Zn676   1.981   .     S
O669   Zn676   1.979   .     S
O670   Zn675   1.979   .     S
O671   Zn675   1.985   .     S
O672   Zn676   1.985   .     S
O673   Zn676   1.994   .     S
O674   Zn675   1.994   .     S
N677   H678    1.046   .     S
N677   C707    1.442   .     S
N677   H733    1.045   .     S
H679   N785    1.045   1_455 S
N680   H681    1.046   .     S
N680   C762    1.442   1_455 S
N680   H790    1.045   1_455 S
H682   N734    1.045   .     S
N683   H685    1.045   .     S
N683   H684    1.045   .     S
N686   H688    1.045   .     S
N686   H687    1.045   .     S
N689   H690    1.045   .     S
N689   H691    1.045   .     S
N692   H694    1.045   .     S
N692   H693    1.045   .     S
C695   N696    1.157   .     T
C697   N698    1.157   .     T
C699   N700    1.157   .     T
C701   N702    1.157   .     T
C703   O723    1.283   .     A
C703   C714    1.404   .     S
C703   O721    1.283   .     A
C704   O724    1.283   .     A
C704   C713    1.404   .     S
C704   O722    1.283   .     A
C705   O725    1.278   .     A
C705   O727    1.289   .     A
C705   C707    1.409   .     S
C706   O728    1.289   .     A
C706   C708    1.409   .     S
C706   O726    1.278   .     A
C708   C761    1.351   .     S
C708   N788    1.442   .     S
C709   C714    1.398   .     A
C709   N737    1.437   .     S
C710   N740    1.437   .     S
C710   C713    1.398   .     A
C710   C874    1.389   .     S
C711   N743    1.436   .     S
C711   C713    1.399   .     A
C711   C871    1.389   .     S
C712   C714    1.399   .     A
C712   N746    1.436   .     S
C715   N720    1.369   .     A
C715   C749    1.442   .     S
C716   N719    1.369   .     A
C716   C751    1.442   .     S
C716   C1204   1.427   .     S
C717   C753    1.441   .     S
C717   N719    1.370   .     A
C717   C1201   1.427   .     S
C718   N720    1.370   .     A
C718   C755    1.441   .     S
N719   Zn729   2.023   .     S
N720   Zn730   2.023   .     S
O721   Zn729   1.981   .     S
O722   Zn730   1.981   .     S
O723   Zn730   1.979   .     S
O724   Zn729   1.979   .     S
O725   Zn729   1.985   .     S
O726   Zn730   1.985   .     S
O727   Zn730   1.994   .     S
O728   Zn729   1.994   .     S
N731   H732    1.046   .     S
N731   C761    1.442   .     S
N731   H787    1.045   .     S
N734   H735    1.046   .     S
H736   N788    1.045   .     S
N737   H739    1.045   .     S
N737   H738    1.045   .     S
N740   H742    1.045   .     S
N740   H741    1.045   .     S
N743   H744    1.045   .     S
N743   H745    1.045   .     S
N746   H748    1.045   .     S
N746   H747    1.045   .     S
C749   N750    1.157   .     T
C751   N752    1.157   .     T
C753   N754    1.157   .     T
C755   N756    1.157   .     T
C757   O777    1.283   .     A
C757   C768    1.404   .     S
C757   O775    1.283   .     A
C758   O778    1.283   .     A
C758   C767    1.404   .     S
C758   O776    1.283   .     A
C759   O779    1.278   .     A
C759   O781    1.289   .     A
C759   C761    1.409   .     S
C760   O782    1.289   .     A
C760   C762    1.409   .     S
C760   O780    1.278   .     A
C762   C653    1.351   1_655 S
C762   N680    1.442   1_655 S
C763   C768    1.398   .     A
C763   N791    1.437   .     S
C764   N794    1.437   .     S
C764   C767    1.398   .     A
C764   C928    1.389   .     S
C765   N797    1.436   .     S
C765   C767    1.399   .     A
C765   C925    1.389   .     S
C766   C768    1.399   .     A
C766   N800    1.436   .     S
C769   N774    1.369   .     A
C769   C803    1.442   .     S
C770   N773    1.369   .     A
C770   C805    1.442   .     S
C770   C1258   1.427   .     S
C771   C807    1.441   .     S
C771   N773    1.370   .     A
C771   C1255   1.427   .     S
C772   N774    1.370   .     A
C772   C809    1.441   .     S
N773   Zn783   2.023   .     S
N774   Zn784   2.023   .     S
O775   Zn783   1.981   .     S
O776   Zn784   1.981   .     S
O777   Zn784   1.979   .     S
O778   Zn783   1.979   .     S
O779   Zn783   1.985   .     S
O780   Zn784   1.985   .     S
O781   Zn784   1.994   .     S
O782   Zn783   1.994   .     S
N785   H786    1.046   .     S
N785   C653    1.442   1_655 S
N785   H679    1.045   1_655 S
N788   H789    1.046   .     S
H790   N680    1.045   1_655 S
N791   H793    1.045   .     S
N791   H792    1.045   .     S
N794   H796    1.045   .     S
N794   H795    1.045   .     S
N797   H798    1.045   .     S
N797   H799    1.045   .     S
N800   H802    1.045   .     S
N800   H801    1.045   .     S
C803   N804    1.157   .     T
C805   N806    1.157   .     T
C807   N808    1.157   .     T
C809   N810    1.157   .     T
C811   O831    1.283   .     A
C811   C822    1.404   .     S
C811   O829    1.283   .     A
C812   O832    1.283   .     A
C812   C821    1.404   .     S
C812   O830    1.283   .     A
C813   O833    1.278   .     A
C813   O835    1.289   .     A
C813   C815    1.409   .     S
C814   O836    1.289   .     A
C814   C816    1.409   .     S
C814   O834    1.278   .     A
C815   C924    1.351   1_455 S
C815   N947    1.442   1_455 S
C816   C869    1.351   .     S
C816   N896    1.442   .     S
C817   C822    1.398   .     A
C817   N845    1.437   .     S
C818   N848    1.437   .     S
C818   C821    1.398   .     A
C818   C496    1.389   1_565 S
C819   N851    1.436   .     S
C819   C821    1.399   .     A
C819   C493    1.389   1_565 S
C820   C822    1.399   .     A
C820   N854    1.436   .     S
C823   N828    1.369   .     A
C823   C857    1.442   .     S
C824   N827    1.369   .     A
C824   C859    1.442   .     S
C824   C1312   1.427   .     S
C825   C861    1.441   .     S
C825   N827    1.370   .     A
C825   C1309   1.427   .     S
C826   N828    1.370   .     A
C826   C863    1.441   .     S
N827   Zn837   2.023   .     S
N828   Zn838   2.023   .     S
O829   Zn837   1.981   .     S
O830   Zn838   1.981   .     S
O831   Zn838   1.979   .     S
O832   Zn837   1.979   .     S
O833   Zn837   1.985   .     S
O834   Zn838   1.985   .     S
O835   Zn838   1.994   .     S
O836   Zn837   1.994   .     S
N839   H840    1.046   .     S
N839   C869    1.442   .     S
N839   H895    1.045   .     S
H841   N947    1.045   1_455 S
N842   H843    1.046   .     S
N842   C924    1.442   1_455 S
N842   H952    1.045   1_455 S
H844   N896    1.045   .     S
N845   H847    1.045   .     S
N845   H846    1.045   .     S
N848   H850    1.045   .     S
N848   H849    1.045   .     S
N851   H852    1.045   .     S
N851   H853    1.045   .     S
N854   H856    1.045   .     S
N854   H855    1.045   .     S
C857   N858    1.157   .     T
C859   N860    1.157   .     T
C861   N862    1.157   .     T
C863   N864    1.157   .     T
C865   O885    1.283   .     A
C865   C876    1.404   .     S
C865   O883    1.283   .     A
C866   O886    1.283   .     A
C866   C875    1.404   .     S
C866   O884    1.283   .     A
C867   O887    1.278   .     A
C867   O889    1.289   .     A
C867   C869    1.409   .     S
C868   O890    1.289   .     A
C868   C870    1.409   .     S
C868   O888    1.278   .     A
C870   C923    1.351   .     S
C870   N950    1.442   .     S
C871   C876    1.398   .     A
C871   N899    1.437   .     S
C872   N902    1.437   .     S
C872   C875    1.398   .     A
C872   C550    1.389   1_565 S
C873   N905    1.436   .     S
C873   C875    1.399   .     A
C873   C547    1.389   1_565 S
C874   C876    1.399   .     A
C874   N908    1.436   .     S
C877   N882    1.369   .     A
C877   C911    1.442   .     S
C878   N881    1.369   .     A
C878   C913    1.442   .     S
C878   C1366   1.427   .     S
C879   C915    1.441   .     S
C879   N881    1.370   .     A
C879   C1363   1.427   .     S
C880   N882    1.370   .     A
C880   C917    1.441   .     S
N881   Zn891   2.023   .     S
N882   Zn892   2.023   .     S
O883   Zn891   1.981   .     S
O884   Zn892   1.981   .     S
O885   Zn892   1.979   .     S
O886   Zn891   1.979   .     S
O887   Zn891   1.985   .     S
O888   Zn892   1.985   .     S
O889   Zn892   1.994   .     S
O890   Zn891   1.994   .     S
N893   H894    1.046   .     S
N893   C923    1.442   .     S
N893   H949    1.045   .     S
N896   H897    1.046   .     S
H898   N950    1.045   .     S
N899   H901    1.045   .     S
N899   H900    1.045   .     S
N902   H904    1.045   .     S
N902   H903    1.045   .     S
N905   H906    1.045   .     S
N905   H907    1.045   .     S
N908   H910    1.045   .     S
N908   H909    1.045   .     S
C911   N912    1.157   .     T
C913   N914    1.157   .     T
C915   N916    1.157   .     T
C917   N918    1.157   .     T
C919   O939    1.283   .     A
C919   C930    1.404   .     S
C919   O937    1.283   .     A
C920   O940    1.283   .     A
C920   C929    1.404   .     S
C920   O938    1.283   .     A
C921   O941    1.278   .     A
C921   O943    1.289   .     A
C921   C923    1.409   .     S
C922   O944    1.289   .     A
C922   C924    1.409   .     S
C922   O942    1.278   .     A
C924   C815    1.351   1_655 S
C924   N842    1.442   1_655 S
C925   C930    1.398   .     A
C925   N953    1.437   .     S
C926   N956    1.437   .     S
C926   C929    1.398   .     A
C926   C604    1.389   1_565 S
C927   N959    1.436   .     S
C927   C929    1.399   .     A
C927   C601    1.389   1_565 S
C928   C930    1.399   .     A
C928   N962    1.436   .     S
C931   N936    1.369   .     A
C931   C965    1.442   .     S
C932   N935    1.369   .     A
C932   C967    1.442   .     S
C932   C1420   1.427   .     S
C933   C969    1.441   .     S
C933   N935    1.370   .     A
C933   C1417   1.427   .     S
C934   N936    1.370   .     A
C934   C971    1.441   .     S
N935   Zn945   2.023   .     S
N936   Zn946   2.023   .     S
O937   Zn945   1.981   .     S
O938   Zn946   1.981   .     S
O939   Zn946   1.979   .     S
O940   Zn945   1.979   .     S
O941   Zn945   1.985   .     S
O942   Zn946   1.985   .     S
O943   Zn946   1.994   .     S
O944   Zn945   1.994   .     S
N947   H948    1.046   .     S
N947   C815    1.442   1_655 S
N947   H841    1.045   1_655 S
N950   H951    1.046   .     S
H952   N842    1.045   1_655 S
N953   H955    1.045   .     S
N953   H954    1.045   .     S
N956   H958    1.045   .     S
N956   H957    1.045   .     S
N959   H960    1.045   .     S
N959   H961    1.045   .     S
N962   H964    1.045   .     S
N962   H963    1.045   .     S
C965   N966    1.157   .     T
C967   N968    1.157   .     T
C969   N970    1.157   .     T
C971   N972    1.157   .     T
C973   O993    1.283   .     A
C973   C984    1.404   .     S
C973   O991    1.283   .     A
C974   O994    1.283   .     A
C974   C983    1.404   .     S
C974   O992    1.283   .     A
C975   O995    1.278   .     A
C975   O997    1.289   .     A
C975   C977    1.409   .     S
C976   O998    1.289   .     A
C976   C978    1.409   .     S
C976   O996    1.278   .     A
C977   C1086   1.351   1_455 S
C977   N1109   1.442   1_455 S
C978   C1031   1.351   .     S
C978   N1058   1.442   .     S
C979   C984    1.398   .     A
C979   N1007   1.437   .     S
C979   C1305   1.389   1_545 S
C980   N1010   1.437   .     S
C980   C983    1.398   .     A
C980   C1144   1.389   .     S
C981   N1013   1.436   .     S
C981   C983    1.399   .     A
C981   C1141   1.389   .     S
C982   C984    1.399   .     A
C982   N1016   1.436   .     S
C982   C1304   1.389   1_545 S
C985   N990    1.369   .     A
C985   C1019   1.442   .     S
C986   N989    1.369   .     A
C986   C1021   1.442   .     S
C986   C16     1.427   1_556 S
C987   C1023   1.441   .     S
C987   N989    1.370   .     A
C987   C13     1.427   1_556 S
C988   N990    1.370   .     A
C988   C1025   1.441   .     S
N989   Zn999   2.023   .     S
N990   Zn1000  2.023   .     S
O991   Zn999   1.981   .     S
O992   Zn1000  1.981   .     S
O993   Zn1000  1.979   .     S
O994   Zn999   1.979   .     S
O995   Zn999   1.985   .     S
O996   Zn1000  1.985   .     S
O997   Zn1000  1.994   .     S
O998   Zn999   1.994   .     S
N1001  H1002   1.046   .     S
N1001  C1031   1.442   .     S
N1001  H1057   1.045   .     S
H1003  N1109   1.045   1_455 S
N1004  H1005   1.046   .     S
N1004  C1086   1.442   1_455 S
N1004  H1114   1.045   1_455 S
H1006  N1058   1.045   .     S
N1007  H1009   1.045   .     S
N1007  H1008   1.045   .     S
N1010  H1012   1.045   .     S
N1010  H1011   1.045   .     S
N1013  H1014   1.045   .     S
N1013  H1015   1.045   .     S
N1016  H1018   1.045   .     S
N1016  H1017   1.045   .     S
C1019  N1020   1.157   .     T
C1021  N1022   1.157   .     T
C1023  N1024   1.157   .     T
C1025  N1026   1.157   .     T
C1027  O1047   1.283   .     A
C1027  C1038   1.404   .     S
C1027  O1045   1.283   .     A
C1028  O1048   1.283   .     A
C1028  C1037   1.404   .     S
C1028  O1046   1.283   .     A
C1029  O1049   1.278   .     A
C1029  O1051   1.289   .     A
C1029  C1031   1.409   .     S
C1030  O1052   1.289   .     A
C1030  C1032   1.409   .     S
C1030  O1050   1.278   .     A
C1032  C1085   1.351   .     S
C1032  N1112   1.442   .     S
C1033  C1038   1.398   .     A
C1033  N1061   1.437   .     S
C1033  C1359   1.389   1_545 S
C1034  N1064   1.437   .     S
C1034  C1037   1.398   .     A
C1034  C1198   1.389   .     S
C1035  N1067   1.436   .     S
C1035  C1037   1.399   .     A
C1035  C1195   1.389   .     S
C1036  C1038   1.399   .     A
C1036  N1070   1.436   .     S
C1036  C1358   1.389   1_545 S
C1039  N1044   1.369   .     A
C1039  C1073   1.442   .     S
C1040  N1043   1.369   .     A
C1040  C1075   1.442   .     S
C1040  C70     1.427   1_556 S
C1041  C1077   1.441   .     S
C1041  N1043   1.370   .     A
C1041  C67     1.427   1_556 S
C1042  N1044   1.370   .     A
C1042  C1079   1.441   .     S
N1043  Zn1053  2.023   .     S
N1044  Zn1054  2.023   .     S
O1045  Zn1053  1.981   .     S
O1046  Zn1054  1.981   .     S
O1047  Zn1054  1.979   .     S
O1048  Zn1053  1.979   .     S
O1049  Zn1053  1.985   .     S
O1050  Zn1054  1.985   .     S
O1051  Zn1054  1.994   .     S
O1052  Zn1053  1.994   .     S
N1055  H1056   1.046   .     S
N1055  C1085   1.442   .     S
N1055  H1111   1.045   .     S
N1058  H1059   1.046   .     S
H1060  N1112   1.045   .     S
N1061  H1063   1.045   .     S
N1061  H1062   1.045   .     S
N1064  H1066   1.045   .     S
N1064  H1065   1.045   .     S
N1067  H1068   1.045   .     S
N1067  H1069   1.045   .     S
N1070  H1072   1.045   .     S
N1070  H1071   1.045   .     S
C1073  N1074   1.157   .     T
C1075  N1076   1.157   .     T
C1077  N1078   1.157   .     T
C1079  N1080   1.157   .     T
C1081  O1101   1.283   .     A
C1081  C1092   1.404   .     S
C1081  O1099   1.283   .     A
C1082  O1102   1.283   .     A
C1082  C1091   1.404   .     S
C1082  O1100   1.283   .     A
C1083  O1103   1.278   .     A
C1083  O1105   1.289   .     A
C1083  C1085   1.409   .     S
C1084  O1106   1.289   .     A
C1084  C1086   1.409   .     S
C1084  O1104   1.278   .     A
C1086  C977    1.351   1_655 S
C1086  N1004   1.442   1_655 S
C1087  C1092   1.398   .     A
C1087  N1115   1.437   .     S
C1087  C1413   1.389   1_545 S
C1088  N1118   1.437   .     S
C1088  C1091   1.398   .     A
C1088  C1252   1.389   .     S
C1089  N1121   1.436   .     S
C1089  C1091   1.399   .     A
C1089  C1249   1.389   .     S
C1090  C1092   1.399   .     A
C1090  N1124   1.436   .     S
C1090  C1412   1.389   1_545 S
C1093  N1098   1.369   .     A
C1093  C1127   1.442   .     S
C1094  N1097   1.369   .     A
C1094  C1129   1.442   .     S
C1094  C124    1.427   1_556 S
C1095  C1131   1.441   .     S
C1095  N1097   1.370   .     A
C1095  C121    1.427   1_556 S
C1096  N1098   1.370   .     A
C1096  C1133   1.441   .     S
N1097  Zn1107  2.023   .     S
N1098  Zn1108  2.023   .     S
O1099  Zn1107  1.981   .     S
O1100  Zn1108  1.981   .     S
O1101  Zn1108  1.979   .     S
O1102  Zn1107  1.979   .     S
O1103  Zn1107  1.985   .     S
O1104  Zn1108  1.985   .     S
O1105  Zn1108  1.994   .     S
O1106  Zn1107  1.994   .     S
N1109  H1110   1.046   .     S
N1109  C977    1.442   1_655 S
N1109  H1003   1.045   1_655 S
N1112  H1113   1.046   .     S
H1114  N1004   1.045   1_655 S
N1115  H1117   1.045   .     S
N1115  H1116   1.045   .     S
N1118  H1120   1.045   .     S
N1118  H1119   1.045   .     S
N1121  H1122   1.045   .     S
N1121  H1123   1.045   .     S
N1124  H1126   1.045   .     S
N1124  H1125   1.045   .     S
C1127  N1128   1.157   .     T
C1129  N1130   1.157   .     T
C1131  N1132   1.157   .     T
C1133  N1134   1.157   .     T
C1135  O1155   1.283   .     A
C1135  C1146   1.404   .     S
C1135  O1153   1.283   .     A
C1136  O1156   1.283   .     A
C1136  C1145   1.404   .     S
C1136  O1154   1.283   .     A
C1137  O1157   1.278   .     A
C1137  O1159   1.289   .     A
C1137  C1139   1.409   .     S
C1138  O1160   1.289   .     A
C1138  C1140   1.409   .     S
C1138  O1158   1.278   .     A
C1139  C1248   1.351   1_455 S
C1139  N1271   1.442   1_455 S
C1140  C1193   1.351   .     S
C1140  N1220   1.442   .     S
C1141  C1146   1.398   .     A
C1141  N1169   1.437   .     S
C1142  N1172   1.437   .     S
C1142  C1145   1.398   .     A
C1142  C1306   1.389   .     S
C1143  N1175   1.436   .     S
C1143  C1145   1.399   .     A
C1143  C1303   1.389   .     S
C1144  C1146   1.399   .     A
C1144  N1178   1.436   .     S
C1147  N1152   1.369   .     A
C1147  C1181   1.442   .     S
C1148  N1151   1.369   .     A
C1148  C1183   1.442   .     S
C1148  C178    1.427   1_556 S
C1149  C1185   1.441   .     S
C1149  N1151   1.370   .     A
C1149  C175    1.427   1_556 S
C1150  N1152   1.370   .     A
C1150  C1187   1.441   .     S
N1151  Zn1161  2.023   .     S
N1152  Zn1162  2.023   .     S
O1153  Zn1161  1.981   .     S
O1154  Zn1162  1.981   .     S
O1155  Zn1162  1.979   .     S
O1156  Zn1161  1.979   .     S
O1157  Zn1161  1.985   .     S
O1158  Zn1162  1.985   .     S
O1159  Zn1162  1.994   .     S
O1160  Zn1161  1.994   .     S
N1163  H1164   1.046   .     S
N1163  C1193   1.442   .     S
N1163  H1219   1.045   .     S
H1165  N1271   1.045   1_455 S
N1166  H1167   1.046   .     S
N1166  C1248   1.442   1_455 S
N1166  H1276   1.045   1_455 S
H1168  N1220   1.045   .     S
N1169  H1171   1.045   .     S
N1169  H1170   1.045   .     S
N1172  H1174   1.045   .     S
N1172  H1173   1.045   .     S
N1175  H1176   1.045   .     S
N1175  H1177   1.045   .     S
N1178  H1180   1.045   .     S
N1178  H1179   1.045   .     S
C1181  N1182   1.157   .     T
C1183  N1184   1.157   .     T
C1185  N1186   1.157   .     T
C1187  N1188   1.157   .     T
C1189  O1209   1.283   .     A
C1189  C1200   1.404   .     S
C1189  O1207   1.283   .     A
C1190  O1210   1.283   .     A
C1190  C1199   1.404   .     S
C1190  O1208   1.283   .     A
C1191  O1211   1.278   .     A
C1191  O1213   1.289   .     A
C1191  C1193   1.409   .     S
C1192  O1214   1.289   .     A
C1192  C1194   1.409   .     S
C1192  O1212   1.278   .     A
C1194  C1247   1.351   .     S
C1194  N1274   1.442   .     S
C1195  C1200   1.398   .     A
C1195  N1223   1.437   .     S
C1196  N1226   1.437   .     S
C1196  C1199   1.398   .     A
C1196  C1360   1.389   .     S
C1197  N1229   1.436   .     S
C1197  C1199   1.399   .     A
C1197  C1357   1.389   .     S
C1198  C1200   1.399   .     A
C1198  N1232   1.436   .     S
C1201  N1206   1.369   .     A
C1201  C1235   1.442   .     S
C1202  N1205   1.369   .     A
C1202  C1237   1.442   .     S
C1202  C232    1.427   1_556 S
C1203  C1239   1.441   .     S
C1203  N1205   1.370   .     A
C1203  C229    1.427   1_556 S
C1204  N1206   1.370   .     A
C1204  C1241   1.441   .     S
N1205  Zn1215  2.023   .     S
N1206  Zn1216  2.023   .     S
O1207  Zn1215  1.981   .     S
O1208  Zn1216  1.981   .     S
O1209  Zn1216  1.979   .     S
O1210  Zn1215  1.979   .     S
O1211  Zn1215  1.985   .     S
O1212  Zn1216  1.985   .     S
O1213  Zn1216  1.994   .     S
O1214  Zn1215  1.994   .     S
N1217  H1218   1.046   .     S
N1217  C1247   1.442   .     S
N1217  H1273   1.045   .     S
N1220  H1221   1.046   .     S
H1222  N1274   1.045   .     S
N1223  H1225   1.045   .     S
N1223  H1224   1.045   .     S
N1226  H1228   1.045   .     S
N1226  H1227   1.045   .     S
N1229  H1230   1.045   .     S
N1229  H1231   1.045   .     S
N1232  H1234   1.045   .     S
N1232  H1233   1.045   .     S
C1235  N1236   1.157   .     T
C1237  N1238   1.157   .     T
C1239  N1240   1.157   .     T
C1241  N1242   1.157   .     T
C1243  O1263   1.283   .     A
C1243  C1254   1.404   .     S
C1243  O1261   1.283   .     A
C1244  O1264   1.283   .     A
C1244  C1253   1.404   .     S
C1244  O1262   1.283   .     A
C1245  O1265   1.278   .     A
C1245  O1267   1.289   .     A
C1245  C1247   1.409   .     S
C1246  O1268   1.289   .     A
C1246  C1248   1.409   .     S
C1246  O1266   1.278   .     A
C1248  C1139   1.351   1_655 S
C1248  N1166   1.442   1_655 S
C1249  C1254   1.398   .     A
C1249  N1277   1.437   .     S
C1250  N1280   1.437   .     S
C1250  C1253   1.398   .     A
C1250  C1414   1.389   .     S
C1251  N1283   1.436   .     S
C1251  C1253   1.399   .     A
C1251  C1411   1.389   .     S
C1252  C1254   1.399   .     A
C1252  N1286   1.436   .     S
C1255  N1260   1.369   .     A
C1255  C1289   1.442   .     S
C1256  N1259   1.369   .     A
C1256  C1291   1.442   .     S
C1256  C286    1.427   1_556 S
C1257  C1293   1.441   .     S
C1257  N1259   1.370   .     A
C1257  C283    1.427   1_556 S
C1258  N1260   1.370   .     A
C1258  C1295   1.441   .     S
N1259  Zn1269  2.023   .     S
N1260  Zn1270  2.023   .     S
O1261  Zn1269  1.981   .     S
O1262  Zn1270  1.981   .     S
O1263  Zn1270  1.979   .     S
O1264  Zn1269  1.979   .     S
O1265  Zn1269  1.985   .     S
O1266  Zn1270  1.985   .     S
O1267  Zn1270  1.994   .     S
O1268  Zn1269  1.994   .     S
N1271  H1272   1.046   .     S
N1271  C1139   1.442   1_655 S
N1271  H1165   1.045   1_655 S
N1274  H1275   1.046   .     S
H1276  N1166   1.045   1_655 S
N1277  H1279   1.045   .     S
N1277  H1278   1.045   .     S
N1280  H1282   1.045   .     S
N1280  H1281   1.045   .     S
N1283  H1284   1.045   .     S
N1283  H1285   1.045   .     S
N1286  H1288   1.045   .     S
N1286  H1287   1.045   .     S
C1289  N1290   1.157   .     T
C1291  N1292   1.157   .     T
C1293  N1294   1.157   .     T
C1295  N1296   1.157   .     T
C1297  O1317   1.283   .     A
C1297  C1308   1.404   .     S
C1297  O1315   1.283   .     A
C1298  O1318   1.283   .     A
C1298  C1307   1.404   .     S
C1298  O1316   1.283   .     A
C1299  O1319   1.278   .     A
C1299  O1321   1.289   .     A
C1299  C1301   1.409   .     S
C1300  O1322   1.289   .     A
C1300  C1302   1.409   .     S
C1300  O1320   1.278   .     A
C1301  C1410   1.351   1_455 S
C1301  N1433   1.442   1_455 S
C1302  C1355   1.351   .     S
C1302  N1382   1.442   .     S
C1303  C1308   1.398   .     A
C1303  N1331   1.437   .     S
C1304  N1334   1.437   .     S
C1304  C1307   1.398   .     A
C1304  C982    1.389   1_565 S
C1305  N1337   1.436   .     S
C1305  C1307   1.399   .     A
C1305  C979    1.389   1_565 S
C1306  C1308   1.399   .     A
C1306  N1340   1.436   .     S
C1309  N1314   1.369   .     A
C1309  C1343   1.442   .     S
C1310  N1313   1.369   .     A
C1310  C1345   1.442   .     S
C1310  C340    1.427   1_556 S
C1311  C1347   1.441   .     S
C1311  N1313   1.370   .     A
C1311  C337    1.427   1_556 S
C1312  N1314   1.370   .     A
C1312  C1349   1.441   .     S
N1313  Zn1323  2.023   .     S
N1314  Zn1324  2.023   .     S
O1315  Zn1323  1.981   .     S
O1316  Zn1324  1.981   .     S
O1317  Zn1324  1.979   .     S
O1318  Zn1323  1.979   .     S
O1319  Zn1323  1.985   .     S
O1320  Zn1324  1.985   .     S
O1321  Zn1324  1.994   .     S
O1322  Zn1323  1.994   .     S
N1325  H1326   1.046   .     S
N1325  C1355   1.442   .     S
N1325  H1381   1.045   .     S
H1327  N1433   1.045   1_455 S
N1328  H1329   1.046   .     S
N1328  C1410   1.442   1_455 S
N1328  H1438   1.045   1_455 S
H1330  N1382   1.045   .     S
N1331  H1333   1.045   .     S
N1331  H1332   1.045   .     S
N1334  H1336   1.045   .     S
N1334  H1335   1.045   .     S
N1337  H1338   1.045   .     S
N1337  H1339   1.045   .     S
N1340  H1342   1.045   .     S
N1340  H1341   1.045   .     S
C1343  N1344   1.157   .     T
C1345  N1346   1.157   .     T
C1347  N1348   1.157   .     T
C1349  N1350   1.157   .     T
C1351  O1371   1.283   .     A
C1351  C1362   1.404   .     S
C1351  O1369   1.283   .     A
C1352  O1372   1.283   .     A
C1352  C1361   1.404   .     S
C1352  O1370   1.283   .     A
C1353  O1373   1.278   .     A
C1353  O1375   1.289   .     A
C1353  C1355   1.409   .     S
C1354  O1376   1.289   .     A
C1354  C1356   1.409   .     S
C1354  O1374   1.278   .     A
C1356  C1409   1.351   .     S
C1356  N1436   1.442   .     S
C1357  C1362   1.398   .     A
C1357  N1385   1.437   .     S
C1358  N1388   1.437   .     S
C1358  C1361   1.398   .     A
C1358  C1036   1.389   1_565 S
C1359  N1391   1.436   .     S
C1359  C1361   1.399   .     A
C1359  C1033   1.389   1_565 S
C1360  C1362   1.399   .     A
C1360  N1394   1.436   .     S
C1363  N1368   1.369   .     A
C1363  C1397   1.442   .     S
C1364  N1367   1.369   .     A
C1364  C1399   1.442   .     S
C1364  C394    1.427   1_556 S
C1365  C1401   1.441   .     S
C1365  N1367   1.370   .     A
C1365  C391    1.427   1_556 S
C1366  N1368   1.370   .     A
C1366  C1403   1.441   .     S
N1367  Zn1377  2.023   .     S
N1368  Zn1378  2.023   .     S
O1369  Zn1377  1.981   .     S
O1370  Zn1378  1.981   .     S
O1371  Zn1378  1.979   .     S
O1372  Zn1377  1.979   .     S
O1373  Zn1377  1.985   .     S
O1374  Zn1378  1.985   .     S
O1375  Zn1378  1.994   .     S
O1376  Zn1377  1.994   .     S
N1379  H1380   1.046   .     S
N1379  C1409   1.442   .     S
N1379  H1435   1.045   .     S
N1382  H1383   1.046   .     S
H1384  N1436   1.045   .     S
N1385  H1387   1.045   .     S
N1385  H1386   1.045   .     S
N1388  H1390   1.045   .     S
N1388  H1389   1.045   .     S
N1391  H1392   1.045   .     S
N1391  H1393   1.045   .     S
N1394  H1396   1.045   .     S
N1394  H1395   1.045   .     S
C1397  N1398   1.157   .     T
C1399  N1400   1.157   .     T
C1401  N1402   1.157   .     T
C1403  N1404   1.157   .     T
C1405  O1425   1.283   .     A
C1405  C1416   1.404   .     S
C1405  O1423   1.283   .     A
C1406  O1426   1.283   .     A
C1406  C1415   1.404   .     S
C1406  O1424   1.283   .     A
C1407  O1427   1.278   .     A
C1407  O1429   1.289   .     A
C1407  C1409   1.409   .     S
C1408  O1430   1.289   .     A
C1408  C1410   1.409   .     S
C1408  O1428   1.278   .     A
C1410  C1301   1.351   1_655 S
C1410  N1328   1.442   1_655 S
C1411  C1416   1.398   .     A
C1411  N1439   1.437   .     S
C1412  N1442   1.437   .     S
C1412  C1415   1.398   .     A
C1412  C1090   1.389   1_565 S
C1413  N1445   1.436   .     S
C1413  C1415   1.399   .     A
C1413  C1087   1.389   1_565 S
C1414  C1416   1.399   .     A
C1414  N1448   1.436   .     S
C1417  N1422   1.369   .     A
C1417  C1451   1.442   .     S
C1418  N1421   1.369   .     A
C1418  C1453   1.442   .     S
C1418  C448    1.427   1_556 S
C1419  C1455   1.441   .     S
C1419  N1421   1.370   .     A
C1419  C445    1.427   1_556 S
C1420  N1422   1.370   .     A
C1420  C1457   1.441   .     S
N1421  Zn1431  2.023   .     S
N1422  Zn1432  2.023   .     S
O1423  Zn1431  1.981   .     S
O1424  Zn1432  1.981   .     S
O1425  Zn1432  1.979   .     S
O1426  Zn1431  1.979   .     S
O1427  Zn1431  1.985   .     S
O1428  Zn1432  1.985   .     S
O1429  Zn1432  1.994   .     S
O1430  Zn1431  1.994   .     S
N1433  H1434   1.046   .     S
N1433  C1301   1.442   1_655 S
N1433  H1327   1.045   1_655 S
N1436  H1437   1.046   .     S
H1438  N1328   1.045   1_655 S
N1439  H1441   1.045   .     S
N1439  H1440   1.045   .     S
N1442  H1444   1.045   .     S
N1442  H1443   1.045   .     S
N1445  H1446   1.045   .     S
N1445  H1447   1.045   .     S
N1448  H1450   1.045   .     S
N1448  H1449   1.045   .     S
C1451  N1452   1.157   .     T
C1453  N1454   1.157   .     T
C1455  N1456   1.157   .     T
C1457  N1458   1.157   .     T
