data_str_m3_o10_o16_pcu_sym.124
_audit_creation_date              2020-01-03
_audit_creation_method            'Materials Studio'
_symmetry_space_group_name_H-M    'P1'
_symmetry_Int_Tables_number       1
_symmetry_cell_setting            triclinic
loop_
_symmetry_equiv_pos_as_xyz
  x,y,z
_cell_length_a                    23.5243
_cell_length_b                    25.6973
_cell_length_c                    24.8183
_cell_angle_alpha                 92.2210
_cell_angle_beta                  103.0278
_cell_angle_gamma                 93.8584
loop_
_atom_site_label
_atom_site_type_symbol
_atom_site_fract_x
_atom_site_fract_y
_atom_site_fract_z
_atom_site_U_iso_or_equiv
_atom_site_adp_type
_atom_site_occupancy
C1     C     0.01481   0.26483   0.24880   0.00000  Uiso   1.00
C2     C     0.06152   0.19936   0.41125   0.00000  Uiso   1.00
C3     C     0.02260   0.31939   0.24831   0.00000  Uiso   1.00
C4     C     0.03795   0.17848   0.35360   0.00000  Uiso   1.00
C5     C     0.31108   0.01399   0.25267   0.00000  Uiso   1.00
C6     C     0.31865   0.06853   0.25156   0.00000  Uiso   1.00
C7     C     0.29668   0.16380   0.14560   0.00000  Uiso   1.00
C8     C     0.27568   0.13385   0.49375   0.00000  Uiso   1.00
C9     C     0.27560   0.16470   0.08671   0.00000  Uiso   1.00
C10    C     0.02470   0.21606   0.44452   0.00000  Uiso   1.00
C11    C     0.04574   0.22369   0.00175   0.00000  Uiso   1.00
C12    C     0.14221   0.20269   0.49211   0.00000  Uiso   1.00
C13    C     0.10288   0.21271   0.02590   0.00000  Uiso   1.00
C14    C     0.12176   0.20183   0.43454   0.00000  Uiso   1.00
C15    C     0.19940   0.18749   0.01205   0.00000  Uiso   1.00
C16    C     0.22764   0.16264   0.47421   0.00000  Uiso   1.00
C17    C     0.20988   0.17190   0.41810   0.00000  Uiso   1.00
C18    C     0.16296   0.20214   0.40202   0.00000  Uiso   1.00
C19    C     0.22954   0.19567   0.06693   0.00000  Uiso   1.00
C20    C     0.29787   0.13278   0.05055   0.00000  Uiso   1.00
H21    H     0.00044   0.10908   0.06608   0.00000  Uiso   1.00
H22    H     0.06492   0.00304   0.24419   0.00000  Uiso   1.00
H23    H     0.26877   0.33034   0.25684   0.00000  Uiso   1.00
H24    H     0.15675   0.12308   0.21148   0.00000  Uiso   1.00
H25    H     0.17582   0.21142   0.28557   0.00000  Uiso   1.00
H26    H     0.23624   0.16209   0.38930   0.00000  Uiso   1.00
H27    H     0.29614   0.11296   0.46536   0.00000  Uiso   1.00
H28    H     0.31311   0.22234   0.42655   0.00000  Uiso   1.00
H29    H     0.11489   0.21071   0.07034   0.00000  Uiso   1.00
H30    H     0.01655   0.23452   0.02760   0.00000  Uiso   1.00
I31    I     0.22314   0.26755   0.11217   0.00000  Uiso   1.00
I32    I     0.18104   0.27724   0.37425   0.00000  Uiso   1.00
N33    N     0.14493   0.15223   0.23542   0.00000  Uiso   1.00
N34    N     0.18840   0.18110   0.26457   0.00000  Uiso   1.00
O35    O     0.29769   0.24629   0.25357   0.00000  Uiso   1.00
O36    O     0.05742   0.23704   0.24423   0.00000  Uiso   1.00
O37    O     0.31490   0.17358   0.33380   0.00000  Uiso   1.00
O38    O     0.07463   0.16433   0.32446   0.00000  Uiso   1.00
O39    O     0.27592   0.09629   0.25576   0.00000  Uiso   1.00
O40    O     0.03565   0.08704   0.24642   0.00000  Uiso   1.00
O41    O     0.25870   0.16901   0.17554   0.00000  Uiso   1.00
O42    O     0.01843   0.15976   0.16620   0.00000  Uiso   1.00
Zn43   Zn    0.27119   0.17284   0.25623   0.00000  Uiso   1.00
Zn44   Zn    0.06214   0.16049   0.24376   0.00000  Uiso   1.00
C45    C     0.34815   0.26483   0.24880   0.00000  Uiso   1.00
C46    C     0.39486   0.19936   0.41125   0.00000  Uiso   1.00
C47    C     0.35593   0.31939   0.24831   0.00000  Uiso   1.00
C48    C     0.37129   0.17848   0.35360   0.00000  Uiso   1.00
C49    C     0.64442   0.01399   0.25267   0.00000  Uiso   1.00
C50    C     0.65198   0.06853   0.25156   0.00000  Uiso   1.00
C51    C     0.63001   0.16380   0.14560   0.00000  Uiso   1.00
C52    C     0.60902   0.13385   0.49375   0.00000  Uiso   1.00
C53    C     0.60893   0.16470   0.08671   0.00000  Uiso   1.00
C54    C     0.35803   0.21606   0.44452   0.00000  Uiso   1.00
C55    C     0.37907   0.22369   0.00175   0.00000  Uiso   1.00
C56    C     0.47554   0.20269   0.49211   0.00000  Uiso   1.00
C57    C     0.43622   0.21271   0.02590   0.00000  Uiso   1.00
C58    C     0.45509   0.20183   0.43454   0.00000  Uiso   1.00
C59    C     0.53273   0.18749   0.01205   0.00000  Uiso   1.00
C60    C     0.56097   0.16264   0.47421   0.00000  Uiso   1.00
C61    C     0.54321   0.17190   0.41810   0.00000  Uiso   1.00
C62    C     0.49630   0.20214   0.40202   0.00000  Uiso   1.00
C63    C     0.56287   0.19567   0.06693   0.00000  Uiso   1.00
C64    C     0.63120   0.13278   0.05055   0.00000  Uiso   1.00
H65    H     0.33377   0.10908   0.06608   0.00000  Uiso   1.00
H66    H     0.39826   0.00304   0.24419   0.00000  Uiso   1.00
H67    H     0.60211   0.33034   0.25684   0.00000  Uiso   1.00
H68    H     0.49008   0.12308   0.21148   0.00000  Uiso   1.00
H69    H     0.50916   0.21142   0.28557   0.00000  Uiso   1.00
H70    H     0.56957   0.16209   0.38930   0.00000  Uiso   1.00
H71    H     0.62948   0.11296   0.46536   0.00000  Uiso   1.00
H72    H     0.64644   0.22234   0.42655   0.00000  Uiso   1.00
H73    H     0.44822   0.21071   0.07034   0.00000  Uiso   1.00
H74    H     0.34988   0.23452   0.02760   0.00000  Uiso   1.00
I75    I     0.55647   0.26755   0.11217   0.00000  Uiso   1.00
I76    I     0.51437   0.27724   0.37425   0.00000  Uiso   1.00
N77    N     0.47827   0.15223   0.23542   0.00000  Uiso   1.00
N78    N     0.52173   0.18110   0.26457   0.00000  Uiso   1.00
O79    O     0.63102   0.24629   0.25357   0.00000  Uiso   1.00
O80    O     0.39075   0.23704   0.24423   0.00000  Uiso   1.00
O81    O     0.64823   0.17358   0.33380   0.00000  Uiso   1.00
O82    O     0.40796   0.16433   0.32446   0.00000  Uiso   1.00
O83    O     0.60925   0.09629   0.25576   0.00000  Uiso   1.00
O84    O     0.36898   0.08704   0.24642   0.00000  Uiso   1.00
O85    O     0.59204   0.16901   0.17554   0.00000  Uiso   1.00
O86    O     0.35177   0.15976   0.16620   0.00000  Uiso   1.00
Zn87   Zn    0.60453   0.17284   0.25623   0.00000  Uiso   1.00
Zn88   Zn    0.39547   0.16049   0.24376   0.00000  Uiso   1.00
C89    C     0.68148   0.26483   0.24880   0.00000  Uiso   1.00
C90    C     0.72819   0.19936   0.41125   0.00000  Uiso   1.00
C91    C     0.68926   0.31939   0.24831   0.00000  Uiso   1.00
C92    C     0.70462   0.17848   0.35360   0.00000  Uiso   1.00
C93    C     0.97775   0.01399   0.25267   0.00000  Uiso   1.00
C94    C     0.98531   0.06853   0.25156   0.00000  Uiso   1.00
C95    C     0.96335   0.16380   0.14560   0.00000  Uiso   1.00
C96    C     0.94235   0.13385   0.49375   0.00000  Uiso   1.00
C97    C     0.94227   0.16470   0.08671   0.00000  Uiso   1.00
C98    C     0.69137   0.21606   0.44452   0.00000  Uiso   1.00
C99    C     0.71240   0.22369   0.00175   0.00000  Uiso   1.00
C100   C     0.80888   0.20269   0.49211   0.00000  Uiso   1.00
C101   C     0.76955   0.21271   0.02590   0.00000  Uiso   1.00
C102   C     0.78843   0.20183   0.43454   0.00000  Uiso   1.00
C103   C     0.86606   0.18749   0.01205   0.00000  Uiso   1.00
C104   C     0.89430   0.16264   0.47421   0.00000  Uiso   1.00
C105   C     0.87654   0.17190   0.41810   0.00000  Uiso   1.00
C106   C     0.82963   0.20214   0.40202   0.00000  Uiso   1.00
C107   C     0.89620   0.19567   0.06693   0.00000  Uiso   1.00
C108   C     0.96453   0.13278   0.05055   0.00000  Uiso   1.00
H109   H     0.66710   0.10908   0.06608   0.00000  Uiso   1.00
H110   H     0.73159   0.00304   0.24419   0.00000  Uiso   1.00
H111   H     0.93544   0.33034   0.25684   0.00000  Uiso   1.00
H112   H     0.82341   0.12308   0.21148   0.00000  Uiso   1.00
H113   H     0.84249   0.21142   0.28557   0.00000  Uiso   1.00
H114   H     0.90291   0.16209   0.38930   0.00000  Uiso   1.00
H115   H     0.96281   0.11296   0.46536   0.00000  Uiso   1.00
H116   H     0.97977   0.22234   0.42655   0.00000  Uiso   1.00
H117   H     0.78156   0.21071   0.07034   0.00000  Uiso   1.00
H118   H     0.68322   0.23452   0.02760   0.00000  Uiso   1.00
I119   I     0.88981   0.26755   0.11217   0.00000  Uiso   1.00
I120   I     0.84770   0.27724   0.37425   0.00000  Uiso   1.00
N121   N     0.81160   0.15223   0.23542   0.00000  Uiso   1.00
N122   N     0.85507   0.18110   0.26457   0.00000  Uiso   1.00
O123   O     0.96435   0.24629   0.25357   0.00000  Uiso   1.00
O124   O     0.72408   0.23704   0.24423   0.00000  Uiso   1.00
O125   O     0.98157   0.17358   0.33380   0.00000  Uiso   1.00
O126   O     0.74130   0.16433   0.32446   0.00000  Uiso   1.00
O127   O     0.94258   0.09629   0.25576   0.00000  Uiso   1.00
O128   O     0.70231   0.08704   0.24642   0.00000  Uiso   1.00
O129   O     0.92537   0.16901   0.17554   0.00000  Uiso   1.00
O130   O     0.68510   0.15976   0.16620   0.00000  Uiso   1.00
Zn131  Zn    0.93786   0.17284   0.25623   0.00000  Uiso   1.00
Zn132  Zn    0.72881   0.16049   0.24376   0.00000  Uiso   1.00
C133   C     0.01481   0.59816   0.24880   0.00000  Uiso   1.00
C134   C     0.06152   0.53270   0.41125   0.00000  Uiso   1.00
C135   C     0.02260   0.65272   0.24831   0.00000  Uiso   1.00
C136   C     0.03795   0.51182   0.35360   0.00000  Uiso   1.00
C137   C     0.31108   0.34733   0.25267   0.00000  Uiso   1.00
C138   C     0.31865   0.40186   0.25156   0.00000  Uiso   1.00
C139   C     0.29668   0.49713   0.14560   0.00000  Uiso   1.00
C140   C     0.27568   0.46718   0.49375   0.00000  Uiso   1.00
C141   C     0.27560   0.49803   0.08671   0.00000  Uiso   1.00
C142   C     0.02470   0.54939   0.44452   0.00000  Uiso   1.00
C143   C     0.04574   0.55702   0.00175   0.00000  Uiso   1.00
C144   C     0.14221   0.53602   0.49211   0.00000  Uiso   1.00
C145   C     0.10288   0.54605   0.02590   0.00000  Uiso   1.00
C146   C     0.12176   0.53517   0.43454   0.00000  Uiso   1.00
C147   C     0.19940   0.52083   0.01205   0.00000  Uiso   1.00
C148   C     0.22764   0.49597   0.47421   0.00000  Uiso   1.00
C149   C     0.20988   0.50523   0.41810   0.00000  Uiso   1.00
C150   C     0.16296   0.53547   0.40202   0.00000  Uiso   1.00
C151   C     0.22954   0.52901   0.06693   0.00000  Uiso   1.00
C152   C     0.29787   0.46611   0.05055   0.00000  Uiso   1.00
H153   H     0.00044   0.44241   0.06608   0.00000  Uiso   1.00
H154   H     0.06492   0.33637   0.24419   0.00000  Uiso   1.00
H155   H     0.26877   0.66367   0.25684   0.00000  Uiso   1.00
H156   H     0.15675   0.45641   0.21148   0.00000  Uiso   1.00
H157   H     0.17582   0.54475   0.28557   0.00000  Uiso   1.00
H158   H     0.23624   0.49543   0.38930   0.00000  Uiso   1.00
H159   H     0.29614   0.44629   0.46536   0.00000  Uiso   1.00
H160   H     0.31311   0.55567   0.42655   0.00000  Uiso   1.00
H161   H     0.11489   0.54404   0.07034   0.00000  Uiso   1.00
H162   H     0.01655   0.56785   0.02760   0.00000  Uiso   1.00
I163   I     0.22314   0.60089   0.11217   0.00000  Uiso   1.00
I164   I     0.18104   0.61058   0.37425   0.00000  Uiso   1.00
N165   N     0.14493   0.48556   0.23542   0.00000  Uiso   1.00
N166   N     0.18840   0.51444   0.26457   0.00000  Uiso   1.00
O167   O     0.29769   0.57963   0.25357   0.00000  Uiso   1.00
O168   O     0.05742   0.57038   0.24423   0.00000  Uiso   1.00
O169   O     0.31490   0.50691   0.33380   0.00000  Uiso   1.00
O170   O     0.07463   0.49766   0.32446   0.00000  Uiso   1.00
O171   O     0.27592   0.42962   0.25576   0.00000  Uiso   1.00
O172   O     0.03565   0.42037   0.24642   0.00000  Uiso   1.00
O173   O     0.25870   0.50234   0.17554   0.00000  Uiso   1.00
O174   O     0.01843   0.49309   0.16620   0.00000  Uiso   1.00
Zn175  Zn    0.27119   0.50618   0.25623   0.00000  Uiso   1.00
Zn176  Zn    0.06214   0.49382   0.24376   0.00000  Uiso   1.00
C177   C     0.34815   0.59816   0.24880   0.00000  Uiso   1.00
C178   C     0.39486   0.53270   0.41125   0.00000  Uiso   1.00
C179   C     0.35593   0.65272   0.24831   0.00000  Uiso   1.00
C180   C     0.37129   0.51182   0.35360   0.00000  Uiso   1.00
C181   C     0.64442   0.34733   0.25267   0.00000  Uiso   1.00
C182   C     0.65198   0.40186   0.25156   0.00000  Uiso   1.00
C183   C     0.63001   0.49713   0.14560   0.00000  Uiso   1.00
C184   C     0.60902   0.46718   0.49375   0.00000  Uiso   1.00
C185   C     0.60893   0.49803   0.08671   0.00000  Uiso   1.00
C186   C     0.35803   0.54939   0.44452   0.00000  Uiso   1.00
C187   C     0.37907   0.55702   0.00175   0.00000  Uiso   1.00
C188   C     0.47554   0.53602   0.49211   0.00000  Uiso   1.00
C189   C     0.43622   0.54605   0.02590   0.00000  Uiso   1.00
C190   C     0.45509   0.53517   0.43454   0.00000  Uiso   1.00
C191   C     0.53273   0.52083   0.01205   0.00000  Uiso   1.00
C192   C     0.56097   0.49597   0.47421   0.00000  Uiso   1.00
C193   C     0.54321   0.50523   0.41810   0.00000  Uiso   1.00
C194   C     0.49630   0.53547   0.40202   0.00000  Uiso   1.00
C195   C     0.56287   0.52901   0.06693   0.00000  Uiso   1.00
C196   C     0.63120   0.46611   0.05055   0.00000  Uiso   1.00
H197   H     0.33377   0.44241   0.06608   0.00000  Uiso   1.00
H198   H     0.39826   0.33637   0.24419   0.00000  Uiso   1.00
H199   H     0.60211   0.66367   0.25684   0.00000  Uiso   1.00
H200   H     0.49008   0.45641   0.21148   0.00000  Uiso   1.00
H201   H     0.50916   0.54475   0.28557   0.00000  Uiso   1.00
H202   H     0.56957   0.49543   0.38930   0.00000  Uiso   1.00
H203   H     0.62948   0.44629   0.46536   0.00000  Uiso   1.00
H204   H     0.64644   0.55567   0.42655   0.00000  Uiso   1.00
H205   H     0.44822   0.54404   0.07034   0.00000  Uiso   1.00
H206   H     0.34988   0.56785   0.02760   0.00000  Uiso   1.00
I207   I     0.55647   0.60089   0.11217   0.00000  Uiso   1.00
I208   I     0.51437   0.61058   0.37425   0.00000  Uiso   1.00
N209   N     0.47827   0.48556   0.23542   0.00000  Uiso   1.00
N210   N     0.52173   0.51444   0.26457   0.00000  Uiso   1.00
O211   O     0.63102   0.57963   0.25357   0.00000  Uiso   1.00
O212   O     0.39075   0.57038   0.24423   0.00000  Uiso   1.00
O213   O     0.64823   0.50691   0.33380   0.00000  Uiso   1.00
O214   O     0.40796   0.49766   0.32446   0.00000  Uiso   1.00
O215   O     0.60925   0.42962   0.25576   0.00000  Uiso   1.00
O216   O     0.36898   0.42037   0.24642   0.00000  Uiso   1.00
O217   O     0.59204   0.50234   0.17554   0.00000  Uiso   1.00
O218   O     0.35177   0.49309   0.16620   0.00000  Uiso   1.00
Zn219  Zn    0.60453   0.50618   0.25623   0.00000  Uiso   1.00
Zn220  Zn    0.39547   0.49382   0.24376   0.00000  Uiso   1.00
C221   C     0.68148   0.59816   0.24880   0.00000  Uiso   1.00
C222   C     0.72819   0.53270   0.41125   0.00000  Uiso   1.00
C223   C     0.68926   0.65272   0.24831   0.00000  Uiso   1.00
C224   C     0.70462   0.51182   0.35360   0.00000  Uiso   1.00
C225   C     0.97775   0.34733   0.25267   0.00000  Uiso   1.00
C226   C     0.98531   0.40186   0.25156   0.00000  Uiso   1.00
C227   C     0.96335   0.49713   0.14560   0.00000  Uiso   1.00
C228   C     0.94235   0.46718   0.49375   0.00000  Uiso   1.00
C229   C     0.94227   0.49803   0.08671   0.00000  Uiso   1.00
C230   C     0.69137   0.54939   0.44452   0.00000  Uiso   1.00
C231   C     0.71240   0.55702   0.00175   0.00000  Uiso   1.00
C232   C     0.80888   0.53602   0.49211   0.00000  Uiso   1.00
C233   C     0.76955   0.54605   0.02590   0.00000  Uiso   1.00
C234   C     0.78843   0.53517   0.43454   0.00000  Uiso   1.00
C235   C     0.86606   0.52083   0.01205   0.00000  Uiso   1.00
C236   C     0.89430   0.49597   0.47421   0.00000  Uiso   1.00
C237   C     0.87654   0.50523   0.41810   0.00000  Uiso   1.00
C238   C     0.82963   0.53547   0.40202   0.00000  Uiso   1.00
C239   C     0.89620   0.52901   0.06693   0.00000  Uiso   1.00
C240   C     0.96453   0.46611   0.05055   0.00000  Uiso   1.00
H241   H     0.66710   0.44241   0.06608   0.00000  Uiso   1.00
H242   H     0.73159   0.33637   0.24419   0.00000  Uiso   1.00
H243   H     0.93544   0.66367   0.25684   0.00000  Uiso   1.00
H244   H     0.82341   0.45641   0.21148   0.00000  Uiso   1.00
H245   H     0.84249   0.54475   0.28557   0.00000  Uiso   1.00
H246   H     0.90291   0.49543   0.38930   0.00000  Uiso   1.00
H247   H     0.96281   0.44629   0.46536   0.00000  Uiso   1.00
H248   H     0.97977   0.55567   0.42655   0.00000  Uiso   1.00
H249   H     0.78156   0.54404   0.07034   0.00000  Uiso   1.00
H250   H     0.68322   0.56785   0.02760   0.00000  Uiso   1.00
I251   I     0.88981   0.60089   0.11217   0.00000  Uiso   1.00
I252   I     0.84770   0.61058   0.37425   0.00000  Uiso   1.00
N253   N     0.81160   0.48556   0.23542   0.00000  Uiso   1.00
N254   N     0.85507   0.51444   0.26457   0.00000  Uiso   1.00
O255   O     0.96435   0.57963   0.25357   0.00000  Uiso   1.00
O256   O     0.72408   0.57038   0.24423   0.00000  Uiso   1.00
O257   O     0.98157   0.50691   0.33380   0.00000  Uiso   1.00
O258   O     0.74130   0.49766   0.32446   0.00000  Uiso   1.00
O259   O     0.94258   0.42962   0.25576   0.00000  Uiso   1.00
O260   O     0.70231   0.42037   0.24642   0.00000  Uiso   1.00
O261   O     0.92537   0.50234   0.17554   0.00000  Uiso   1.00
O262   O     0.68510   0.49309   0.16620   0.00000  Uiso   1.00
Zn263  Zn    0.93786   0.50618   0.25623   0.00000  Uiso   1.00
Zn264  Zn    0.72881   0.49382   0.24376   0.00000  Uiso   1.00
C265   C     0.01481   0.93150   0.24880   0.00000  Uiso   1.00
C266   C     0.06152   0.86603   0.41125   0.00000  Uiso   1.00
C267   C     0.02260   0.98606   0.24831   0.00000  Uiso   1.00
C268   C     0.03795   0.84515   0.35360   0.00000  Uiso   1.00
C269   C     0.31108   0.68066   0.25267   0.00000  Uiso   1.00
C270   C     0.31865   0.73519   0.25156   0.00000  Uiso   1.00
C271   C     0.29668   0.83046   0.14560   0.00000  Uiso   1.00
C272   C     0.27568   0.80052   0.49375   0.00000  Uiso   1.00
C273   C     0.27560   0.83136   0.08671   0.00000  Uiso   1.00
C274   C     0.02470   0.88273   0.44452   0.00000  Uiso   1.00
C275   C     0.04574   0.89035   0.00175   0.00000  Uiso   1.00
C276   C     0.14221   0.86936   0.49211   0.00000  Uiso   1.00
C277   C     0.10288   0.87938   0.02590   0.00000  Uiso   1.00
C278   C     0.12176   0.86850   0.43454   0.00000  Uiso   1.00
C279   C     0.19940   0.85416   0.01205   0.00000  Uiso   1.00
C280   C     0.22764   0.82931   0.47421   0.00000  Uiso   1.00
C281   C     0.20988   0.83856   0.41810   0.00000  Uiso   1.00
C282   C     0.16296   0.86880   0.40202   0.00000  Uiso   1.00
C283   C     0.22954   0.86234   0.06693   0.00000  Uiso   1.00
C284   C     0.29787   0.79945   0.05055   0.00000  Uiso   1.00
H285   H     0.00044   0.77575   0.06608   0.00000  Uiso   1.00
H286   H     0.06492   0.66970   0.24419   0.00000  Uiso   1.00
H287   H     0.26877   0.99700   0.25684   0.00000  Uiso   1.00
H288   H     0.15675   0.78975   0.21148   0.00000  Uiso   1.00
H289   H     0.17582   0.87808   0.28557   0.00000  Uiso   1.00
H290   H     0.23624   0.82876   0.38930   0.00000  Uiso   1.00
H291   H     0.29614   0.77963   0.46536   0.00000  Uiso   1.00
H292   H     0.31311   0.88901   0.42655   0.00000  Uiso   1.00
H293   H     0.11489   0.87738   0.07034   0.00000  Uiso   1.00
H294   H     0.01655   0.90118   0.02760   0.00000  Uiso   1.00
I295   I     0.22314   0.93422   0.11217   0.00000  Uiso   1.00
I296   I     0.18104   0.94391   0.37425   0.00000  Uiso   1.00
N297   N     0.14493   0.81890   0.23542   0.00000  Uiso   1.00
N298   N     0.18840   0.84777   0.26457   0.00000  Uiso   1.00
O299   O     0.29769   0.91296   0.25357   0.00000  Uiso   1.00
O300   O     0.05742   0.90371   0.24423   0.00000  Uiso   1.00
O301   O     0.31490   0.84024   0.33380   0.00000  Uiso   1.00
O302   O     0.07463   0.83099   0.32446   0.00000  Uiso   1.00
O303   O     0.27592   0.76296   0.25576   0.00000  Uiso   1.00
O304   O     0.03565   0.75371   0.24642   0.00000  Uiso   1.00
O305   O     0.25870   0.83567   0.17554   0.00000  Uiso   1.00
O306   O     0.01843   0.82642   0.16620   0.00000  Uiso   1.00
Zn307  Zn    0.27119   0.83951   0.25623   0.00000  Uiso   1.00
Zn308  Zn    0.06214   0.82716   0.24376   0.00000  Uiso   1.00
C309   C     0.34815   0.93150   0.24880   0.00000  Uiso   1.00
C310   C     0.39486   0.86603   0.41125   0.00000  Uiso   1.00
C311   C     0.35593   0.98606   0.24831   0.00000  Uiso   1.00
C312   C     0.37129   0.84515   0.35360   0.00000  Uiso   1.00
C313   C     0.64442   0.68066   0.25267   0.00000  Uiso   1.00
C314   C     0.65198   0.73519   0.25156   0.00000  Uiso   1.00
C315   C     0.63001   0.83046   0.14560   0.00000  Uiso   1.00
C316   C     0.60902   0.80052   0.49375   0.00000  Uiso   1.00
C317   C     0.60893   0.83136   0.08671   0.00000  Uiso   1.00
C318   C     0.35803   0.88273   0.44452   0.00000  Uiso   1.00
C319   C     0.37907   0.89035   0.00175   0.00000  Uiso   1.00
C320   C     0.47554   0.86936   0.49211   0.00000  Uiso   1.00
C321   C     0.43622   0.87938   0.02590   0.00000  Uiso   1.00
C322   C     0.45509   0.86850   0.43454   0.00000  Uiso   1.00
C323   C     0.53273   0.85416   0.01205   0.00000  Uiso   1.00
C324   C     0.56097   0.82931   0.47421   0.00000  Uiso   1.00
C325   C     0.54321   0.83856   0.41810   0.00000  Uiso   1.00
C326   C     0.49630   0.86880   0.40202   0.00000  Uiso   1.00
C327   C     0.56287   0.86234   0.06693   0.00000  Uiso   1.00
C328   C     0.63120   0.79945   0.05055   0.00000  Uiso   1.00
H329   H     0.33377   0.77575   0.06608   0.00000  Uiso   1.00
H330   H     0.39826   0.66970   0.24419   0.00000  Uiso   1.00
H331   H     0.60211   0.99700   0.25684   0.00000  Uiso   1.00
H332   H     0.49008   0.78975   0.21148   0.00000  Uiso   1.00
H333   H     0.50916   0.87808   0.28557   0.00000  Uiso   1.00
H334   H     0.56957   0.82876   0.38930   0.00000  Uiso   1.00
H335   H     0.62948   0.77963   0.46536   0.00000  Uiso   1.00
H336   H     0.64644   0.88901   0.42655   0.00000  Uiso   1.00
H337   H     0.44822   0.87738   0.07034   0.00000  Uiso   1.00
H338   H     0.34988   0.90118   0.02760   0.00000  Uiso   1.00
I339   I     0.55647   0.93422   0.11217   0.00000  Uiso   1.00
I340   I     0.51437   0.94391   0.37425   0.00000  Uiso   1.00
N341   N     0.47827   0.81890   0.23542   0.00000  Uiso   1.00
N342   N     0.52173   0.84777   0.26457   0.00000  Uiso   1.00
O343   O     0.63102   0.91296   0.25357   0.00000  Uiso   1.00
O344   O     0.39075   0.90371   0.24423   0.00000  Uiso   1.00
O345   O     0.64823   0.84024   0.33380   0.00000  Uiso   1.00
O346   O     0.40796   0.83099   0.32446   0.00000  Uiso   1.00
O347   O     0.60925   0.76296   0.25576   0.00000  Uiso   1.00
O348   O     0.36898   0.75371   0.24642   0.00000  Uiso   1.00
O349   O     0.59204   0.83567   0.17554   0.00000  Uiso   1.00
O350   O     0.35177   0.82642   0.16620   0.00000  Uiso   1.00
Zn351  Zn    0.60453   0.83951   0.25623   0.00000  Uiso   1.00
Zn352  Zn    0.39547   0.82716   0.24376   0.00000  Uiso   1.00
C353   C     0.68148   0.93150   0.24880   0.00000  Uiso   1.00
C354   C     0.72819   0.86603   0.41125   0.00000  Uiso   1.00
C355   C     0.68926   0.98606   0.24831   0.00000  Uiso   1.00
C356   C     0.70462   0.84515   0.35360   0.00000  Uiso   1.00
C357   C     0.97775   0.68066   0.25267   0.00000  Uiso   1.00
C358   C     0.98531   0.73519   0.25156   0.00000  Uiso   1.00
C359   C     0.96335   0.83046   0.14560   0.00000  Uiso   1.00
C360   C     0.94235   0.80052   0.49375   0.00000  Uiso   1.00
C361   C     0.94227   0.83136   0.08671   0.00000  Uiso   1.00
C362   C     0.69137   0.88273   0.44452   0.00000  Uiso   1.00
C363   C     0.71240   0.89035   0.00175   0.00000  Uiso   1.00
C364   C     0.80888   0.86936   0.49211   0.00000  Uiso   1.00
C365   C     0.76955   0.87938   0.02590   0.00000  Uiso   1.00
C366   C     0.78843   0.86850   0.43454   0.00000  Uiso   1.00
C367   C     0.86606   0.85416   0.01205   0.00000  Uiso   1.00
C368   C     0.89430   0.82931   0.47421   0.00000  Uiso   1.00
C369   C     0.87654   0.83856   0.41810   0.00000  Uiso   1.00
C370   C     0.82963   0.86880   0.40202   0.00000  Uiso   1.00
C371   C     0.89620   0.86234   0.06693   0.00000  Uiso   1.00
C372   C     0.96453   0.79945   0.05055   0.00000  Uiso   1.00
H373   H     0.66710   0.77575   0.06608   0.00000  Uiso   1.00
H374   H     0.73159   0.66970   0.24419   0.00000  Uiso   1.00
H375   H     0.93544   0.99700   0.25684   0.00000  Uiso   1.00
H376   H     0.82341   0.78975   0.21148   0.00000  Uiso   1.00
H377   H     0.84249   0.87808   0.28557   0.00000  Uiso   1.00
H378   H     0.90291   0.82876   0.38930   0.00000  Uiso   1.00
H379   H     0.96281   0.77963   0.46536   0.00000  Uiso   1.00
H380   H     0.97977   0.88901   0.42655   0.00000  Uiso   1.00
H381   H     0.78156   0.87738   0.07034   0.00000  Uiso   1.00
H382   H     0.68322   0.90118   0.02760   0.00000  Uiso   1.00
I383   I     0.88981   0.93422   0.11217   0.00000  Uiso   1.00
I384   I     0.84770   0.94391   0.37425   0.00000  Uiso   1.00
N385   N     0.81160   0.81890   0.23542   0.00000  Uiso   1.00
N386   N     0.85507   0.84777   0.26457   0.00000  Uiso   1.00
O387   O     0.96435   0.91296   0.25357   0.00000  Uiso   1.00
O388   O     0.72408   0.90371   0.24423   0.00000  Uiso   1.00
O389   O     0.98157   0.84024   0.33380   0.00000  Uiso   1.00
O390   O     0.74130   0.83099   0.32446   0.00000  Uiso   1.00
O391   O     0.94258   0.76296   0.25576   0.00000  Uiso   1.00
O392   O     0.70231   0.75371   0.24642   0.00000  Uiso   1.00
O393   O     0.92537   0.83567   0.17554   0.00000  Uiso   1.00
O394   O     0.68510   0.82642   0.16620   0.00000  Uiso   1.00
Zn395  Zn    0.93786   0.83951   0.25623   0.00000  Uiso   1.00
Zn396  Zn    0.72881   0.82716   0.24376   0.00000  Uiso   1.00
C397   C     0.01481   0.26483   0.74880   0.00000  Uiso   1.00
C398   C     0.06152   0.19936   0.91125   0.00000  Uiso   1.00
C399   C     0.02260   0.31939   0.74831   0.00000  Uiso   1.00
C400   C     0.03795   0.17848   0.85360   0.00000  Uiso   1.00
C401   C     0.31108   0.01399   0.75267   0.00000  Uiso   1.00
C402   C     0.31865   0.06853   0.75156   0.00000  Uiso   1.00
C403   C     0.29668   0.16380   0.64560   0.00000  Uiso   1.00
C404   C     0.27568   0.13385   0.99375   0.00000  Uiso   1.00
C405   C     0.27560   0.16470   0.58671   0.00000  Uiso   1.00
C406   C     0.02470   0.21606   0.94452   0.00000  Uiso   1.00
C407   C     0.04574   0.22369   0.50175   0.00000  Uiso   1.00
C408   C     0.14221   0.20269   0.99211   0.00000  Uiso   1.00
C409   C     0.10288   0.21271   0.52590   0.00000  Uiso   1.00
C410   C     0.12176   0.20183   0.93454   0.00000  Uiso   1.00
C411   C     0.19940   0.18749   0.51205   0.00000  Uiso   1.00
C412   C     0.22764   0.16264   0.97421   0.00000  Uiso   1.00
C413   C     0.20988   0.17190   0.91810   0.00000  Uiso   1.00
C414   C     0.16296   0.20214   0.90202   0.00000  Uiso   1.00
C415   C     0.22954   0.19567   0.56693   0.00000  Uiso   1.00
C416   C     0.29787   0.13278   0.55055   0.00000  Uiso   1.00
H417   H     0.00044   0.10908   0.56608   0.00000  Uiso   1.00
H418   H     0.06492   0.00304   0.74419   0.00000  Uiso   1.00
H419   H     0.26877   0.33034   0.75684   0.00000  Uiso   1.00
H420   H     0.15675   0.12308   0.71148   0.00000  Uiso   1.00
H421   H     0.17582   0.21142   0.78557   0.00000  Uiso   1.00
H422   H     0.23624   0.16209   0.88930   0.00000  Uiso   1.00
H423   H     0.29614   0.11296   0.96536   0.00000  Uiso   1.00
H424   H     0.31311   0.22234   0.92655   0.00000  Uiso   1.00
H425   H     0.11489   0.21071   0.57034   0.00000  Uiso   1.00
H426   H     0.01655   0.23452   0.52760   0.00000  Uiso   1.00
I427   I     0.22314   0.26755   0.61217   0.00000  Uiso   1.00
I428   I     0.18104   0.27724   0.87425   0.00000  Uiso   1.00
N429   N     0.14493   0.15223   0.73542   0.00000  Uiso   1.00
N430   N     0.18840   0.18110   0.76457   0.00000  Uiso   1.00
O431   O     0.29769   0.24629   0.75357   0.00000  Uiso   1.00
O432   O     0.05742   0.23704   0.74423   0.00000  Uiso   1.00
O433   O     0.31490   0.17358   0.83380   0.00000  Uiso   1.00
O434   O     0.07463   0.16433   0.82446   0.00000  Uiso   1.00
O435   O     0.27592   0.09629   0.75576   0.00000  Uiso   1.00
O436   O     0.03565   0.08704   0.74642   0.00000  Uiso   1.00
O437   O     0.25870   0.16901   0.67554   0.00000  Uiso   1.00
O438   O     0.01843   0.15976   0.66620   0.00000  Uiso   1.00
Zn439  Zn    0.27119   0.17284   0.75623   0.00000  Uiso   1.00
Zn440  Zn    0.06214   0.16049   0.74376   0.00000  Uiso   1.00
C441   C     0.34815   0.26483   0.74880   0.00000  Uiso   1.00
C442   C     0.39486   0.19936   0.91125   0.00000  Uiso   1.00
C443   C     0.35593   0.31939   0.74831   0.00000  Uiso   1.00
C444   C     0.37129   0.17848   0.85360   0.00000  Uiso   1.00
C445   C     0.64442   0.01399   0.75267   0.00000  Uiso   1.00
C446   C     0.65198   0.06853   0.75156   0.00000  Uiso   1.00
C447   C     0.63001   0.16380   0.64560   0.00000  Uiso   1.00
C448   C     0.60902   0.13385   0.99375   0.00000  Uiso   1.00
C449   C     0.60893   0.16470   0.58671   0.00000  Uiso   1.00
C450   C     0.35803   0.21606   0.94452   0.00000  Uiso   1.00
C451   C     0.37907   0.22369   0.50175   0.00000  Uiso   1.00
C452   C     0.47554   0.20269   0.99211   0.00000  Uiso   1.00
C453   C     0.43622   0.21271   0.52590   0.00000  Uiso   1.00
C454   C     0.45509   0.20183   0.93454   0.00000  Uiso   1.00
C455   C     0.53273   0.18749   0.51205   0.00000  Uiso   1.00
C456   C     0.56097   0.16264   0.97421   0.00000  Uiso   1.00
C457   C     0.54321   0.17190   0.91810   0.00000  Uiso   1.00
C458   C     0.49630   0.20214   0.90202   0.00000  Uiso   1.00
C459   C     0.56287   0.19567   0.56693   0.00000  Uiso   1.00
C460   C     0.63120   0.13278   0.55055   0.00000  Uiso   1.00
H461   H     0.33377   0.10908   0.56608   0.00000  Uiso   1.00
H462   H     0.39826   0.00304   0.74419   0.00000  Uiso   1.00
H463   H     0.60211   0.33034   0.75684   0.00000  Uiso   1.00
H464   H     0.49008   0.12308   0.71148   0.00000  Uiso   1.00
H465   H     0.50916   0.21142   0.78557   0.00000  Uiso   1.00
H466   H     0.56957   0.16209   0.88930   0.00000  Uiso   1.00
H467   H     0.62948   0.11296   0.96536   0.00000  Uiso   1.00
H468   H     0.64644   0.22234   0.92655   0.00000  Uiso   1.00
H469   H     0.44822   0.21071   0.57034   0.00000  Uiso   1.00
H470   H     0.34988   0.23452   0.52760   0.00000  Uiso   1.00
I471   I     0.55647   0.26755   0.61217   0.00000  Uiso   1.00
I472   I     0.51437   0.27724   0.87425   0.00000  Uiso   1.00
N473   N     0.47827   0.15223   0.73542   0.00000  Uiso   1.00
N474   N     0.52173   0.18110   0.76457   0.00000  Uiso   1.00
O475   O     0.63102   0.24629   0.75357   0.00000  Uiso   1.00
O476   O     0.39075   0.23704   0.74423   0.00000  Uiso   1.00
O477   O     0.64823   0.17358   0.83380   0.00000  Uiso   1.00
O478   O     0.40796   0.16433   0.82446   0.00000  Uiso   1.00
O479   O     0.60925   0.09629   0.75576   0.00000  Uiso   1.00
O480   O     0.36898   0.08704   0.74642   0.00000  Uiso   1.00
O481   O     0.59204   0.16901   0.67554   0.00000  Uiso   1.00
O482   O     0.35177   0.15976   0.66620   0.00000  Uiso   1.00
Zn483  Zn    0.60453   0.17284   0.75623   0.00000  Uiso   1.00
Zn484  Zn    0.39547   0.16049   0.74376   0.00000  Uiso   1.00
C485   C     0.68148   0.26483   0.74880   0.00000  Uiso   1.00
C486   C     0.72819   0.19936   0.91125   0.00000  Uiso   1.00
C487   C     0.68926   0.31939   0.74831   0.00000  Uiso   1.00
C488   C     0.70462   0.17848   0.85360   0.00000  Uiso   1.00
C489   C     0.97775   0.01399   0.75267   0.00000  Uiso   1.00
C490   C     0.98531   0.06853   0.75156   0.00000  Uiso   1.00
C491   C     0.96335   0.16380   0.64560   0.00000  Uiso   1.00
C492   C     0.94235   0.13385   0.99375   0.00000  Uiso   1.00
C493   C     0.94227   0.16470   0.58671   0.00000  Uiso   1.00
C494   C     0.69137   0.21606   0.94452   0.00000  Uiso   1.00
C495   C     0.71240   0.22369   0.50175   0.00000  Uiso   1.00
C496   C     0.80888   0.20269   0.99211   0.00000  Uiso   1.00
C497   C     0.76955   0.21271   0.52590   0.00000  Uiso   1.00
C498   C     0.78843   0.20183   0.93454   0.00000  Uiso   1.00
C499   C     0.86606   0.18749   0.51205   0.00000  Uiso   1.00
C500   C     0.89430   0.16264   0.97421   0.00000  Uiso   1.00
C501   C     0.87654   0.17190   0.91810   0.00000  Uiso   1.00
C502   C     0.82963   0.20214   0.90202   0.00000  Uiso   1.00
C503   C     0.89620   0.19567   0.56693   0.00000  Uiso   1.00
C504   C     0.96453   0.13278   0.55055   0.00000  Uiso   1.00
H505   H     0.66710   0.10908   0.56608   0.00000  Uiso   1.00
H506   H     0.73159   0.00304   0.74419   0.00000  Uiso   1.00
H507   H     0.93544   0.33034   0.75684   0.00000  Uiso   1.00
H508   H     0.82341   0.12308   0.71148   0.00000  Uiso   1.00
H509   H     0.84249   0.21142   0.78557   0.00000  Uiso   1.00
H510   H     0.90291   0.16209   0.88930   0.00000  Uiso   1.00
H511   H     0.96281   0.11296   0.96536   0.00000  Uiso   1.00
H512   H     0.97977   0.22234   0.92655   0.00000  Uiso   1.00
H513   H     0.78156   0.21071   0.57034   0.00000  Uiso   1.00
H514   H     0.68322   0.23452   0.52760   0.00000  Uiso   1.00
I515   I     0.88981   0.26755   0.61217   0.00000  Uiso   1.00
I516   I     0.84770   0.27724   0.87425   0.00000  Uiso   1.00
N517   N     0.81160   0.15223   0.73542   0.00000  Uiso   1.00
N518   N     0.85507   0.18110   0.76457   0.00000  Uiso   1.00
O519   O     0.96435   0.24629   0.75357   0.00000  Uiso   1.00
O520   O     0.72408   0.23704   0.74423   0.00000  Uiso   1.00
O521   O     0.98157   0.17358   0.83380   0.00000  Uiso   1.00
O522   O     0.74130   0.16433   0.82446   0.00000  Uiso   1.00
O523   O     0.94258   0.09629   0.75576   0.00000  Uiso   1.00
O524   O     0.70231   0.08704   0.74642   0.00000  Uiso   1.00
O525   O     0.92537   0.16901   0.67554   0.00000  Uiso   1.00
O526   O     0.68510   0.15976   0.66620   0.00000  Uiso   1.00
Zn527  Zn    0.93786   0.17284   0.75623   0.00000  Uiso   1.00
Zn528  Zn    0.72881   0.16049   0.74376   0.00000  Uiso   1.00
C529   C     0.01481   0.59816   0.74880   0.00000  Uiso   1.00
C530   C     0.06152   0.53270   0.91125   0.00000  Uiso   1.00
C531   C     0.02260   0.65272   0.74831   0.00000  Uiso   1.00
C532   C     0.03795   0.51182   0.85360   0.00000  Uiso   1.00
C533   C     0.31108   0.34733   0.75267   0.00000  Uiso   1.00
C534   C     0.31865   0.40186   0.75156   0.00000  Uiso   1.00
C535   C     0.29668   0.49713   0.64560   0.00000  Uiso   1.00
C536   C     0.27568   0.46718   0.99375   0.00000  Uiso   1.00
C537   C     0.27560   0.49803   0.58671   0.00000  Uiso   1.00
C538   C     0.02470   0.54939   0.94452   0.00000  Uiso   1.00
C539   C     0.04574   0.55702   0.50175   0.00000  Uiso   1.00
C540   C     0.14221   0.53602   0.99211   0.00000  Uiso   1.00
C541   C     0.10288   0.54605   0.52590   0.00000  Uiso   1.00
C542   C     0.12176   0.53517   0.93454   0.00000  Uiso   1.00
C543   C     0.19940   0.52083   0.51205   0.00000  Uiso   1.00
C544   C     0.22764   0.49597   0.97421   0.00000  Uiso   1.00
C545   C     0.20988   0.50523   0.91810   0.00000  Uiso   1.00
C546   C     0.16296   0.53547   0.90202   0.00000  Uiso   1.00
C547   C     0.22954   0.52901   0.56693   0.00000  Uiso   1.00
C548   C     0.29787   0.46611   0.55055   0.00000  Uiso   1.00
H549   H     0.00044   0.44241   0.56608   0.00000  Uiso   1.00
H550   H     0.06492   0.33637   0.74419   0.00000  Uiso   1.00
H551   H     0.26877   0.66367   0.75684   0.00000  Uiso   1.00
H552   H     0.15675   0.45641   0.71148   0.00000  Uiso   1.00
H553   H     0.17582   0.54475   0.78557   0.00000  Uiso   1.00
H554   H     0.23624   0.49543   0.88930   0.00000  Uiso   1.00
H555   H     0.29614   0.44629   0.96536   0.00000  Uiso   1.00
H556   H     0.31311   0.55567   0.92655   0.00000  Uiso   1.00
H557   H     0.11489   0.54404   0.57034   0.00000  Uiso   1.00
H558   H     0.01655   0.56785   0.52760   0.00000  Uiso   1.00
I559   I     0.22314   0.60089   0.61217   0.00000  Uiso   1.00
I560   I     0.18104   0.61058   0.87425   0.00000  Uiso   1.00
N561   N     0.14493   0.48556   0.73542   0.00000  Uiso   1.00
N562   N     0.18840   0.51444   0.76457   0.00000  Uiso   1.00
O563   O     0.29769   0.57963   0.75357   0.00000  Uiso   1.00
O564   O     0.05742   0.57038   0.74423   0.00000  Uiso   1.00
O565   O     0.31490   0.50691   0.83380   0.00000  Uiso   1.00
O566   O     0.07463   0.49766   0.82446   0.00000  Uiso   1.00
O567   O     0.27592   0.42962   0.75576   0.00000  Uiso   1.00
O568   O     0.03565   0.42037   0.74642   0.00000  Uiso   1.00
O569   O     0.25870   0.50234   0.67554   0.00000  Uiso   1.00
O570   O     0.01843   0.49309   0.66620   0.00000  Uiso   1.00
Zn571  Zn    0.27119   0.50618   0.75623   0.00000  Uiso   1.00
Zn572  Zn    0.06214   0.49382   0.74376   0.00000  Uiso   1.00
C573   C     0.34815   0.59816   0.74880   0.00000  Uiso   1.00
C574   C     0.39486   0.53270   0.91125   0.00000  Uiso   1.00
C575   C     0.35593   0.65272   0.74831   0.00000  Uiso   1.00
C576   C     0.37129   0.51182   0.85360   0.00000  Uiso   1.00
C577   C     0.64442   0.34733   0.75267   0.00000  Uiso   1.00
C578   C     0.65198   0.40186   0.75156   0.00000  Uiso   1.00
C579   C     0.63001   0.49713   0.64560   0.00000  Uiso   1.00
C580   C     0.60902   0.46718   0.99375   0.00000  Uiso   1.00
C581   C     0.60893   0.49803   0.58671   0.00000  Uiso   1.00
C582   C     0.35803   0.54939   0.94452   0.00000  Uiso   1.00
C583   C     0.37907   0.55702   0.50175   0.00000  Uiso   1.00
C584   C     0.47554   0.53602   0.99211   0.00000  Uiso   1.00
C585   C     0.43622   0.54605   0.52590   0.00000  Uiso   1.00
C586   C     0.45509   0.53517   0.93454   0.00000  Uiso   1.00
C587   C     0.53273   0.52083   0.51205   0.00000  Uiso   1.00
C588   C     0.56097   0.49597   0.97421   0.00000  Uiso   1.00
C589   C     0.54321   0.50523   0.91810   0.00000  Uiso   1.00
C590   C     0.49630   0.53547   0.90202   0.00000  Uiso   1.00
C591   C     0.56287   0.52901   0.56693   0.00000  Uiso   1.00
C592   C     0.63120   0.46611   0.55055   0.00000  Uiso   1.00
H593   H     0.33377   0.44241   0.56608   0.00000  Uiso   1.00
H594   H     0.39826   0.33637   0.74419   0.00000  Uiso   1.00
H595   H     0.60211   0.66367   0.75684   0.00000  Uiso   1.00
H596   H     0.49008   0.45641   0.71148   0.00000  Uiso   1.00
H597   H     0.50916   0.54475   0.78557   0.00000  Uiso   1.00
H598   H     0.56957   0.49543   0.88930   0.00000  Uiso   1.00
H599   H     0.62948   0.44629   0.96536   0.00000  Uiso   1.00
H600   H     0.64644   0.55567   0.92655   0.00000  Uiso   1.00
H601   H     0.44822   0.54404   0.57034   0.00000  Uiso   1.00
H602   H     0.34988   0.56785   0.52760   0.00000  Uiso   1.00
I603   I     0.55647   0.60089   0.61217   0.00000  Uiso   1.00
I604   I     0.51437   0.61058   0.87425   0.00000  Uiso   1.00
N605   N     0.47827   0.48556   0.73542   0.00000  Uiso   1.00
N606   N     0.52173   0.51444   0.76457   0.00000  Uiso   1.00
O607   O     0.63102   0.57963   0.75357   0.00000  Uiso   1.00
O608   O     0.39075   0.57038   0.74423   0.00000  Uiso   1.00
O609   O     0.64823   0.50691   0.83380   0.00000  Uiso   1.00
O610   O     0.40796   0.49766   0.82446   0.00000  Uiso   1.00
O611   O     0.60925   0.42962   0.75576   0.00000  Uiso   1.00
O612   O     0.36898   0.42037   0.74642   0.00000  Uiso   1.00
O613   O     0.59204   0.50234   0.67554   0.00000  Uiso   1.00
O614   O     0.35177   0.49309   0.66620   0.00000  Uiso   1.00
Zn615  Zn    0.60453   0.50618   0.75623   0.00000  Uiso   1.00
Zn616  Zn    0.39547   0.49382   0.74376   0.00000  Uiso   1.00
C617   C     0.68148   0.59816   0.74880   0.00000  Uiso   1.00
C618   C     0.72819   0.53270   0.91125   0.00000  Uiso   1.00
C619   C     0.68926   0.65272   0.74831   0.00000  Uiso   1.00
C620   C     0.70462   0.51182   0.85360   0.00000  Uiso   1.00
C621   C     0.97775   0.34733   0.75267   0.00000  Uiso   1.00
C622   C     0.98531   0.40186   0.75156   0.00000  Uiso   1.00
C623   C     0.96335   0.49713   0.64560   0.00000  Uiso   1.00
C624   C     0.94235   0.46718   0.99375   0.00000  Uiso   1.00
C625   C     0.94227   0.49803   0.58671   0.00000  Uiso   1.00
C626   C     0.69137   0.54939   0.94452   0.00000  Uiso   1.00
C627   C     0.71240   0.55702   0.50175   0.00000  Uiso   1.00
C628   C     0.80888   0.53602   0.99211   0.00000  Uiso   1.00
C629   C     0.76955   0.54605   0.52590   0.00000  Uiso   1.00
C630   C     0.78843   0.53517   0.93454   0.00000  Uiso   1.00
C631   C     0.86606   0.52083   0.51205   0.00000  Uiso   1.00
C632   C     0.89430   0.49597   0.97421   0.00000  Uiso   1.00
C633   C     0.87654   0.50523   0.91810   0.00000  Uiso   1.00
C634   C     0.82963   0.53547   0.90202   0.00000  Uiso   1.00
C635   C     0.89620   0.52901   0.56693   0.00000  Uiso   1.00
C636   C     0.96453   0.46611   0.55055   0.00000  Uiso   1.00
H637   H     0.66710   0.44241   0.56608   0.00000  Uiso   1.00
H638   H     0.73159   0.33637   0.74419   0.00000  Uiso   1.00
H639   H     0.93544   0.66367   0.75684   0.00000  Uiso   1.00
H640   H     0.82341   0.45641   0.71148   0.00000  Uiso   1.00
H641   H     0.84249   0.54475   0.78557   0.00000  Uiso   1.00
H642   H     0.90291   0.49543   0.88930   0.00000  Uiso   1.00
H643   H     0.96281   0.44629   0.96536   0.00000  Uiso   1.00
H644   H     0.97977   0.55567   0.92655   0.00000  Uiso   1.00
H645   H     0.78156   0.54404   0.57034   0.00000  Uiso   1.00
H646   H     0.68322   0.56785   0.52760   0.00000  Uiso   1.00
I647   I     0.88981   0.60089   0.61217   0.00000  Uiso   1.00
I648   I     0.84770   0.61058   0.87425   0.00000  Uiso   1.00
N649   N     0.81160   0.48556   0.73542   0.00000  Uiso   1.00
N650   N     0.85507   0.51444   0.76457   0.00000  Uiso   1.00
O651   O     0.96435   0.57963   0.75357   0.00000  Uiso   1.00
O652   O     0.72408   0.57038   0.74423   0.00000  Uiso   1.00
O653   O     0.98157   0.50691   0.83380   0.00000  Uiso   1.00
O654   O     0.74130   0.49766   0.82446   0.00000  Uiso   1.00
O655   O     0.94258   0.42962   0.75576   0.00000  Uiso   1.00
O656   O     0.70231   0.42037   0.74642   0.00000  Uiso   1.00
O657   O     0.92537   0.50234   0.67554   0.00000  Uiso   1.00
O658   O     0.68510   0.49309   0.66620   0.00000  Uiso   1.00
Zn659  Zn    0.93786   0.50618   0.75623   0.00000  Uiso   1.00
Zn660  Zn    0.72881   0.49382   0.74376   0.00000  Uiso   1.00
C661   C     0.01481   0.93150   0.74880   0.00000  Uiso   1.00
C662   C     0.06152   0.86603   0.91125   0.00000  Uiso   1.00
C663   C     0.02260   0.98606   0.74831   0.00000  Uiso   1.00
C664   C     0.03795   0.84515   0.85360   0.00000  Uiso   1.00
C665   C     0.31108   0.68066   0.75267   0.00000  Uiso   1.00
C666   C     0.31865   0.73519   0.75156   0.00000  Uiso   1.00
C667   C     0.29668   0.83046   0.64560   0.00000  Uiso   1.00
C668   C     0.27568   0.80052   0.99375   0.00000  Uiso   1.00
C669   C     0.27560   0.83136   0.58671   0.00000  Uiso   1.00
C670   C     0.02470   0.88273   0.94452   0.00000  Uiso   1.00
C671   C     0.04574   0.89035   0.50175   0.00000  Uiso   1.00
C672   C     0.14221   0.86936   0.99211   0.00000  Uiso   1.00
C673   C     0.10288   0.87938   0.52590   0.00000  Uiso   1.00
C674   C     0.12176   0.86850   0.93454   0.00000  Uiso   1.00
C675   C     0.19940   0.85416   0.51205   0.00000  Uiso   1.00
C676   C     0.22764   0.82931   0.97421   0.00000  Uiso   1.00
C677   C     0.20988   0.83856   0.91810   0.00000  Uiso   1.00
C678   C     0.16296   0.86880   0.90202   0.00000  Uiso   1.00
C679   C     0.22954   0.86234   0.56693   0.00000  Uiso   1.00
C680   C     0.29787   0.79945   0.55055   0.00000  Uiso   1.00
H681   H     0.00044   0.77575   0.56608   0.00000  Uiso   1.00
H682   H     0.06492   0.66970   0.74419   0.00000  Uiso   1.00
H683   H     0.26877   0.99700   0.75684   0.00000  Uiso   1.00
H684   H     0.15675   0.78975   0.71148   0.00000  Uiso   1.00
H685   H     0.17582   0.87808   0.78557   0.00000  Uiso   1.00
H686   H     0.23624   0.82876   0.88930   0.00000  Uiso   1.00
H687   H     0.29614   0.77963   0.96536   0.00000  Uiso   1.00
H688   H     0.31311   0.88901   0.92655   0.00000  Uiso   1.00
H689   H     0.11489   0.87738   0.57034   0.00000  Uiso   1.00
H690   H     0.01655   0.90118   0.52760   0.00000  Uiso   1.00
I691   I     0.22314   0.93422   0.61217   0.00000  Uiso   1.00
I692   I     0.18104   0.94391   0.87425   0.00000  Uiso   1.00
N693   N     0.14493   0.81890   0.73542   0.00000  Uiso   1.00
N694   N     0.18840   0.84777   0.76457   0.00000  Uiso   1.00
O695   O     0.29769   0.91296   0.75357   0.00000  Uiso   1.00
O696   O     0.05742   0.90371   0.74423   0.00000  Uiso   1.00
O697   O     0.31490   0.84024   0.83380   0.00000  Uiso   1.00
O698   O     0.07463   0.83099   0.82446   0.00000  Uiso   1.00
O699   O     0.27592   0.76296   0.75576   0.00000  Uiso   1.00
O700   O     0.03565   0.75371   0.74642   0.00000  Uiso   1.00
O701   O     0.25870   0.83567   0.67554   0.00000  Uiso   1.00
O702   O     0.01843   0.82642   0.66620   0.00000  Uiso   1.00
Zn703  Zn    0.27119   0.83951   0.75623   0.00000  Uiso   1.00
Zn704  Zn    0.06214   0.82716   0.74376   0.00000  Uiso   1.00
C705   C     0.34815   0.93150   0.74880   0.00000  Uiso   1.00
C706   C     0.39486   0.86603   0.91125   0.00000  Uiso   1.00
C707   C     0.35593   0.98606   0.74831   0.00000  Uiso   1.00
C708   C     0.37129   0.84515   0.85360   0.00000  Uiso   1.00
C709   C     0.64442   0.68066   0.75267   0.00000  Uiso   1.00
C710   C     0.65198   0.73519   0.75156   0.00000  Uiso   1.00
C711   C     0.63001   0.83046   0.64560   0.00000  Uiso   1.00
C712   C     0.60902   0.80052   0.99375   0.00000  Uiso   1.00
C713   C     0.60893   0.83136   0.58671   0.00000  Uiso   1.00
C714   C     0.35803   0.88273   0.94452   0.00000  Uiso   1.00
C715   C     0.37907   0.89035   0.50175   0.00000  Uiso   1.00
C716   C     0.47554   0.86936   0.99211   0.00000  Uiso   1.00
C717   C     0.43622   0.87938   0.52590   0.00000  Uiso   1.00
C718   C     0.45509   0.86850   0.93454   0.00000  Uiso   1.00
C719   C     0.53273   0.85416   0.51205   0.00000  Uiso   1.00
C720   C     0.56097   0.82931   0.97421   0.00000  Uiso   1.00
C721   C     0.54321   0.83856   0.91810   0.00000  Uiso   1.00
C722   C     0.49630   0.86880   0.90202   0.00000  Uiso   1.00
C723   C     0.56287   0.86234   0.56693   0.00000  Uiso   1.00
C724   C     0.63120   0.79945   0.55055   0.00000  Uiso   1.00
H725   H     0.33377   0.77575   0.56608   0.00000  Uiso   1.00
H726   H     0.39826   0.66970   0.74419   0.00000  Uiso   1.00
H727   H     0.60211   0.99700   0.75684   0.00000  Uiso   1.00
H728   H     0.49008   0.78975   0.71148   0.00000  Uiso   1.00
H729   H     0.50916   0.87808   0.78557   0.00000  Uiso   1.00
H730   H     0.56957   0.82876   0.88930   0.00000  Uiso   1.00
H731   H     0.62948   0.77963   0.96536   0.00000  Uiso   1.00
H732   H     0.64644   0.88901   0.92655   0.00000  Uiso   1.00
H733   H     0.44822   0.87738   0.57034   0.00000  Uiso   1.00
H734   H     0.34988   0.90118   0.52760   0.00000  Uiso   1.00
I735   I     0.55647   0.93422   0.61217   0.00000  Uiso   1.00
I736   I     0.51437   0.94391   0.87425   0.00000  Uiso   1.00
N737   N     0.47827   0.81890   0.73542   0.00000  Uiso   1.00
N738   N     0.52173   0.84777   0.76457   0.00000  Uiso   1.00
O739   O     0.63102   0.91296   0.75357   0.00000  Uiso   1.00
O740   O     0.39075   0.90371   0.74423   0.00000  Uiso   1.00
O741   O     0.64823   0.84024   0.83380   0.00000  Uiso   1.00
O742   O     0.40796   0.83099   0.82446   0.00000  Uiso   1.00
O743   O     0.60925   0.76296   0.75576   0.00000  Uiso   1.00
O744   O     0.36898   0.75371   0.74642   0.00000  Uiso   1.00
O745   O     0.59204   0.83567   0.67554   0.00000  Uiso   1.00
O746   O     0.35177   0.82642   0.66620   0.00000  Uiso   1.00
Zn747  Zn    0.60453   0.83951   0.75623   0.00000  Uiso   1.00
Zn748  Zn    0.39547   0.82716   0.74376   0.00000  Uiso   1.00
C749   C     0.68148   0.93150   0.74880   0.00000  Uiso   1.00
C750   C     0.72819   0.86603   0.91125   0.00000  Uiso   1.00
C751   C     0.68926   0.98606   0.74831   0.00000  Uiso   1.00
C752   C     0.70462   0.84515   0.85360   0.00000  Uiso   1.00
C753   C     0.97775   0.68066   0.75267   0.00000  Uiso   1.00
C754   C     0.98531   0.73519   0.75156   0.00000  Uiso   1.00
C755   C     0.96335   0.83046   0.64560   0.00000  Uiso   1.00
C756   C     0.94235   0.80052   0.99375   0.00000  Uiso   1.00
C757   C     0.94227   0.83136   0.58671   0.00000  Uiso   1.00
C758   C     0.69137   0.88273   0.94452   0.00000  Uiso   1.00
C759   C     0.71240   0.89035   0.50175   0.00000  Uiso   1.00
C760   C     0.80888   0.86936   0.99211   0.00000  Uiso   1.00
C761   C     0.76955   0.87938   0.52590   0.00000  Uiso   1.00
C762   C     0.78843   0.86850   0.93454   0.00000  Uiso   1.00
C763   C     0.86606   0.85416   0.51205   0.00000  Uiso   1.00
C764   C     0.89430   0.82931   0.97421   0.00000  Uiso   1.00
C765   C     0.87654   0.83856   0.91810   0.00000  Uiso   1.00
C766   C     0.82963   0.86880   0.90202   0.00000  Uiso   1.00
C767   C     0.89620   0.86234   0.56693   0.00000  Uiso   1.00
C768   C     0.96453   0.79945   0.55055   0.00000  Uiso   1.00
H769   H     0.66710   0.77575   0.56608   0.00000  Uiso   1.00
H770   H     0.73159   0.66970   0.74419   0.00000  Uiso   1.00
H771   H     0.93544   0.99700   0.75684   0.00000  Uiso   1.00
H772   H     0.82341   0.78975   0.71148   0.00000  Uiso   1.00
H773   H     0.84249   0.87808   0.78557   0.00000  Uiso   1.00
H774   H     0.90291   0.82876   0.88930   0.00000  Uiso   1.00
H775   H     0.96281   0.77963   0.96536   0.00000  Uiso   1.00
H776   H     0.97977   0.88901   0.92655   0.00000  Uiso   1.00
H777   H     0.78156   0.87738   0.57034   0.00000  Uiso   1.00
H778   H     0.68322   0.90118   0.52760   0.00000  Uiso   1.00
I779   I     0.88981   0.93422   0.61217   0.00000  Uiso   1.00
I780   I     0.84770   0.94391   0.87425   0.00000  Uiso   1.00
N781   N     0.81160   0.81890   0.73542   0.00000  Uiso   1.00
N782   N     0.85507   0.84777   0.76457   0.00000  Uiso   1.00
O783   O     0.96435   0.91296   0.75357   0.00000  Uiso   1.00
O784   O     0.72408   0.90371   0.74423   0.00000  Uiso   1.00
O785   O     0.98157   0.84024   0.83380   0.00000  Uiso   1.00
O786   O     0.74130   0.83099   0.82446   0.00000  Uiso   1.00
O787   O     0.94258   0.76296   0.75576   0.00000  Uiso   1.00
O788   O     0.70231   0.75371   0.74642   0.00000  Uiso   1.00
O789   O     0.92537   0.83567   0.67554   0.00000  Uiso   1.00
O790   O     0.68510   0.82642   0.66620   0.00000  Uiso   1.00
Zn791  Zn    0.93786   0.83951   0.75623   0.00000  Uiso   1.00
Zn792  Zn    0.72881   0.82716   0.74376   0.00000  Uiso   1.00
loop_
_geom_bond_atom_site_label_1
_geom_bond_atom_site_label_2
_geom_bond_distance
_geom_bond_site_symmetry_2
_ccdc_geom_bond_type
C1     O36     1.292   .     A
C1     C3      1.403   .     S
C1     O123    1.281   1_455 S
C2     C4      1.478   .     S
C2     C14     1.401   .     A
C2     C10     1.401   .     A
C3     C225    1.337   1_455 S
C3     H154    1.088   .     S
C4     O38     1.305   .     A
C4     O125    1.302   1_455 S
C5     C6      1.403   .     S
C5     C311    1.337   1_545 S
C5     H287    1.088   1_545 S
C6     O39     1.292   .     A
C6     O84     1.281   .     S
C7     O41     1.295   .     A
C7     C9      1.435   .     S
C7     O86     1.294   .     S
C8     C16     1.398   .     A
C8     H27     1.084   .     S
C8     C416    1.391   .     S
C9     C20     1.402   .     A
C9     C19     1.398   .     A
C10    C407    1.396   .     S
C10    H116    1.076   1_455 S
C11    H30     1.082   .     S
C11    C13     1.395   .     A
C11    C406    1.396   1_554 S
C12    C14     1.400   .     A
C12    C409    1.411   .     S
C12    C411    1.412   .     S
C13    H29     1.079   .     S
C13    C408    1.411   1_554 S
C14    C18     1.394   .     A
C15    C19     1.387   .     A
C15    C408    1.412   1_554 S
C15    C412    1.422   1_554 S
C16    C17     1.395   .     A
C16    C411    1.422   .     S
C17    H26     1.080   .     S
C17    C18     1.386   .     A
C18    I32     2.123   .     S
C19    I31     2.156   .     S
C20    C404    1.391   1_554 S
C20    H65     1.083   .     S
H21    C108    1.083   1_455 S
H22    C267    1.088   1_545 S
H23    C137    1.088   .     S
H24    N33     1.029   .     S
H25    N34     1.017   .     S
H28    C54     1.076   .     S
N33    N34     1.281   .     D
N33    Zn44    2.029   .     S
N34    Zn43    2.029   .     S
O35    Zn43    1.956   .     S
O35    C45     1.281   .     S
O36    Zn44    1.978   .     S
O37    Zn43    1.966   .     S
O37    C48     1.302   .     S
O38    Zn44    1.955   .     S
O39    Zn43    1.978   .     S
O40    Zn44    1.956   .     S
O40    C94     1.281   1_455 S
O41    Zn43    1.955   .     S
O42    Zn44    1.966   .     S
O42    C95     1.294   1_455 S
C45    O80     1.292   .     A
C45    C47     1.403   .     S
C46    C48     1.478   .     S
C46    C58     1.401   .     A
C46    C54     1.401   .     A
C47    C137    1.337   .     S
C47    H198    1.088   .     S
C48    O82     1.305   .     A
C49    C50     1.403   .     S
C49    C355    1.337   1_545 S
C49    H331    1.088   1_545 S
C50    O83     1.292   .     A
C50    O128    1.281   .     S
C51    O85     1.295   .     A
C51    C53     1.435   .     S
C51    O130    1.294   .     S
C52    C60     1.398   .     A
C52    H71     1.084   .     S
C52    C460    1.391   .     S
C53    C64     1.402   .     A
C53    C63     1.398   .     A
C54    C451    1.396   .     S
C55    H74     1.082   .     S
C55    C57     1.395   .     A
C55    C450    1.396   1_554 S
C56    C58     1.400   .     A
C56    C453    1.411   .     S
C56    C455    1.412   .     S
C57    H73     1.079   .     S
C57    C452    1.411   1_554 S
C58    C62     1.394   .     A
C59    C63     1.387   .     A
C59    C452    1.412   1_554 S
C59    C456    1.422   1_554 S
C60    C61     1.395   .     A
C60    C455    1.422   .     S
C61    H70     1.080   .     S
C61    C62     1.386   .     A
C62    I76     2.123   .     S
C63    I75     2.156   .     S
C64    C448    1.391   1_554 S
C64    H109    1.083   .     S
H66    C311    1.088   1_545 S
H67    C181    1.088   .     S
H68    N77     1.029   .     S
H69    N78     1.017   .     S
H72    C98     1.076   .     S
N77    N78     1.281   .     D
N77    Zn88    2.029   .     S
N78    Zn87    2.029   .     S
O79    Zn87    1.956   .     S
O79    C89     1.281   .     S
O80    Zn88    1.978   .     S
O81    Zn87    1.966   .     S
O81    C92     1.302   .     S
O82    Zn88    1.955   .     S
O83    Zn87    1.978   .     S
O84    Zn88    1.956   .     S
O85    Zn87    1.955   .     S
O86    Zn88    1.966   .     S
C89    O124    1.292   .     A
C89    C91     1.403   .     S
C90    C92     1.478   .     S
C90    C102    1.401   .     A
C90    C98     1.401   .     A
C91    C181    1.337   .     S
C91    H242    1.088   .     S
C92    O126    1.305   .     A
C93    C94     1.403   .     S
C93    C267    1.337   1_645 S
C93    H375    1.088   1_545 S
C94    O127    1.292   .     A
C94    O40     1.281   1_655 S
C95    O129    1.295   .     A
C95    C97     1.435   .     S
C95    O42     1.294   1_655 S
C96    C104    1.398   .     A
C96    H115    1.084   .     S
C96    C504    1.391   .     S
C97    C108    1.402   .     A
C97    C107    1.398   .     A
C98    C495    1.396   .     S
C99    H118    1.082   .     S
C99    C101    1.395   .     A
C99    C494    1.396   1_554 S
C100   C102    1.400   .     A
C100   C497    1.411   .     S
C100   C499    1.412   .     S
C101   H117    1.079   .     S
C101   C496    1.411   1_554 S
C102   C106    1.394   .     A
C103   C107    1.387   .     A
C103   C496    1.412   1_554 S
C103   C500    1.422   1_554 S
C104   C105    1.395   .     A
C104   C499    1.422   .     S
C105   H114    1.080   .     S
C105   C106    1.386   .     A
C106   I120    2.123   .     S
C107   I119    2.156   .     S
C108   C492    1.391   1_554 S
C108   H21     1.083   1_655 S
H110   C355    1.088   1_545 S
H111   C225    1.088   .     S
H112   N121    1.029   .     S
H113   N122    1.017   .     S
H116   C10     1.076   1_655 S
N121   N122    1.281   .     D
N121   Zn132   2.029   .     S
N122   Zn131   2.029   .     S
O123   Zn131   1.956   .     S
O123   C1      1.281   1_655 S
O124   Zn132   1.978   .     S
O125   Zn131   1.966   .     S
O125   C4      1.302   1_655 S
O126   Zn132   1.955   .     S
O127   Zn131   1.978   .     S
O128   Zn132   1.956   .     S
O129   Zn131   1.955   .     S
O130   Zn132   1.966   .     S
C133   O168    1.292   .     A
C133   C135    1.403   .     S
C133   O255    1.281   1_455 S
C134   C136    1.478   .     S
C134   C146    1.401   .     A
C134   C142    1.401   .     A
C135   C357    1.337   1_455 S
C135   H286    1.088   .     S
C136   O170    1.305   .     A
C136   O257    1.302   1_455 S
C137   C138    1.403   .     S
C138   O171    1.292   .     A
C138   O216    1.281   .     S
C139   O173    1.295   .     A
C139   C141    1.435   .     S
C139   O218    1.294   .     S
C140   C148    1.398   .     A
C140   H159    1.084   .     S
C140   C548    1.391   .     S
C141   C152    1.402   .     A
C141   C151    1.398   .     A
C142   C539    1.396   .     S
C142   H248    1.076   1_455 S
C143   H162    1.082   .     S
C143   C145    1.395   .     A
C143   C538    1.396   1_554 S
C144   C146    1.400   .     A
C144   C541    1.411   .     S
C144   C543    1.412   .     S
C145   H161    1.079   .     S
C145   C540    1.411   1_554 S
C146   C150    1.394   .     A
C147   C151    1.387   .     A
C147   C540    1.412   1_554 S
C147   C544    1.422   1_554 S
C148   C149    1.395   .     A
C148   C543    1.422   .     S
C149   H158    1.080   .     S
C149   C150    1.386   .     A
C150   I164    2.123   .     S
C151   I163    2.156   .     S
C152   C536    1.391   1_554 S
C152   H197    1.083   .     S
H153   C240    1.083   1_455 S
H155   C269    1.088   .     S
H156   N165    1.029   .     S
H157   N166    1.017   .     S
H160   C186    1.076   .     S
N165   N166    1.281   .     D
N165   Zn176   2.029   .     S
N166   Zn175   2.029   .     S
O167   Zn175   1.956   .     S
O167   C177    1.281   .     S
O168   Zn176   1.978   .     S
O169   Zn175   1.966   .     S
O169   C180    1.302   .     S
O170   Zn176   1.955   .     S
O171   Zn175   1.978   .     S
O172   Zn176   1.956   .     S
O172   C226    1.281   1_455 S
O173   Zn175   1.955   .     S
O174   Zn176   1.966   .     S
O174   C227    1.294   1_455 S
C177   O212    1.292   .     A
C177   C179    1.403   .     S
C178   C180    1.478   .     S
C178   C190    1.401   .     A
C178   C186    1.401   .     A
C179   C269    1.337   .     S
C179   H330    1.088   .     S
C180   O214    1.305   .     A
C181   C182    1.403   .     S
C182   O215    1.292   .     A
C182   O260    1.281   .     S
C183   O217    1.295   .     A
C183   C185    1.435   .     S
C183   O262    1.294   .     S
C184   C192    1.398   .     A
C184   H203    1.084   .     S
C184   C592    1.391   .     S
C185   C196    1.402   .     A
C185   C195    1.398   .     A
C186   C583    1.396   .     S
C187   H206    1.082   .     S
C187   C189    1.395   .     A
C187   C582    1.396   1_554 S
C188   C190    1.400   .     A
C188   C585    1.411   .     S
C188   C587    1.412   .     S
C189   H205    1.079   .     S
C189   C584    1.411   1_554 S
C190   C194    1.394   .     A
C191   C195    1.387   .     A
C191   C584    1.412   1_554 S
C191   C588    1.422   1_554 S
C192   C193    1.395   .     A
C192   C587    1.422   .     S
C193   H202    1.080   .     S
C193   C194    1.386   .     A
C194   I208    2.123   .     S
C195   I207    2.156   .     S
C196   C580    1.391   1_554 S
C196   H241    1.083   .     S
H199   C313    1.088   .     S
H200   N209    1.029   .     S
H201   N210    1.017   .     S
H204   C230    1.076   .     S
N209   N210    1.281   .     D
N209   Zn220   2.029   .     S
N210   Zn219   2.029   .     S
O211   Zn219   1.956   .     S
O211   C221    1.281   .     S
O212   Zn220   1.978   .     S
O213   Zn219   1.966   .     S
O213   C224    1.302   .     S
O214   Zn220   1.955   .     S
O215   Zn219   1.978   .     S
O216   Zn220   1.956   .     S
O217   Zn219   1.955   .     S
O218   Zn220   1.966   .     S
C221   O256    1.292   .     A
C221   C223    1.403   .     S
C222   C224    1.478   .     S
C222   C234    1.401   .     A
C222   C230    1.401   .     A
C223   C313    1.337   .     S
C223   H374    1.088   .     S
C224   O258    1.305   .     A
C225   C226    1.403   .     S
C225   C3      1.337   1_655 S
C226   O259    1.292   .     A
C226   O172    1.281   1_655 S
C227   O261    1.295   .     A
C227   C229    1.435   .     S
C227   O174    1.294   1_655 S
C228   C236    1.398   .     A
C228   H247    1.084   .     S
C228   C636    1.391   .     S
C229   C240    1.402   .     A
C229   C239    1.398   .     A
C230   C627    1.396   .     S
C231   H250    1.082   .     S
C231   C233    1.395   .     A
C231   C626    1.396   1_554 S
C232   C234    1.400   .     A
C232   C629    1.411   .     S
C232   C631    1.412   .     S
C233   H249    1.079   .     S
C233   C628    1.411   1_554 S
C234   C238    1.394   .     A
C235   C239    1.387   .     A
C235   C628    1.412   1_554 S
C235   C632    1.422   1_554 S
C236   C237    1.395   .     A
C236   C631    1.422   .     S
C237   H246    1.080   .     S
C237   C238    1.386   .     A
C238   I252    2.123   .     S
C239   I251    2.156   .     S
C240   C624    1.391   1_554 S
C240   H153    1.083   1_655 S
H243   C357    1.088   .     S
H244   N253    1.029   .     S
H245   N254    1.017   .     S
H248   C142    1.076   1_655 S
N253   N254    1.281   .     D
N253   Zn264   2.029   .     S
N254   Zn263   2.029   .     S
O255   Zn263   1.956   .     S
O255   C133    1.281   1_655 S
O256   Zn264   1.978   .     S
O257   Zn263   1.966   .     S
O257   C136    1.302   1_655 S
O258   Zn264   1.955   .     S
O259   Zn263   1.978   .     S
O260   Zn264   1.956   .     S
O261   Zn263   1.955   .     S
O262   Zn264   1.966   .     S
C265   O300    1.292   .     A
C265   C267    1.403   .     S
C265   O387    1.281   1_455 S
C266   C268    1.478   .     S
C266   C278    1.401   .     A
C266   C274    1.401   .     A
C267   C93     1.337   1_465 S
C267   H22     1.088   1_565 S
C268   O302    1.305   .     A
C268   O389    1.302   1_455 S
C269   C270    1.403   .     S
C270   O303    1.292   .     A
C270   O348    1.281   .     S
C271   O305    1.295   .     A
C271   C273    1.435   .     S
C271   O350    1.294   .     S
C272   C280    1.398   .     A
C272   H291    1.084   .     S
C272   C680    1.391   .     S
C273   C284    1.402   .     A
C273   C283    1.398   .     A
C274   C671    1.396   .     S
C274   H380    1.076   1_455 S
C275   H294    1.082   .     S
C275   C277    1.395   .     A
C275   C670    1.396   1_554 S
C276   C278    1.400   .     A
C276   C673    1.411   .     S
C276   C675    1.412   .     S
C277   H293    1.079   .     S
C277   C672    1.411   1_554 S
C278   C282    1.394   .     A
C279   C283    1.387   .     A
C279   C672    1.412   1_554 S
C279   C676    1.422   1_554 S
C280   C281    1.395   .     A
C280   C675    1.422   .     S
C281   H290    1.080   .     S
C281   C282    1.386   .     A
C282   I296    2.123   .     S
C283   I295    2.156   .     S
C284   C668    1.391   1_554 S
C284   H329    1.083   .     S
H285   C372    1.083   1_455 S
H287   C5      1.088   1_565 S
H288   N297    1.029   .     S
H289   N298    1.017   .     S
H292   C318    1.076   .     S
N297   N298    1.281   .     D
N297   Zn308   2.029   .     S
N298   Zn307   2.029   .     S
O299   Zn307   1.956   .     S
O299   C309    1.281   .     S
O300   Zn308   1.978   .     S
O301   Zn307   1.966   .     S
O301   C312    1.302   .     S
O302   Zn308   1.955   .     S
O303   Zn307   1.978   .     S
O304   Zn308   1.956   .     S
O304   C358    1.281   1_455 S
O305   Zn307   1.955   .     S
O306   Zn308   1.966   .     S
O306   C359    1.294   1_455 S
C309   O344    1.292   .     A
C309   C311    1.403   .     S
C310   C312    1.478   .     S
C310   C322    1.401   .     A
C310   C318    1.401   .     A
C311   C5      1.337   1_565 S
C311   H66     1.088   1_565 S
C312   O346    1.305   .     A
C313   C314    1.403   .     S
C314   O347    1.292   .     A
C314   O392    1.281   .     S
C315   O349    1.295   .     A
C315   C317    1.435   .     S
C315   O394    1.294   .     S
C316   C324    1.398   .     A
C316   H335    1.084   .     S
C316   C724    1.391   .     S
C317   C328    1.402   .     A
C317   C327    1.398   .     A
C318   C715    1.396   .     S
C319   H338    1.082   .     S
C319   C321    1.395   .     A
C319   C714    1.396   1_554 S
C320   C322    1.400   .     A
C320   C717    1.411   .     S
C320   C719    1.412   .     S
C321   H337    1.079   .     S
C321   C716    1.411   1_554 S
C322   C326    1.394   .     A
C323   C327    1.387   .     A
C323   C716    1.412   1_554 S
C323   C720    1.422   1_554 S
C324   C325    1.395   .     A
C324   C719    1.422   .     S
C325   H334    1.080   .     S
C325   C326    1.386   .     A
C326   I340    2.123   .     S
C327   I339    2.156   .     S
C328   C712    1.391   1_554 S
C328   H373    1.083   .     S
H331   C49     1.088   1_565 S
H332   N341    1.029   .     S
H333   N342    1.017   .     S
H336   C362    1.076   .     S
N341   N342    1.281   .     D
N341   Zn352   2.029   .     S
N342   Zn351   2.029   .     S
O343   Zn351   1.956   .     S
O343   C353    1.281   .     S
O344   Zn352   1.978   .     S
O345   Zn351   1.966   .     S
O345   C356    1.302   .     S
O346   Zn352   1.955   .     S
O347   Zn351   1.978   .     S
O348   Zn352   1.956   .     S
O349   Zn351   1.955   .     S
O350   Zn352   1.966   .     S
C353   O388    1.292   .     A
C353   C355    1.403   .     S
C354   C356    1.478   .     S
C354   C366    1.401   .     A
C354   C362    1.401   .     A
C355   C49     1.337   1_565 S
C355   H110    1.088   1_565 S
C356   O390    1.305   .     A
C357   C358    1.403   .     S
C357   C135    1.337   1_655 S
C358   O391    1.292   .     A
C358   O304    1.281   1_655 S
C359   O393    1.295   .     A
C359   C361    1.435   .     S
C359   O306    1.294   1_655 S
C360   C368    1.398   .     A
C360   H379    1.084   .     S
C360   C768    1.391   .     S
C361   C372    1.402   .     A
C361   C371    1.398   .     A
C362   C759    1.396   .     S
C363   H382    1.082   .     S
C363   C365    1.395   .     A
C363   C758    1.396   1_554 S
C364   C366    1.400   .     A
C364   C761    1.411   .     S
C364   C763    1.412   .     S
C365   H381    1.079   .     S
C365   C760    1.411   1_554 S
C366   C370    1.394   .     A
C367   C371    1.387   .     A
C367   C760    1.412   1_554 S
C367   C764    1.422   1_554 S
C368   C369    1.395   .     A
C368   C763    1.422   .     S
C369   H378    1.080   .     S
C369   C370    1.386   .     A
C370   I384    2.123   .     S
C371   I383    2.156   .     S
C372   C756    1.391   1_554 S
C372   H285    1.083   1_655 S
H375   C93     1.088   1_565 S
H376   N385    1.029   .     S
H377   N386    1.017   .     S
H380   C274    1.076   1_655 S
N385   N386    1.281   .     D
N385   Zn396   2.029   .     S
N386   Zn395   2.029   .     S
O387   Zn395   1.956   .     S
O387   C265    1.281   1_655 S
O388   Zn396   1.978   .     S
O389   Zn395   1.966   .     S
O389   C268    1.302   1_655 S
O390   Zn396   1.955   .     S
O391   Zn395   1.978   .     S
O392   Zn396   1.956   .     S
O393   Zn395   1.955   .     S
O394   Zn396   1.966   .     S
C397   O432    1.292   .     A
C397   C399    1.403   .     S
C397   O519    1.281   1_455 S
C398   C400    1.478   .     S
C398   C410    1.401   .     A
C398   C406    1.401   .     A
C399   C621    1.337   1_455 S
C399   H550    1.088   .     S
C400   O434    1.305   .     A
C400   O521    1.302   1_455 S
C401   C402    1.403   .     S
C401   C707    1.337   1_545 S
C401   H683    1.088   1_545 S
C402   O435    1.292   .     A
C402   O480    1.281   .     S
C403   O437    1.295   .     A
C403   C405    1.435   .     S
C403   O482    1.294   .     S
C404   C412    1.398   .     A
C404   H423    1.084   .     S
C404   C20     1.391   1_556 S
C405   C416    1.402   .     A
C405   C415    1.398   .     A
C406   C11     1.396   1_556 S
C406   H512    1.076   1_455 S
C407   H426    1.082   .     S
C407   C409    1.395   .     A
C408   C410    1.400   .     A
C408   C13     1.411   1_556 S
C408   C15     1.412   1_556 S
C409   H425    1.079   .     S
C410   C414    1.394   .     A
C411   C415    1.387   .     A
C412   C413    1.395   .     A
C412   C15     1.422   1_556 S
C413   H422    1.080   .     S
C413   C414    1.386   .     A
C414   I428    2.123   .     S
C415   I427    2.156   .     S
C416   H461    1.083   .     S
H417   C504    1.083   1_455 S
H418   C663    1.088   1_545 S
H419   C533    1.088   .     S
H420   N429    1.029   .     S
H421   N430    1.017   .     S
H424   C450    1.076   .     S
N429   N430    1.281   .     D
N429   Zn440   2.029   .     S
N430   Zn439   2.029   .     S
O431   Zn439   1.956   .     S
O431   C441    1.281   .     S
O432   Zn440   1.978   .     S
O433   Zn439   1.966   .     S
O433   C444    1.302   .     S
O434   Zn440   1.955   .     S
O435   Zn439   1.978   .     S
O436   Zn440   1.956   .     S
O436   C490    1.281   1_455 S
O437   Zn439   1.955   .     S
O438   Zn440   1.966   .     S
O438   C491    1.294   1_455 S
C441   O476    1.292   .     A
C441   C443    1.403   .     S
C442   C444    1.478   .     S
C442   C454    1.401   .     A
C442   C450    1.401   .     A
C443   C533    1.337   .     S
C443   H594    1.088   .     S
C444   O478    1.305   .     A
C445   C446    1.403   .     S
C445   C751    1.337   1_545 S
C445   H727    1.088   1_545 S
C446   O479    1.292   .     A
C446   O524    1.281   .     S
C447   O481    1.295   .     A
C447   C449    1.435   .     S
C447   O526    1.294   .     S
C448   C456    1.398   .     A
C448   H467    1.084   .     S
C448   C64     1.391   1_556 S
C449   C460    1.402   .     A
C449   C459    1.398   .     A
C450   C55     1.396   1_556 S
C451   H470    1.082   .     S
C451   C453    1.395   .     A
C452   C454    1.400   .     A
C452   C57     1.411   1_556 S
C452   C59     1.412   1_556 S
C453   H469    1.079   .     S
C454   C458    1.394   .     A
C455   C459    1.387   .     A
C456   C457    1.395   .     A
C456   C59     1.422   1_556 S
C457   H466    1.080   .     S
C457   C458    1.386   .     A
C458   I472    2.123   .     S
C459   I471    2.156   .     S
C460   H505    1.083   .     S
H462   C707    1.088   1_545 S
H463   C577    1.088   .     S
H464   N473    1.029   .     S
H465   N474    1.017   .     S
H468   C494    1.076   .     S
N473   N474    1.281   .     D
N473   Zn484   2.029   .     S
N474   Zn483   2.029   .     S
O475   Zn483   1.956   .     S
O475   C485    1.281   .     S
O476   Zn484   1.978   .     S
O477   Zn483   1.966   .     S
O477   C488    1.302   .     S
O478   Zn484   1.955   .     S
O479   Zn483   1.978   .     S
O480   Zn484   1.956   .     S
O481   Zn483   1.955   .     S
O482   Zn484   1.966   .     S
C485   O520    1.292   .     A
C485   C487    1.403   .     S
C486   C488    1.478   .     S
C486   C498    1.401   .     A
C486   C494    1.401   .     A
C487   C577    1.337   .     S
C487   H638    1.088   .     S
C488   O522    1.305   .     A
C489   C490    1.403   .     S
C489   C663    1.337   1_645 S
C489   H771    1.088   1_545 S
C490   O523    1.292   .     A
C490   O436    1.281   1_655 S
C491   O525    1.295   .     A
C491   C493    1.435   .     S
C491   O438    1.294   1_655 S
C492   C500    1.398   .     A
C492   H511    1.084   .     S
C492   C108    1.391   1_556 S
C493   C504    1.402   .     A
C493   C503    1.398   .     A
C494   C99     1.396   1_556 S
C495   H514    1.082   .     S
C495   C497    1.395   .     A
C496   C498    1.400   .     A
C496   C101    1.411   1_556 S
C496   C103    1.412   1_556 S
C497   H513    1.079   .     S
C498   C502    1.394   .     A
C499   C503    1.387   .     A
C500   C501    1.395   .     A
C500   C103    1.422   1_556 S
C501   H510    1.080   .     S
C501   C502    1.386   .     A
C502   I516    2.123   .     S
C503   I515    2.156   .     S
C504   H417    1.083   1_655 S
H506   C751    1.088   1_545 S
H507   C621    1.088   .     S
H508   N517    1.029   .     S
H509   N518    1.017   .     S
H512   C406    1.076   1_655 S
N517   N518    1.281   .     D
N517   Zn528   2.029   .     S
N518   Zn527   2.029   .     S
O519   Zn527   1.956   .     S
O519   C397    1.281   1_655 S
O520   Zn528   1.978   .     S
O521   Zn527   1.966   .     S
O521   C400    1.302   1_655 S
O522   Zn528   1.955   .     S
O523   Zn527   1.978   .     S
O524   Zn528   1.956   .     S
O525   Zn527   1.955   .     S
O526   Zn528   1.966   .     S
C529   O564    1.292   .     A
C529   C531    1.403   .     S
C529   O651    1.281   1_455 S
C530   C532    1.478   .     S
C530   C542    1.401   .     A
C530   C538    1.401   .     A
C531   C753    1.337   1_455 S
C531   H682    1.088   .     S
C532   O566    1.305   .     A
C532   O653    1.302   1_455 S
C533   C534    1.403   .     S
C534   O567    1.292   .     A
C534   O612    1.281   .     S
C535   O569    1.295   .     A
C535   C537    1.435   .     S
C535   O614    1.294   .     S
C536   C544    1.398   .     A
C536   H555    1.084   .     S
C536   C152    1.391   1_556 S
C537   C548    1.402   .     A
C537   C547    1.398   .     A
C538   C143    1.396   1_556 S
C538   H644    1.076   1_455 S
C539   H558    1.082   .     S
C539   C541    1.395   .     A
C540   C542    1.400   .     A
C540   C145    1.411   1_556 S
C540   C147    1.412   1_556 S
C541   H557    1.079   .     S
C542   C546    1.394   .     A
C543   C547    1.387   .     A
C544   C545    1.395   .     A
C544   C147    1.422   1_556 S
C545   H554    1.080   .     S
C545   C546    1.386   .     A
C546   I560    2.123   .     S
C547   I559    2.156   .     S
C548   H593    1.083   .     S
H549   C636    1.083   1_455 S
H551   C665    1.088   .     S
H552   N561    1.029   .     S
H553   N562    1.017   .     S
H556   C582    1.076   .     S
N561   N562    1.281   .     D
N561   Zn572   2.029   .     S
N562   Zn571   2.029   .     S
O563   Zn571   1.956   .     S
O563   C573    1.281   .     S
O564   Zn572   1.978   .     S
O565   Zn571   1.966   .     S
O565   C576    1.302   .     S
O566   Zn572   1.955   .     S
O567   Zn571   1.978   .     S
O568   Zn572   1.956   .     S
O568   C622    1.281   1_455 S
O569   Zn571   1.955   .     S
O570   Zn572   1.966   .     S
O570   C623    1.294   1_455 S
C573   O608    1.292   .     A
C573   C575    1.403   .     S
C574   C576    1.478   .     S
C574   C586    1.401   .     A
C574   C582    1.401   .     A
C575   C665    1.337   .     S
C575   H726    1.088   .     S
C576   O610    1.305   .     A
C577   C578    1.403   .     S
C578   O611    1.292   .     A
C578   O656    1.281   .     S
C579   O613    1.295   .     A
C579   C581    1.435   .     S
C579   O658    1.294   .     S
C580   C588    1.398   .     A
C580   H599    1.084   .     S
C580   C196    1.391   1_556 S
C581   C592    1.402   .     A
C581   C591    1.398   .     A
C582   C187    1.396   1_556 S
C583   H602    1.082   .     S
C583   C585    1.395   .     A
C584   C586    1.400   .     A
C584   C189    1.411   1_556 S
C584   C191    1.412   1_556 S
C585   H601    1.079   .     S
C586   C590    1.394   .     A
C587   C591    1.387   .     A
C588   C589    1.395   .     A
C588   C191    1.422   1_556 S
C589   H598    1.080   .     S
C589   C590    1.386   .     A
C590   I604    2.123   .     S
C591   I603    2.156   .     S
C592   H637    1.083   .     S
H595   C709    1.088   .     S
H596   N605    1.029   .     S
H597   N606    1.017   .     S
H600   C626    1.076   .     S
N605   N606    1.281   .     D
N605   Zn616   2.029   .     S
N606   Zn615   2.029   .     S
O607   Zn615   1.956   .     S
O607   C617    1.281   .     S
O608   Zn616   1.978   .     S
O609   Zn615   1.966   .     S
O609   C620    1.302   .     S
O610   Zn616   1.955   .     S
O611   Zn615   1.978   .     S
O612   Zn616   1.956   .     S
O613   Zn615   1.955   .     S
O614   Zn616   1.966   .     S
C617   O652    1.292   .     A
C617   C619    1.403   .     S
C618   C620    1.478   .     S
C618   C630    1.401   .     A
C618   C626    1.401   .     A
C619   C709    1.337   .     S
C619   H770    1.088   .     S
C620   O654    1.305   .     A
C621   C622    1.403   .     S
C621   C399    1.337   1_655 S
C622   O655    1.292   .     A
C622   O568    1.281   1_655 S
C623   O657    1.295   .     A
C623   C625    1.435   .     S
C623   O570    1.294   1_655 S
C624   C632    1.398   .     A
C624   H643    1.084   .     S
C624   C240    1.391   1_556 S
C625   C636    1.402   .     A
C625   C635    1.398   .     A
C626   C231    1.396   1_556 S
C627   H646    1.082   .     S
C627   C629    1.395   .     A
C628   C630    1.400   .     A
C628   C233    1.411   1_556 S
C628   C235    1.412   1_556 S
C629   H645    1.079   .     S
C630   C634    1.394   .     A
C631   C635    1.387   .     A
C632   C633    1.395   .     A
C632   C235    1.422   1_556 S
C633   H642    1.080   .     S
C633   C634    1.386   .     A
C634   I648    2.123   .     S
C635   I647    2.156   .     S
C636   H549    1.083   1_655 S
H639   C753    1.088   .     S
H640   N649    1.029   .     S
H641   N650    1.017   .     S
H644   C538    1.076   1_655 S
N649   N650    1.281   .     D
N649   Zn660   2.029   .     S
N650   Zn659   2.029   .     S
O651   Zn659   1.956   .     S
O651   C529    1.281   1_655 S
O652   Zn660   1.978   .     S
O653   Zn659   1.966   .     S
O653   C532    1.302   1_655 S
O654   Zn660   1.955   .     S
O655   Zn659   1.978   .     S
O656   Zn660   1.956   .     S
O657   Zn659   1.955   .     S
O658   Zn660   1.966   .     S
C661   O696    1.292   .     A
C661   C663    1.403   .     S
C661   O783    1.281   1_455 S
C662   C664    1.478   .     S
C662   C674    1.401   .     A
C662   C670    1.401   .     A
C663   C489    1.337   1_465 S
C663   H418    1.088   1_565 S
C664   O698    1.305   .     A
C664   O785    1.302   1_455 S
C665   C666    1.403   .     S
C666   O699    1.292   .     A
C666   O744    1.281   .     S
C667   O701    1.295   .     A
C667   C669    1.435   .     S
C667   O746    1.294   .     S
C668   C676    1.398   .     A
C668   H687    1.084   .     S
C668   C284    1.391   1_556 S
C669   C680    1.402   .     A
C669   C679    1.398   .     A
C670   C275    1.396   1_556 S
C670   H776    1.076   1_455 S
C671   H690    1.082   .     S
C671   C673    1.395   .     A
C672   C674    1.400   .     A
C672   C277    1.411   1_556 S
C672   C279    1.412   1_556 S
C673   H689    1.079   .     S
C674   C678    1.394   .     A
C675   C679    1.387   .     A
C676   C677    1.395   .     A
C676   C279    1.422   1_556 S
C677   H686    1.080   .     S
C677   C678    1.386   .     A
C678   I692    2.123   .     S
C679   I691    2.156   .     S
C680   H725    1.083   .     S
H681   C768    1.083   1_455 S
H683   C401    1.088   1_565 S
H684   N693    1.029   .     S
H685   N694    1.017   .     S
H688   C714    1.076   .     S
N693   N694    1.281   .     D
N693   Zn704   2.029   .     S
N694   Zn703   2.029   .     S
O695   Zn703   1.956   .     S
O695   C705    1.281   .     S
O696   Zn704   1.978   .     S
O697   Zn703   1.966   .     S
O697   C708    1.302   .     S
O698   Zn704   1.955   .     S
O699   Zn703   1.978   .     S
O700   Zn704   1.956   .     S
O700   C754    1.281   1_455 S
O701   Zn703   1.955   .     S
O702   Zn704   1.966   .     S
O702   C755    1.294   1_455 S
C705   O740    1.292   .     A
C705   C707    1.403   .     S
C706   C708    1.478   .     S
C706   C718    1.401   .     A
C706   C714    1.401   .     A
C707   C401    1.337   1_565 S
C707   H462    1.088   1_565 S
C708   O742    1.305   .     A
C709   C710    1.403   .     S
C710   O743    1.292   .     A
C710   O788    1.281   .     S
C711   O745    1.295   .     A
C711   C713    1.435   .     S
C711   O790    1.294   .     S
C712   C720    1.398   .     A
C712   H731    1.084   .     S
C712   C328    1.391   1_556 S
C713   C724    1.402   .     A
C713   C723    1.398   .     A
C714   C319    1.396   1_556 S
C715   H734    1.082   .     S
C715   C717    1.395   .     A
C716   C718    1.400   .     A
C716   C321    1.411   1_556 S
C716   C323    1.412   1_556 S
C717   H733    1.079   .     S
C718   C722    1.394   .     A
C719   C723    1.387   .     A
C720   C721    1.395   .     A
C720   C323    1.422   1_556 S
C721   H730    1.080   .     S
C721   C722    1.386   .     A
C722   I736    2.123   .     S
C723   I735    2.156   .     S
C724   H769    1.083   .     S
H727   C445    1.088   1_565 S
H728   N737    1.029   .     S
H729   N738    1.017   .     S
H732   C758    1.076   .     S
N737   N738    1.281   .     D
N737   Zn748   2.029   .     S
N738   Zn747   2.029   .     S
O739   Zn747   1.956   .     S
O739   C749    1.281   .     S
O740   Zn748   1.978   .     S
O741   Zn747   1.966   .     S
O741   C752    1.302   .     S
O742   Zn748   1.955   .     S
O743   Zn747   1.978   .     S
O744   Zn748   1.956   .     S
O745   Zn747   1.955   .     S
O746   Zn748   1.966   .     S
C749   O784    1.292   .     A
C749   C751    1.403   .     S
C750   C752    1.478   .     S
C750   C762    1.401   .     A
C750   C758    1.401   .     A
C751   C445    1.337   1_565 S
C751   H506    1.088   1_565 S
C752   O786    1.305   .     A
C753   C754    1.403   .     S
C753   C531    1.337   1_655 S
C754   O787    1.292   .     A
C754   O700    1.281   1_655 S
C755   O789    1.295   .     A
C755   C757    1.435   .     S
C755   O702    1.294   1_655 S
C756   C764    1.398   .     A
C756   H775    1.084   .     S
C756   C372    1.391   1_556 S
C757   C768    1.402   .     A
C757   C767    1.398   .     A
C758   C363    1.396   1_556 S
C759   H778    1.082   .     S
C759   C761    1.395   .     A
C760   C762    1.400   .     A
C760   C365    1.411   1_556 S
C760   C367    1.412   1_556 S
C761   H777    1.079   .     S
C762   C766    1.394   .     A
C763   C767    1.387   .     A
C764   C765    1.395   .     A
C764   C367    1.422   1_556 S
C765   H774    1.080   .     S
C765   C766    1.386   .     A
C766   I780    2.123   .     S
C767   I779    2.156   .     S
C768   H681    1.083   1_655 S
H771   C489    1.088   1_565 S
H772   N781    1.029   .     S
H773   N782    1.017   .     S
H776   C670    1.076   1_655 S
N781   N782    1.281   .     D
N781   Zn792   2.029   .     S
N782   Zn791   2.029   .     S
O783   Zn791   1.956   .     S
O783   C661    1.281   1_655 S
O784   Zn792   1.978   .     S
O785   Zn791   1.966   .     S
O785   C664    1.302   1_655 S
O786   Zn792   1.955   .     S
O787   Zn791   1.978   .     S
O788   Zn792   1.956   .     S
O789   Zn791   1.955   .     S
O790   Zn792   1.966   .     S
