data_str_m3_o1_o1_pcu_sym.37
_audit_creation_date              2020-01-03
_audit_creation_method            'Materials Studio'
_symmetry_space_group_name_H-M    'P1'
_symmetry_Int_Tables_number       1
_symmetry_cell_setting            triclinic
loop_
_symmetry_equiv_pos_as_xyz
  x,y,z
_cell_length_a                    31.5812
_cell_length_b                    29.4414
_cell_length_c                    29.8607
_cell_angle_alpha                 91.8507
_cell_angle_beta                  90.3793
_cell_angle_gamma                 90.3977
loop_
_atom_site_label
_atom_site_type_symbol
_atom_site_fract_x
_atom_site_fract_y
_atom_site_fract_z
_atom_site_U_iso_or_equiv
_atom_site_adp_type
_atom_site_occupancy
C1     C     0.05969   0.18996   0.16668   0.00000  Uiso   1.00
C2     C     0.00044   0.21000   0.30851   0.00000  Uiso   1.00
C3     C     0.00075   0.21014   0.02246   0.00000  Uiso   1.00
C4     C     0.00123   0.28994   0.31086   0.00000  Uiso   1.00
C5     C     0.25448   0.03973   0.02494   0.00000  Uiso   1.00
C6     C     0.24743   0.46010   0.30841   0.00000  Uiso   1.00
C7     C     0.24718   0.46025   0.02232   0.00000  Uiso   1.00
C8     C     0.25382   0.03978   0.31092   0.00000  Uiso   1.00
C9     C     0.40170   0.12623   0.12958   0.00000  Uiso   1.00
C10    C     0.09062   0.38041   0.19764   0.00000  Uiso   1.00
C11    C     0.12312   0.34062   0.13319   0.00000  Uiso   1.00
C12    C     0.43956   0.30931   0.16729   0.00000  Uiso   1.00
C13    C     0.37315   0.16272   0.19814   0.00000  Uiso   1.00
C14    C     0.11747   0.15229   0.20681   0.00000  Uiso   1.00
C15    C     0.37478   0.33836   0.13420   0.00000  Uiso   1.00
C16    C     0.40068   0.37187   0.20540   0.00000  Uiso   1.00
C17    C     0.09867   0.12858   0.12965   0.00000  Uiso   1.00
C18    C     0.15080   0.37693   0.12897   0.00000  Uiso   1.00
C19    C     0.34037   0.13083   0.19750   0.00000  Uiso   1.00
C20    C     0.37308   0.09066   0.13319   0.00000  Uiso   1.00
C21    C     0.12335   0.41232   0.19832   0.00000  Uiso   1.00
C22    C     0.37226   0.40741   0.20191   0.00000  Uiso   1.00
C23    C     0.43926   0.19090   0.16604   0.00000  Uiso   1.00
C24    C     0.13465   0.10227   0.12732   0.00000  Uiso   1.00
C25    C     0.14663   0.11731   0.20794   0.00000  Uiso   1.00
C26    C     0.34280   0.37024   0.13382   0.00000  Uiso   1.00
C27    C     0.09276   0.34310   0.16728   0.00000  Uiso   1.00
C28    C     0.40423   0.15954   0.16453   0.00000  Uiso   1.00
C29    C     0.40469   0.34045   0.16898   0.00000  Uiso   1.00
C30    C     0.09263   0.15681   0.16759   0.00000  Uiso   1.00
C31    C     0.34247   0.09350   0.16711   0.00000  Uiso   1.00
C32    C     0.15404   0.40963   0.16441   0.00000  Uiso   1.00
C33    C     0.15709   0.09398   0.16738   0.00000  Uiso   1.00
C34    C     0.06003   0.30960   0.16708   0.00000  Uiso   1.00
C35    C     0.34279   0.40623   0.16627   0.00000  Uiso   1.00
C36    C     0.40545   0.15161   0.05406   0.00000  Uiso   1.00
C37    C     0.02005   0.41035   0.20157   0.00000  Uiso   1.00
C38    C     0.15145   0.26672   0.11231   0.00000  Uiso   1.00
C39    C     0.38966   0.19280   0.27342   0.00000  Uiso   1.00
C40    C     0.13630   0.22224   0.24748   0.00000  Uiso   1.00
C41    C     0.38706   0.31152   0.05770   0.00000  Uiso   1.00
C42    C     0.39996   0.33790   0.27738   0.00000  Uiso   1.00
C43    C     0.03693   0.08809   0.10255   0.00000  Uiso   1.00
C44    C     0.14816   0.40742   0.05562   0.00000  Uiso   1.00
C45    C     0.30977   0.43980   0.16634   0.00000  Uiso   1.00
C46    C     0.26862   0.15804   0.20384   0.00000  Uiso   1.00
C47    C     0.39528   0.01339   0.11643   0.00000  Uiso   1.00
C48    C     0.13845   0.44172   0.27397   0.00000  Uiso   1.00
C49    C     0.40453   0.47738   0.23320   0.00000  Uiso   1.00
C50    C     0.16886   0.11860   0.05802   0.00000  Uiso   1.00
C51    C     0.14152   0.07207   0.27369   0.00000  Uiso   1.00
C52    C     0.27157   0.34352   0.11680   0.00000  Uiso   1.00
C53    C     0.19031   0.06044   0.16695   0.00000  Uiso   1.00
C54    C     0.18916   0.44098   0.16600   0.00000  Uiso   1.00
C55    C     0.30983   0.05985   0.16706   0.00000  Uiso   1.00
C56    C     0.00090   0.29003   0.02484   0.00000  Uiso   1.00
H57    H     0.49975   0.32788   0.07881   0.00000  Uiso   1.00
H58    H     0.37480   0.13461   0.04555   0.00000  Uiso   1.00
H59    H     0.42539   0.15030   0.02365   0.00000  Uiso   1.00
H60    H     0.39938   0.18776   0.06353   0.00000  Uiso   1.00
H61    H     0.05972   0.40110   0.25616   0.00000  Uiso   1.00
H62    H     0.49374   0.41706   0.22508   0.00000  Uiso   1.00
H63    H     0.00793   0.38879   0.17302   0.00000  Uiso   1.00
H64    H     0.03118   0.44346   0.18903   0.00000  Uiso   1.00
H65    H     0.12464   0.31181   0.06819   0.00000  Uiso   1.00
H66    H     0.18485   0.27883   0.11306   0.00000  Uiso   1.00
H67    H     0.14814   0.23867   0.08672   0.00000  Uiso   1.00
H68    H     0.00000   0.17215   0.25449   0.00000  Uiso   1.00
H69    H     0.14312   0.25312   0.14527   0.00000  Uiso   1.00
H70    H     0.34504   0.21919   0.22945   0.00000  Uiso   1.00
H71    H     0.40839   0.22299   0.28504   0.00000  Uiso   1.00
H72    H     0.41069   0.16265   0.27328   0.00000  Uiso   1.00
H73    H     0.36366   0.18773   0.29762   0.00000  Uiso   1.00
H74    H     0.11048   0.16483   0.27590   0.00000  Uiso   1.00
H75    H     0.17063   0.21426   0.24640   0.00000  Uiso   1.00
H76    H     0.12958   0.24181   0.27902   0.00000  Uiso   1.00
H77    H     0.12779   0.24379   0.21911   0.00000  Uiso   1.00
H78    H     0.34677   0.28174   0.10304   0.00000  Uiso   1.00
H79    H     0.49949   0.17369   0.07440   0.00000  Uiso   1.00
H80    H     0.39359   0.27947   0.03843   0.00000  Uiso   1.00
H81    H     0.41630   0.33270   0.05854   0.00000  Uiso   1.00
H82    H     0.36160   0.32996   0.04026   0.00000  Uiso   1.00
H83    H     0.43403   0.39530   0.26204   0.00000  Uiso   1.00
H84    H     0.37036   0.35488   0.28847   0.00000  Uiso   1.00
H85    H     0.42002   0.33228   0.30719   0.00000  Uiso   1.00
H86    H     0.39185   0.30431   0.26147   0.00000  Uiso   1.00
H87    H     0.07820   0.12410   0.06299   0.00000  Uiso   1.00
H88    H     0.01451   0.08525   0.07385   0.00000  Uiso   1.00
H89    H     0.01871   0.09540   0.13364   0.00000  Uiso   1.00
H90    H     0.00066   0.32659   0.25886   0.00000  Uiso   1.00
H91    H     0.05338   0.05501   0.10520   0.00000  Uiso   1.00
H92    H     0.18501   0.35313   0.07401   0.00000  Uiso   1.00
H93    H     0.11780   0.38964   0.04744   0.00000  Uiso   1.00
H94    H     0.16637   0.41014   0.02427   0.00000  Uiso   1.00
H95    H     0.14137   0.44226   0.06893   0.00000  Uiso   1.00
H96    H     0.31052   0.15102   0.25694   0.00000  Uiso   1.00
H97    H     0.24160   0.16012   0.22737   0.00000  Uiso   1.00
H98    H     0.25841   0.13758   0.17373   0.00000  Uiso   1.00
H99    H     0.27705   0.19297   0.19384   0.00000  Uiso   1.00
H100   H     0.37976   0.06046   0.06877   0.00000  Uiso   1.00
H101   H     0.25085   0.07817   0.07798   0.00000  Uiso   1.00
H102   H     0.42919   0.02152   0.12319   0.00000  Uiso   1.00
H103   H     0.39311   0.48589   0.09016   0.00000  Uiso   1.00
H104   H     0.38023   0.00091   0.14708   0.00000  Uiso   1.00
H105   H     0.09545   0.46917   0.22893   0.00000  Uiso   1.00
H106   H     0.15915   0.47041   0.28538   0.00000  Uiso   1.00
H107   H     0.15714   0.40986   0.27470   0.00000  Uiso   1.00
H108   H     0.11175   0.43939   0.29781   0.00000  Uiso   1.00
H109   H     0.36514   0.43286   0.26748   0.00000  Uiso   1.00
H110   H     0.42425   0.47772   0.26416   0.00000  Uiso   1.00
H111   H     0.38968   0.01124   0.23044   0.00000  Uiso   1.00
H112   H     0.25044   0.42205   0.25472   0.00000  Uiso   1.00
H113   H     0.42567   0.47126   0.20401   0.00000  Uiso   1.00
H114   H     0.12586   0.06573   0.06713   0.00000  Uiso   1.00
H115   H     0.18198   0.10213   0.02738   0.00000  Uiso   1.00
H116   H     0.19518   0.13534   0.07730   0.00000  Uiso   1.00
H117   H     0.14618   0.14503   0.04780   0.00000  Uiso   1.00
H118   H     0.17603   0.13248   0.26972   0.00000  Uiso   1.00
H119   H     0.11397   0.08793   0.29080   0.00000  Uiso   1.00
H120   H     0.16226   0.05670   0.29905   0.00000  Uiso   1.00
H121   H     0.13000   0.04436   0.25051   0.00000  Uiso   1.00
H122   H     0.30815   0.38879   0.07806   0.00000  Uiso   1.00
H123   H     0.24674   0.42414   0.07415   0.00000  Uiso   1.00
H124   H     0.25307   0.33041   0.08745   0.00000  Uiso   1.00
H125   H     0.25260   0.36885   0.13613   0.00000  Uiso   1.00
H126   H     0.27858   0.31433   0.13829   0.00000  Uiso   1.00
H127   H     0.25009   0.07682   0.25943   0.00000  Uiso   1.00
H128   H     0.44087   0.09918   0.08018   0.00000  Uiso   1.00
N129   N     0.00000   0.25000   0.28573   0.00000  Uiso   1.00
N130   N     0.37421   0.30091   0.10259   0.00000  Uiso   1.00
N131   N     0.42278   0.36588   0.24652   0.00000  Uiso   1.00
N132   N     0.06715   0.12427   0.09536   0.00000  Uiso   1.00
N133   N     0.17248   0.38249   0.08788   0.00000  Uiso   1.00
N134   N     0.30433   0.13710   0.22551   0.00000  Uiso   1.00
N135   N     0.37337   0.05311   0.10152   0.00000  Uiso   1.00
N136   N     0.12274   0.45017   0.22934   0.00000  Uiso   1.00
N137   N     0.37157   0.44303   0.23550   0.00000  Uiso   1.00
N138   N     0.14822   0.08484   0.08476   0.00000  Uiso   1.00
N139   N     0.16529   0.10564   0.24962   0.00000  Uiso   1.00
N140   N     0.00000   0.25000   0.04760   0.00000  Uiso   1.00
N141   N     0.31030   0.36400   0.10132   0.00000  Uiso   1.00
N142   N     0.25000   0.00000   0.28573   0.00000  Uiso   1.00
N143   N     0.25000   0.00000   0.04760   0.00000  Uiso   1.00
N144   N     0.42682   0.12922   0.09034   0.00000  Uiso   1.00
N145   N     0.05398   0.38756   0.22448   0.00000  Uiso   1.00
N146   N     0.12331   0.30329   0.10134   0.00000  Uiso   1.00
N147   N     0.37262   0.20067   0.22915   0.00000  Uiso   1.00
N148   N     0.11129   0.18091   0.24580   0.00000  Uiso   1.00
O149   O     0.04581   0.20419   0.20487   0.00000  Uiso   1.00
O150   O     0.20420   0.04581   0.12846   0.00000  Uiso   1.00
O151   O     0.20420   0.04581   0.20487   0.00000  Uiso   1.00
O152   O     0.29581   0.45419   0.12846   0.00000  Uiso   1.00
O153   O     0.20420   0.45419   0.12846   0.00000  Uiso   1.00
O154   O     0.29581   0.04581   0.20487   0.00000  Uiso   1.00
O155   O     0.29581   0.04581   0.12846   0.00000  Uiso   1.00
O156   O     0.20420   0.45419   0.20487   0.00000  Uiso   1.00
O157   O     0.00214   0.33196   0.04658   0.00000  Uiso   1.00
O158   O     0.00098   0.16805   0.28682   0.00000  Uiso   1.00
O159   O     0.00255   0.16871   0.04201   0.00000  Uiso   1.00
O160   O     0.45420   0.29581   0.12846   0.00000  Uiso   1.00
O161   O     0.00330   0.33150   0.29134   0.00000  Uiso   1.00
O162   O     0.26037   0.08100   0.04702   0.00000  Uiso   1.00
O163   O     0.24517   0.41824   0.28661   0.00000  Uiso   1.00
O164   O     0.24514   0.41881   0.04170   0.00000  Uiso   1.00
O165   O     0.25675   0.08126   0.29138   0.00000  Uiso   1.00
O166   O     0.45420   0.29581   0.20487   0.00000  Uiso   1.00
O167   O     0.04581   0.20419   0.12846   0.00000  Uiso   1.00
O168   O     0.45420   0.20419   0.12846   0.00000  Uiso   1.00
O169   O     0.04581   0.29581   0.20487   0.00000  Uiso   1.00
O170   O     0.04581   0.29581   0.12846   0.00000  Uiso   1.00
O171   O     0.45420   0.20419   0.20487   0.00000  Uiso   1.00
O172   O     0.29581   0.45419   0.20487   0.00000  Uiso   1.00
Zn173  Zn    0.00000   0.25000   0.21771   0.00000  Uiso   1.00
Zn174  Zn    0.00000   0.25000   0.11563   0.00000  Uiso   1.00
Zn175  Zn    0.25000   0.00000   0.21771   0.00000  Uiso   1.00
Zn176  Zn    0.25000   0.00000   0.11563   0.00000  Uiso   1.00
C177   C     0.55969   0.18996   0.16668   0.00000  Uiso   1.00
C178   C     0.50044   0.21000   0.30851   0.00000  Uiso   1.00
C179   C     0.50075   0.21014   0.02246   0.00000  Uiso   1.00
C180   C     0.50123   0.28994   0.31086   0.00000  Uiso   1.00
C181   C     0.75448   0.03973   0.02494   0.00000  Uiso   1.00
C182   C     0.74743   0.46010   0.30841   0.00000  Uiso   1.00
C183   C     0.74718   0.46025   0.02232   0.00000  Uiso   1.00
C184   C     0.75382   0.03978   0.31092   0.00000  Uiso   1.00
C185   C     0.90170   0.12623   0.12958   0.00000  Uiso   1.00
C186   C     0.59062   0.38041   0.19764   0.00000  Uiso   1.00
C187   C     0.62312   0.34062   0.13319   0.00000  Uiso   1.00
C188   C     0.93956   0.30931   0.16729   0.00000  Uiso   1.00
C189   C     0.87315   0.16272   0.19814   0.00000  Uiso   1.00
C190   C     0.61747   0.15229   0.20681   0.00000  Uiso   1.00
C191   C     0.87478   0.33836   0.13420   0.00000  Uiso   1.00
C192   C     0.90068   0.37187   0.20540   0.00000  Uiso   1.00
C193   C     0.59867   0.12858   0.12965   0.00000  Uiso   1.00
C194   C     0.65080   0.37693   0.12897   0.00000  Uiso   1.00
C195   C     0.84037   0.13083   0.19750   0.00000  Uiso   1.00
C196   C     0.87308   0.09066   0.13319   0.00000  Uiso   1.00
C197   C     0.62335   0.41232   0.19832   0.00000  Uiso   1.00
C198   C     0.87226   0.40741   0.20191   0.00000  Uiso   1.00
C199   C     0.93926   0.19090   0.16604   0.00000  Uiso   1.00
C200   C     0.63465   0.10227   0.12732   0.00000  Uiso   1.00
C201   C     0.64663   0.11731   0.20794   0.00000  Uiso   1.00
C202   C     0.84280   0.37024   0.13382   0.00000  Uiso   1.00
C203   C     0.59276   0.34310   0.16728   0.00000  Uiso   1.00
C204   C     0.90423   0.15954   0.16453   0.00000  Uiso   1.00
C205   C     0.90469   0.34045   0.16898   0.00000  Uiso   1.00
C206   C     0.59263   0.15681   0.16759   0.00000  Uiso   1.00
C207   C     0.84247   0.09350   0.16711   0.00000  Uiso   1.00
C208   C     0.65404   0.40963   0.16441   0.00000  Uiso   1.00
C209   C     0.65709   0.09398   0.16738   0.00000  Uiso   1.00
C210   C     0.56003   0.30960   0.16708   0.00000  Uiso   1.00
C211   C     0.84279   0.40623   0.16627   0.00000  Uiso   1.00
C212   C     0.90545   0.15161   0.05406   0.00000  Uiso   1.00
C213   C     0.52005   0.41035   0.20157   0.00000  Uiso   1.00
C214   C     0.65145   0.26672   0.11231   0.00000  Uiso   1.00
C215   C     0.88966   0.19280   0.27342   0.00000  Uiso   1.00
C216   C     0.63630   0.22224   0.24748   0.00000  Uiso   1.00
C217   C     0.88706   0.31152   0.05770   0.00000  Uiso   1.00
C218   C     0.89996   0.33790   0.27738   0.00000  Uiso   1.00
C219   C     0.53693   0.08809   0.10255   0.00000  Uiso   1.00
C220   C     0.64816   0.40742   0.05562   0.00000  Uiso   1.00
C221   C     0.80977   0.43980   0.16634   0.00000  Uiso   1.00
C222   C     0.76862   0.15804   0.20384   0.00000  Uiso   1.00
C223   C     0.89528   0.01339   0.11643   0.00000  Uiso   1.00
C224   C     0.63845   0.44172   0.27397   0.00000  Uiso   1.00
C225   C     0.90453   0.47738   0.23320   0.00000  Uiso   1.00
C226   C     0.66886   0.11860   0.05802   0.00000  Uiso   1.00
C227   C     0.64152   0.07207   0.27369   0.00000  Uiso   1.00
C228   C     0.77157   0.34352   0.11680   0.00000  Uiso   1.00
C229   C     0.69031   0.06044   0.16695   0.00000  Uiso   1.00
C230   C     0.68916   0.44098   0.16600   0.00000  Uiso   1.00
C231   C     0.80983   0.05985   0.16706   0.00000  Uiso   1.00
C232   C     0.50090   0.29003   0.02484   0.00000  Uiso   1.00
H233   H     0.99975   0.32788   0.07881   0.00000  Uiso   1.00
H234   H     0.87480   0.13461   0.04555   0.00000  Uiso   1.00
H235   H     0.92539   0.15030   0.02365   0.00000  Uiso   1.00
H236   H     0.89938   0.18776   0.06353   0.00000  Uiso   1.00
H237   H     0.55972   0.40110   0.25616   0.00000  Uiso   1.00
H238   H     0.99374   0.41706   0.22508   0.00000  Uiso   1.00
H239   H     0.50793   0.38879   0.17302   0.00000  Uiso   1.00
H240   H     0.53118   0.44346   0.18903   0.00000  Uiso   1.00
H241   H     0.62464   0.31181   0.06819   0.00000  Uiso   1.00
H242   H     0.68485   0.27883   0.11306   0.00000  Uiso   1.00
H243   H     0.64814   0.23867   0.08672   0.00000  Uiso   1.00
H244   H     0.50000   0.17215   0.25449   0.00000  Uiso   1.00
H245   H     0.64312   0.25312   0.14527   0.00000  Uiso   1.00
H246   H     0.84504   0.21919   0.22945   0.00000  Uiso   1.00
H247   H     0.90839   0.22299   0.28504   0.00000  Uiso   1.00
H248   H     0.91069   0.16265   0.27328   0.00000  Uiso   1.00
H249   H     0.86366   0.18773   0.29762   0.00000  Uiso   1.00
H250   H     0.61048   0.16483   0.27590   0.00000  Uiso   1.00
H251   H     0.67063   0.21426   0.24640   0.00000  Uiso   1.00
H252   H     0.62958   0.24181   0.27902   0.00000  Uiso   1.00
H253   H     0.62779   0.24379   0.21911   0.00000  Uiso   1.00
H254   H     0.84677   0.28174   0.10304   0.00000  Uiso   1.00
H255   H     0.99949   0.17369   0.07440   0.00000  Uiso   1.00
H256   H     0.89359   0.27947   0.03843   0.00000  Uiso   1.00
H257   H     0.91630   0.33270   0.05854   0.00000  Uiso   1.00
H258   H     0.86160   0.32996   0.04026   0.00000  Uiso   1.00
H259   H     0.93403   0.39530   0.26204   0.00000  Uiso   1.00
H260   H     0.87036   0.35488   0.28847   0.00000  Uiso   1.00
H261   H     0.92002   0.33228   0.30719   0.00000  Uiso   1.00
H262   H     0.89185   0.30431   0.26147   0.00000  Uiso   1.00
H263   H     0.57820   0.12410   0.06299   0.00000  Uiso   1.00
H264   H     0.51451   0.08525   0.07385   0.00000  Uiso   1.00
H265   H     0.51871   0.09540   0.13364   0.00000  Uiso   1.00
H266   H     0.50066   0.32659   0.25886   0.00000  Uiso   1.00
H267   H     0.55338   0.05501   0.10520   0.00000  Uiso   1.00
H268   H     0.68501   0.35313   0.07401   0.00000  Uiso   1.00
H269   H     0.61780   0.38964   0.04744   0.00000  Uiso   1.00
H270   H     0.66637   0.41014   0.02427   0.00000  Uiso   1.00
H271   H     0.64137   0.44226   0.06893   0.00000  Uiso   1.00
H272   H     0.81052   0.15102   0.25694   0.00000  Uiso   1.00
H273   H     0.74160   0.16012   0.22737   0.00000  Uiso   1.00
H274   H     0.75841   0.13758   0.17373   0.00000  Uiso   1.00
H275   H     0.77705   0.19297   0.19384   0.00000  Uiso   1.00
H276   H     0.87976   0.06046   0.06877   0.00000  Uiso   1.00
H277   H     0.75085   0.07817   0.07798   0.00000  Uiso   1.00
H278   H     0.92919   0.02152   0.12319   0.00000  Uiso   1.00
H279   H     0.89311   0.48589   0.09016   0.00000  Uiso   1.00
H280   H     0.88023   0.00091   0.14708   0.00000  Uiso   1.00
H281   H     0.59545   0.46917   0.22893   0.00000  Uiso   1.00
H282   H     0.65915   0.47041   0.28538   0.00000  Uiso   1.00
H283   H     0.65714   0.40986   0.27470   0.00000  Uiso   1.00
H284   H     0.61175   0.43939   0.29781   0.00000  Uiso   1.00
H285   H     0.86514   0.43286   0.26748   0.00000  Uiso   1.00
H286   H     0.92425   0.47772   0.26416   0.00000  Uiso   1.00
H287   H     0.88968   0.01124   0.23044   0.00000  Uiso   1.00
H288   H     0.75044   0.42205   0.25472   0.00000  Uiso   1.00
H289   H     0.92567   0.47126   0.20401   0.00000  Uiso   1.00
H290   H     0.62586   0.06573   0.06713   0.00000  Uiso   1.00
H291   H     0.68198   0.10213   0.02738   0.00000  Uiso   1.00
H292   H     0.69518   0.13534   0.07730   0.00000  Uiso   1.00
H293   H     0.64618   0.14503   0.04780   0.00000  Uiso   1.00
H294   H     0.67603   0.13248   0.26972   0.00000  Uiso   1.00
H295   H     0.61397   0.08793   0.29080   0.00000  Uiso   1.00
H296   H     0.66226   0.05670   0.29905   0.00000  Uiso   1.00
H297   H     0.63000   0.04436   0.25051   0.00000  Uiso   1.00
H298   H     0.80815   0.38879   0.07806   0.00000  Uiso   1.00
H299   H     0.74674   0.42414   0.07415   0.00000  Uiso   1.00
H300   H     0.75307   0.33041   0.08745   0.00000  Uiso   1.00
H301   H     0.75260   0.36885   0.13613   0.00000  Uiso   1.00
H302   H     0.77858   0.31433   0.13829   0.00000  Uiso   1.00
H303   H     0.75009   0.07682   0.25943   0.00000  Uiso   1.00
H304   H     0.94087   0.09918   0.08018   0.00000  Uiso   1.00
N305   N     0.50000   0.25000   0.28573   0.00000  Uiso   1.00
N306   N     0.87421   0.30091   0.10259   0.00000  Uiso   1.00
N307   N     0.92278   0.36588   0.24652   0.00000  Uiso   1.00
N308   N     0.56715   0.12427   0.09536   0.00000  Uiso   1.00
N309   N     0.67248   0.38249   0.08788   0.00000  Uiso   1.00
N310   N     0.80433   0.13710   0.22551   0.00000  Uiso   1.00
N311   N     0.87337   0.05311   0.10152   0.00000  Uiso   1.00
N312   N     0.62274   0.45017   0.22934   0.00000  Uiso   1.00
N313   N     0.87157   0.44303   0.23550   0.00000  Uiso   1.00
N314   N     0.64822   0.08484   0.08476   0.00000  Uiso   1.00
N315   N     0.66529   0.10564   0.24962   0.00000  Uiso   1.00
N316   N     0.50000   0.25000   0.04760   0.00000  Uiso   1.00
N317   N     0.81030   0.36400   0.10132   0.00000  Uiso   1.00
N318   N     0.75000   0.00000   0.28573   0.00000  Uiso   1.00
N319   N     0.75000   0.00000   0.04760   0.00000  Uiso   1.00
N320   N     0.92682   0.12922   0.09034   0.00000  Uiso   1.00
N321   N     0.55398   0.38756   0.22448   0.00000  Uiso   1.00
N322   N     0.62331   0.30329   0.10134   0.00000  Uiso   1.00
N323   N     0.87262   0.20067   0.22915   0.00000  Uiso   1.00
N324   N     0.61129   0.18091   0.24580   0.00000  Uiso   1.00
O325   O     0.54581   0.20419   0.20487   0.00000  Uiso   1.00
O326   O     0.70420   0.04581   0.12846   0.00000  Uiso   1.00
O327   O     0.70420   0.04581   0.20487   0.00000  Uiso   1.00
O328   O     0.79581   0.45419   0.12846   0.00000  Uiso   1.00
O329   O     0.70420   0.45419   0.12846   0.00000  Uiso   1.00
O330   O     0.79581   0.04581   0.20487   0.00000  Uiso   1.00
O331   O     0.79581   0.04581   0.12846   0.00000  Uiso   1.00
O332   O     0.70420   0.45419   0.20487   0.00000  Uiso   1.00
O333   O     0.50214   0.33196   0.04658   0.00000  Uiso   1.00
O334   O     0.50098   0.16805   0.28682   0.00000  Uiso   1.00
O335   O     0.50255   0.16871   0.04201   0.00000  Uiso   1.00
O336   O     0.95420   0.29581   0.12846   0.00000  Uiso   1.00
O337   O     0.50330   0.33150   0.29134   0.00000  Uiso   1.00
O338   O     0.76037   0.08100   0.04702   0.00000  Uiso   1.00
O339   O     0.74517   0.41824   0.28661   0.00000  Uiso   1.00
O340   O     0.74514   0.41881   0.04170   0.00000  Uiso   1.00
O341   O     0.75675   0.08126   0.29138   0.00000  Uiso   1.00
O342   O     0.95420   0.29581   0.20487   0.00000  Uiso   1.00
O343   O     0.54581   0.20419   0.12846   0.00000  Uiso   1.00
O344   O     0.95420   0.20419   0.12846   0.00000  Uiso   1.00
O345   O     0.54581   0.29581   0.20487   0.00000  Uiso   1.00
O346   O     0.54581   0.29581   0.12846   0.00000  Uiso   1.00
O347   O     0.95420   0.20419   0.20487   0.00000  Uiso   1.00
O348   O     0.79581   0.45419   0.20487   0.00000  Uiso   1.00
Zn349  Zn    0.50000   0.25000   0.21771   0.00000  Uiso   1.00
Zn350  Zn    0.50000   0.25000   0.11563   0.00000  Uiso   1.00
Zn351  Zn    0.75000   0.00000   0.21771   0.00000  Uiso   1.00
Zn352  Zn    0.75000   0.00000   0.11563   0.00000  Uiso   1.00
C353   C     0.05969   0.68996   0.16668   0.00000  Uiso   1.00
C354   C     0.00044   0.71000   0.30851   0.00000  Uiso   1.00
C355   C     0.00075   0.71014   0.02246   0.00000  Uiso   1.00
C356   C     0.00123   0.78994   0.31086   0.00000  Uiso   1.00
C357   C     0.25448   0.53973   0.02494   0.00000  Uiso   1.00
C358   C     0.24743   0.96010   0.30841   0.00000  Uiso   1.00
C359   C     0.24718   0.96025   0.02232   0.00000  Uiso   1.00
C360   C     0.25382   0.53978   0.31092   0.00000  Uiso   1.00
C361   C     0.40170   0.62623   0.12958   0.00000  Uiso   1.00
C362   C     0.09062   0.88041   0.19764   0.00000  Uiso   1.00
C363   C     0.12312   0.84062   0.13319   0.00000  Uiso   1.00
C364   C     0.43956   0.80931   0.16729   0.00000  Uiso   1.00
C365   C     0.37315   0.66272   0.19814   0.00000  Uiso   1.00
C366   C     0.11747   0.65229   0.20681   0.00000  Uiso   1.00
C367   C     0.37478   0.83836   0.13420   0.00000  Uiso   1.00
C368   C     0.40068   0.87187   0.20540   0.00000  Uiso   1.00
C369   C     0.09867   0.62858   0.12965   0.00000  Uiso   1.00
C370   C     0.15080   0.87693   0.12897   0.00000  Uiso   1.00
C371   C     0.34037   0.63083   0.19750   0.00000  Uiso   1.00
C372   C     0.37308   0.59066   0.13319   0.00000  Uiso   1.00
C373   C     0.12335   0.91232   0.19832   0.00000  Uiso   1.00
C374   C     0.37226   0.90741   0.20191   0.00000  Uiso   1.00
C375   C     0.43926   0.69090   0.16604   0.00000  Uiso   1.00
C376   C     0.13465   0.60227   0.12732   0.00000  Uiso   1.00
C377   C     0.14663   0.61731   0.20794   0.00000  Uiso   1.00
C378   C     0.34280   0.87024   0.13382   0.00000  Uiso   1.00
C379   C     0.09276   0.84310   0.16728   0.00000  Uiso   1.00
C380   C     0.40423   0.65954   0.16453   0.00000  Uiso   1.00
C381   C     0.40469   0.84045   0.16898   0.00000  Uiso   1.00
C382   C     0.09263   0.65681   0.16759   0.00000  Uiso   1.00
C383   C     0.34247   0.59350   0.16711   0.00000  Uiso   1.00
C384   C     0.15404   0.90963   0.16441   0.00000  Uiso   1.00
C385   C     0.15709   0.59398   0.16738   0.00000  Uiso   1.00
C386   C     0.06003   0.80960   0.16708   0.00000  Uiso   1.00
C387   C     0.34279   0.90623   0.16627   0.00000  Uiso   1.00
C388   C     0.40545   0.65161   0.05406   0.00000  Uiso   1.00
C389   C     0.02005   0.91035   0.20157   0.00000  Uiso   1.00
C390   C     0.15145   0.76672   0.11231   0.00000  Uiso   1.00
C391   C     0.38966   0.69280   0.27342   0.00000  Uiso   1.00
C392   C     0.13630   0.72224   0.24748   0.00000  Uiso   1.00
C393   C     0.38706   0.81152   0.05770   0.00000  Uiso   1.00
C394   C     0.39996   0.83790   0.27738   0.00000  Uiso   1.00
C395   C     0.03693   0.58809   0.10255   0.00000  Uiso   1.00
C396   C     0.14816   0.90742   0.05562   0.00000  Uiso   1.00
C397   C     0.30977   0.93980   0.16634   0.00000  Uiso   1.00
C398   C     0.26862   0.65804   0.20384   0.00000  Uiso   1.00
C399   C     0.39528   0.51339   0.11643   0.00000  Uiso   1.00
C400   C     0.13845   0.94172   0.27397   0.00000  Uiso   1.00
C401   C     0.40453   0.97738   0.23320   0.00000  Uiso   1.00
C402   C     0.16886   0.61860   0.05802   0.00000  Uiso   1.00
C403   C     0.14152   0.57207   0.27369   0.00000  Uiso   1.00
C404   C     0.27157   0.84352   0.11680   0.00000  Uiso   1.00
C405   C     0.19031   0.56044   0.16695   0.00000  Uiso   1.00
C406   C     0.18916   0.94098   0.16600   0.00000  Uiso   1.00
C407   C     0.30983   0.55985   0.16706   0.00000  Uiso   1.00
C408   C     0.00090   0.79003   0.02484   0.00000  Uiso   1.00
H409   H     0.49975   0.82788   0.07881   0.00000  Uiso   1.00
H410   H     0.37480   0.63461   0.04555   0.00000  Uiso   1.00
H411   H     0.42539   0.65030   0.02365   0.00000  Uiso   1.00
H412   H     0.39938   0.68776   0.06353   0.00000  Uiso   1.00
H413   H     0.05972   0.90110   0.25616   0.00000  Uiso   1.00
H414   H     0.49374   0.91706   0.22508   0.00000  Uiso   1.00
H415   H     0.00793   0.88879   0.17302   0.00000  Uiso   1.00
H416   H     0.03118   0.94346   0.18903   0.00000  Uiso   1.00
H417   H     0.12464   0.81181   0.06819   0.00000  Uiso   1.00
H418   H     0.18485   0.77883   0.11306   0.00000  Uiso   1.00
H419   H     0.14814   0.73867   0.08672   0.00000  Uiso   1.00
H420   H     0.00000   0.67215   0.25449   0.00000  Uiso   1.00
H421   H     0.14312   0.75312   0.14527   0.00000  Uiso   1.00
H422   H     0.34504   0.71919   0.22945   0.00000  Uiso   1.00
H423   H     0.40839   0.72299   0.28504   0.00000  Uiso   1.00
H424   H     0.41069   0.66265   0.27328   0.00000  Uiso   1.00
H425   H     0.36366   0.68773   0.29762   0.00000  Uiso   1.00
H426   H     0.11048   0.66483   0.27590   0.00000  Uiso   1.00
H427   H     0.17063   0.71426   0.24640   0.00000  Uiso   1.00
H428   H     0.12958   0.74181   0.27902   0.00000  Uiso   1.00
H429   H     0.12779   0.74379   0.21911   0.00000  Uiso   1.00
H430   H     0.34677   0.78174   0.10304   0.00000  Uiso   1.00
H431   H     0.49949   0.67369   0.07440   0.00000  Uiso   1.00
H432   H     0.39359   0.77947   0.03843   0.00000  Uiso   1.00
H433   H     0.41630   0.83270   0.05854   0.00000  Uiso   1.00
H434   H     0.36160   0.82996   0.04026   0.00000  Uiso   1.00
H435   H     0.43403   0.89530   0.26204   0.00000  Uiso   1.00
H436   H     0.37036   0.85488   0.28847   0.00000  Uiso   1.00
H437   H     0.42002   0.83228   0.30719   0.00000  Uiso   1.00
H438   H     0.39185   0.80431   0.26147   0.00000  Uiso   1.00
H439   H     0.07820   0.62410   0.06299   0.00000  Uiso   1.00
H440   H     0.01451   0.58525   0.07385   0.00000  Uiso   1.00
H441   H     0.01871   0.59540   0.13364   0.00000  Uiso   1.00
H442   H     0.00066   0.82659   0.25886   0.00000  Uiso   1.00
H443   H     0.05338   0.55501   0.10520   0.00000  Uiso   1.00
H444   H     0.18501   0.85313   0.07401   0.00000  Uiso   1.00
H445   H     0.11780   0.88964   0.04744   0.00000  Uiso   1.00
H446   H     0.16637   0.91014   0.02427   0.00000  Uiso   1.00
H447   H     0.14137   0.94226   0.06893   0.00000  Uiso   1.00
H448   H     0.31052   0.65102   0.25694   0.00000  Uiso   1.00
H449   H     0.24160   0.66012   0.22737   0.00000  Uiso   1.00
H450   H     0.25841   0.63758   0.17373   0.00000  Uiso   1.00
H451   H     0.27705   0.69297   0.19384   0.00000  Uiso   1.00
H452   H     0.37976   0.56046   0.06877   0.00000  Uiso   1.00
H453   H     0.25085   0.57817   0.07798   0.00000  Uiso   1.00
H454   H     0.42919   0.52152   0.12319   0.00000  Uiso   1.00
H455   H     0.39311   0.98589   0.09016   0.00000  Uiso   1.00
H456   H     0.38023   0.50091   0.14708   0.00000  Uiso   1.00
H457   H     0.09545   0.96917   0.22893   0.00000  Uiso   1.00
H458   H     0.15915   0.97041   0.28538   0.00000  Uiso   1.00
H459   H     0.15714   0.90986   0.27470   0.00000  Uiso   1.00
H460   H     0.11175   0.93939   0.29781   0.00000  Uiso   1.00
H461   H     0.36514   0.93286   0.26748   0.00000  Uiso   1.00
H462   H     0.42425   0.97772   0.26416   0.00000  Uiso   1.00
H463   H     0.38968   0.51124   0.23044   0.00000  Uiso   1.00
H464   H     0.25044   0.92205   0.25472   0.00000  Uiso   1.00
H465   H     0.42567   0.97126   0.20401   0.00000  Uiso   1.00
H466   H     0.12586   0.56573   0.06713   0.00000  Uiso   1.00
H467   H     0.18198   0.60213   0.02738   0.00000  Uiso   1.00
H468   H     0.19518   0.63534   0.07730   0.00000  Uiso   1.00
H469   H     0.14618   0.64503   0.04780   0.00000  Uiso   1.00
H470   H     0.17603   0.63248   0.26972   0.00000  Uiso   1.00
H471   H     0.11397   0.58793   0.29080   0.00000  Uiso   1.00
H472   H     0.16226   0.55670   0.29905   0.00000  Uiso   1.00
H473   H     0.13000   0.54436   0.25051   0.00000  Uiso   1.00
H474   H     0.30815   0.88879   0.07806   0.00000  Uiso   1.00
H475   H     0.24674   0.92414   0.07415   0.00000  Uiso   1.00
H476   H     0.25307   0.83041   0.08745   0.00000  Uiso   1.00
H477   H     0.25260   0.86885   0.13613   0.00000  Uiso   1.00
H478   H     0.27858   0.81433   0.13829   0.00000  Uiso   1.00
H479   H     0.25009   0.57682   0.25943   0.00000  Uiso   1.00
H480   H     0.44087   0.59918   0.08018   0.00000  Uiso   1.00
N481   N     0.00000   0.75000   0.28573   0.00000  Uiso   1.00
N482   N     0.37421   0.80091   0.10259   0.00000  Uiso   1.00
N483   N     0.42278   0.86588   0.24652   0.00000  Uiso   1.00
N484   N     0.06715   0.62427   0.09536   0.00000  Uiso   1.00
N485   N     0.17248   0.88249   0.08788   0.00000  Uiso   1.00
N486   N     0.30433   0.63710   0.22551   0.00000  Uiso   1.00
N487   N     0.37337   0.55311   0.10152   0.00000  Uiso   1.00
N488   N     0.12274   0.95017   0.22934   0.00000  Uiso   1.00
N489   N     0.37157   0.94303   0.23550   0.00000  Uiso   1.00
N490   N     0.14822   0.58484   0.08476   0.00000  Uiso   1.00
N491   N     0.16529   0.60564   0.24962   0.00000  Uiso   1.00
N492   N     0.00000   0.75000   0.04760   0.00000  Uiso   1.00
N493   N     0.31030   0.86400   0.10132   0.00000  Uiso   1.00
N494   N     0.25000   0.50000   0.28573   0.00000  Uiso   1.00
N495   N     0.25000   0.50000   0.04760   0.00000  Uiso   1.00
N496   N     0.42682   0.62922   0.09034   0.00000  Uiso   1.00
N497   N     0.05398   0.88756   0.22448   0.00000  Uiso   1.00
N498   N     0.12331   0.80329   0.10134   0.00000  Uiso   1.00
N499   N     0.37262   0.70067   0.22915   0.00000  Uiso   1.00
N500   N     0.11129   0.68091   0.24580   0.00000  Uiso   1.00
O501   O     0.04581   0.70419   0.20487   0.00000  Uiso   1.00
O502   O     0.20420   0.54581   0.12846   0.00000  Uiso   1.00
O503   O     0.20420   0.54581   0.20487   0.00000  Uiso   1.00
O504   O     0.29581   0.95419   0.12846   0.00000  Uiso   1.00
O505   O     0.20420   0.95419   0.12846   0.00000  Uiso   1.00
O506   O     0.29581   0.54581   0.20487   0.00000  Uiso   1.00
O507   O     0.29581   0.54581   0.12846   0.00000  Uiso   1.00
O508   O     0.20420   0.95419   0.20487   0.00000  Uiso   1.00
O509   O     0.00214   0.83196   0.04658   0.00000  Uiso   1.00
O510   O     0.00098   0.66805   0.28682   0.00000  Uiso   1.00
O511   O     0.00255   0.66871   0.04201   0.00000  Uiso   1.00
O512   O     0.45420   0.79581   0.12846   0.00000  Uiso   1.00
O513   O     0.00330   0.83150   0.29134   0.00000  Uiso   1.00
O514   O     0.26037   0.58100   0.04702   0.00000  Uiso   1.00
O515   O     0.24517   0.91824   0.28661   0.00000  Uiso   1.00
O516   O     0.24514   0.91881   0.04170   0.00000  Uiso   1.00
O517   O     0.25675   0.58126   0.29138   0.00000  Uiso   1.00
O518   O     0.45420   0.79581   0.20487   0.00000  Uiso   1.00
O519   O     0.04581   0.70419   0.12846   0.00000  Uiso   1.00
O520   O     0.45420   0.70419   0.12846   0.00000  Uiso   1.00
O521   O     0.04581   0.79581   0.20487   0.00000  Uiso   1.00
O522   O     0.04581   0.79581   0.12846   0.00000  Uiso   1.00
O523   O     0.45420   0.70419   0.20487   0.00000  Uiso   1.00
O524   O     0.29581   0.95419   0.20487   0.00000  Uiso   1.00
Zn525  Zn    0.00000   0.75000   0.21771   0.00000  Uiso   1.00
Zn526  Zn    0.00000   0.75000   0.11563   0.00000  Uiso   1.00
Zn527  Zn    0.25000   0.50000   0.21771   0.00000  Uiso   1.00
Zn528  Zn    0.25000   0.50000   0.11563   0.00000  Uiso   1.00
C529   C     0.55969   0.68996   0.16668   0.00000  Uiso   1.00
C530   C     0.50044   0.71000   0.30851   0.00000  Uiso   1.00
C531   C     0.50075   0.71014   0.02246   0.00000  Uiso   1.00
C532   C     0.50123   0.78994   0.31086   0.00000  Uiso   1.00
C533   C     0.75448   0.53973   0.02494   0.00000  Uiso   1.00
C534   C     0.74743   0.96010   0.30841   0.00000  Uiso   1.00
C535   C     0.74718   0.96025   0.02232   0.00000  Uiso   1.00
C536   C     0.75382   0.53978   0.31092   0.00000  Uiso   1.00
C537   C     0.90170   0.62623   0.12958   0.00000  Uiso   1.00
C538   C     0.59062   0.88041   0.19764   0.00000  Uiso   1.00
C539   C     0.62312   0.84062   0.13319   0.00000  Uiso   1.00
C540   C     0.93956   0.80931   0.16729   0.00000  Uiso   1.00
C541   C     0.87315   0.66272   0.19814   0.00000  Uiso   1.00
C542   C     0.61747   0.65229   0.20681   0.00000  Uiso   1.00
C543   C     0.87478   0.83836   0.13420   0.00000  Uiso   1.00
C544   C     0.90068   0.87187   0.20540   0.00000  Uiso   1.00
C545   C     0.59867   0.62858   0.12965   0.00000  Uiso   1.00
C546   C     0.65080   0.87693   0.12897   0.00000  Uiso   1.00
C547   C     0.84037   0.63083   0.19750   0.00000  Uiso   1.00
C548   C     0.87308   0.59066   0.13319   0.00000  Uiso   1.00
C549   C     0.62335   0.91232   0.19832   0.00000  Uiso   1.00
C550   C     0.87226   0.90741   0.20191   0.00000  Uiso   1.00
C551   C     0.93926   0.69090   0.16604   0.00000  Uiso   1.00
C552   C     0.63465   0.60227   0.12732   0.00000  Uiso   1.00
C553   C     0.64663   0.61731   0.20794   0.00000  Uiso   1.00
C554   C     0.84280   0.87024   0.13382   0.00000  Uiso   1.00
C555   C     0.59276   0.84310   0.16728   0.00000  Uiso   1.00
C556   C     0.90423   0.65954   0.16453   0.00000  Uiso   1.00
C557   C     0.90469   0.84045   0.16898   0.00000  Uiso   1.00
C558   C     0.59263   0.65681   0.16759   0.00000  Uiso   1.00
C559   C     0.84247   0.59350   0.16711   0.00000  Uiso   1.00
C560   C     0.65404   0.90963   0.16441   0.00000  Uiso   1.00
C561   C     0.65709   0.59398   0.16738   0.00000  Uiso   1.00
C562   C     0.56003   0.80960   0.16708   0.00000  Uiso   1.00
C563   C     0.84279   0.90623   0.16627   0.00000  Uiso   1.00
C564   C     0.90545   0.65161   0.05406   0.00000  Uiso   1.00
C565   C     0.52005   0.91035   0.20157   0.00000  Uiso   1.00
C566   C     0.65145   0.76672   0.11231   0.00000  Uiso   1.00
C567   C     0.88966   0.69280   0.27342   0.00000  Uiso   1.00
C568   C     0.63630   0.72224   0.24748   0.00000  Uiso   1.00
C569   C     0.88706   0.81152   0.05770   0.00000  Uiso   1.00
C570   C     0.89996   0.83790   0.27738   0.00000  Uiso   1.00
C571   C     0.53693   0.58809   0.10255   0.00000  Uiso   1.00
C572   C     0.64816   0.90742   0.05562   0.00000  Uiso   1.00
C573   C     0.80977   0.93980   0.16634   0.00000  Uiso   1.00
C574   C     0.76862   0.65804   0.20384   0.00000  Uiso   1.00
C575   C     0.89528   0.51339   0.11643   0.00000  Uiso   1.00
C576   C     0.63845   0.94172   0.27397   0.00000  Uiso   1.00
C577   C     0.90453   0.97738   0.23320   0.00000  Uiso   1.00
C578   C     0.66886   0.61860   0.05802   0.00000  Uiso   1.00
C579   C     0.64152   0.57207   0.27369   0.00000  Uiso   1.00
C580   C     0.77157   0.84352   0.11680   0.00000  Uiso   1.00
C581   C     0.69031   0.56044   0.16695   0.00000  Uiso   1.00
C582   C     0.68916   0.94098   0.16600   0.00000  Uiso   1.00
C583   C     0.80983   0.55985   0.16706   0.00000  Uiso   1.00
C584   C     0.50090   0.79003   0.02484   0.00000  Uiso   1.00
H585   H     0.99975   0.82788   0.07881   0.00000  Uiso   1.00
H586   H     0.87480   0.63461   0.04555   0.00000  Uiso   1.00
H587   H     0.92539   0.65030   0.02365   0.00000  Uiso   1.00
H588   H     0.89938   0.68776   0.06353   0.00000  Uiso   1.00
H589   H     0.55972   0.90110   0.25616   0.00000  Uiso   1.00
H590   H     0.99374   0.91706   0.22508   0.00000  Uiso   1.00
H591   H     0.50793   0.88879   0.17302   0.00000  Uiso   1.00
H592   H     0.53118   0.94346   0.18903   0.00000  Uiso   1.00
H593   H     0.62464   0.81181   0.06819   0.00000  Uiso   1.00
H594   H     0.68485   0.77883   0.11306   0.00000  Uiso   1.00
H595   H     0.64814   0.73867   0.08672   0.00000  Uiso   1.00
H596   H     0.50000   0.67215   0.25449   0.00000  Uiso   1.00
H597   H     0.64312   0.75312   0.14527   0.00000  Uiso   1.00
H598   H     0.84504   0.71919   0.22945   0.00000  Uiso   1.00
H599   H     0.90839   0.72299   0.28504   0.00000  Uiso   1.00
H600   H     0.91069   0.66265   0.27328   0.00000  Uiso   1.00
H601   H     0.86366   0.68773   0.29762   0.00000  Uiso   1.00
H602   H     0.61048   0.66483   0.27590   0.00000  Uiso   1.00
H603   H     0.67063   0.71426   0.24640   0.00000  Uiso   1.00
H604   H     0.62958   0.74181   0.27902   0.00000  Uiso   1.00
H605   H     0.62779   0.74379   0.21911   0.00000  Uiso   1.00
H606   H     0.84677   0.78174   0.10304   0.00000  Uiso   1.00
H607   H     0.99949   0.67369   0.07440   0.00000  Uiso   1.00
H608   H     0.89359   0.77947   0.03843   0.00000  Uiso   1.00
H609   H     0.91630   0.83270   0.05854   0.00000  Uiso   1.00
H610   H     0.86160   0.82996   0.04026   0.00000  Uiso   1.00
H611   H     0.93403   0.89530   0.26204   0.00000  Uiso   1.00
H612   H     0.87036   0.85488   0.28847   0.00000  Uiso   1.00
H613   H     0.92002   0.83228   0.30719   0.00000  Uiso   1.00
H614   H     0.89185   0.80431   0.26147   0.00000  Uiso   1.00
H615   H     0.57820   0.62410   0.06299   0.00000  Uiso   1.00
H616   H     0.51451   0.58525   0.07385   0.00000  Uiso   1.00
H617   H     0.51871   0.59540   0.13364   0.00000  Uiso   1.00
H618   H     0.50066   0.82659   0.25886   0.00000  Uiso   1.00
H619   H     0.55338   0.55501   0.10520   0.00000  Uiso   1.00
H620   H     0.68501   0.85313   0.07401   0.00000  Uiso   1.00
H621   H     0.61780   0.88964   0.04744   0.00000  Uiso   1.00
H622   H     0.66637   0.91014   0.02427   0.00000  Uiso   1.00
H623   H     0.64137   0.94226   0.06893   0.00000  Uiso   1.00
H624   H     0.81052   0.65102   0.25694   0.00000  Uiso   1.00
H625   H     0.74160   0.66012   0.22737   0.00000  Uiso   1.00
H626   H     0.75841   0.63758   0.17373   0.00000  Uiso   1.00
H627   H     0.77705   0.69297   0.19384   0.00000  Uiso   1.00
H628   H     0.87976   0.56046   0.06877   0.00000  Uiso   1.00
H629   H     0.75085   0.57817   0.07798   0.00000  Uiso   1.00
H630   H     0.92919   0.52152   0.12319   0.00000  Uiso   1.00
H631   H     0.89311   0.98589   0.09016   0.00000  Uiso   1.00
H632   H     0.88023   0.50091   0.14708   0.00000  Uiso   1.00
H633   H     0.59545   0.96917   0.22893   0.00000  Uiso   1.00
H634   H     0.65915   0.97041   0.28538   0.00000  Uiso   1.00
H635   H     0.65714   0.90986   0.27470   0.00000  Uiso   1.00
H636   H     0.61175   0.93939   0.29781   0.00000  Uiso   1.00
H637   H     0.86514   0.93286   0.26748   0.00000  Uiso   1.00
H638   H     0.92425   0.97772   0.26416   0.00000  Uiso   1.00
H639   H     0.88968   0.51124   0.23044   0.00000  Uiso   1.00
H640   H     0.75044   0.92205   0.25472   0.00000  Uiso   1.00
H641   H     0.92567   0.97126   0.20401   0.00000  Uiso   1.00
H642   H     0.62586   0.56573   0.06713   0.00000  Uiso   1.00
H643   H     0.68198   0.60213   0.02738   0.00000  Uiso   1.00
H644   H     0.69518   0.63534   0.07730   0.00000  Uiso   1.00
H645   H     0.64618   0.64503   0.04780   0.00000  Uiso   1.00
H646   H     0.67603   0.63248   0.26972   0.00000  Uiso   1.00
H647   H     0.61397   0.58793   0.29080   0.00000  Uiso   1.00
H648   H     0.66226   0.55670   0.29905   0.00000  Uiso   1.00
H649   H     0.63000   0.54436   0.25051   0.00000  Uiso   1.00
H650   H     0.80815   0.88879   0.07806   0.00000  Uiso   1.00
H651   H     0.74674   0.92414   0.07415   0.00000  Uiso   1.00
H652   H     0.75307   0.83041   0.08745   0.00000  Uiso   1.00
H653   H     0.75260   0.86885   0.13613   0.00000  Uiso   1.00
H654   H     0.77858   0.81433   0.13829   0.00000  Uiso   1.00
H655   H     0.75009   0.57682   0.25943   0.00000  Uiso   1.00
H656   H     0.94087   0.59918   0.08018   0.00000  Uiso   1.00
N657   N     0.50000   0.75000   0.28573   0.00000  Uiso   1.00
N658   N     0.87421   0.80091   0.10259   0.00000  Uiso   1.00
N659   N     0.92278   0.86588   0.24652   0.00000  Uiso   1.00
N660   N     0.56715   0.62427   0.09536   0.00000  Uiso   1.00
N661   N     0.67248   0.88249   0.08788   0.00000  Uiso   1.00
N662   N     0.80433   0.63710   0.22551   0.00000  Uiso   1.00
N663   N     0.87337   0.55311   0.10152   0.00000  Uiso   1.00
N664   N     0.62274   0.95017   0.22934   0.00000  Uiso   1.00
N665   N     0.87157   0.94303   0.23550   0.00000  Uiso   1.00
N666   N     0.64822   0.58484   0.08476   0.00000  Uiso   1.00
N667   N     0.66529   0.60564   0.24962   0.00000  Uiso   1.00
N668   N     0.50000   0.75000   0.04760   0.00000  Uiso   1.00
N669   N     0.81030   0.86400   0.10132   0.00000  Uiso   1.00
N670   N     0.75000   0.50000   0.28573   0.00000  Uiso   1.00
N671   N     0.75000   0.50000   0.04760   0.00000  Uiso   1.00
N672   N     0.92682   0.62922   0.09034   0.00000  Uiso   1.00
N673   N     0.55398   0.88756   0.22448   0.00000  Uiso   1.00
N674   N     0.62331   0.80329   0.10134   0.00000  Uiso   1.00
N675   N     0.87262   0.70067   0.22915   0.00000  Uiso   1.00
N676   N     0.61129   0.68091   0.24580   0.00000  Uiso   1.00
O677   O     0.54581   0.70419   0.20487   0.00000  Uiso   1.00
O678   O     0.70420   0.54581   0.12846   0.00000  Uiso   1.00
O679   O     0.70420   0.54581   0.20487   0.00000  Uiso   1.00
O680   O     0.79581   0.95419   0.12846   0.00000  Uiso   1.00
O681   O     0.70420   0.95419   0.12846   0.00000  Uiso   1.00
O682   O     0.79581   0.54581   0.20487   0.00000  Uiso   1.00
O683   O     0.79581   0.54581   0.12846   0.00000  Uiso   1.00
O684   O     0.70420   0.95419   0.20487   0.00000  Uiso   1.00
O685   O     0.50214   0.83196   0.04658   0.00000  Uiso   1.00
O686   O     0.50098   0.66805   0.28682   0.00000  Uiso   1.00
O687   O     0.50255   0.66871   0.04201   0.00000  Uiso   1.00
O688   O     0.95420   0.79581   0.12846   0.00000  Uiso   1.00
O689   O     0.50330   0.83150   0.29134   0.00000  Uiso   1.00
O690   O     0.76037   0.58100   0.04702   0.00000  Uiso   1.00
O691   O     0.74517   0.91824   0.28661   0.00000  Uiso   1.00
O692   O     0.74514   0.91881   0.04170   0.00000  Uiso   1.00
O693   O     0.75675   0.58126   0.29138   0.00000  Uiso   1.00
O694   O     0.95420   0.79581   0.20487   0.00000  Uiso   1.00
O695   O     0.54581   0.70419   0.12846   0.00000  Uiso   1.00
O696   O     0.95420   0.70419   0.12846   0.00000  Uiso   1.00
O697   O     0.54581   0.79581   0.20487   0.00000  Uiso   1.00
O698   O     0.54581   0.79581   0.12846   0.00000  Uiso   1.00
O699   O     0.95420   0.70419   0.20487   0.00000  Uiso   1.00
O700   O     0.79581   0.95419   0.20487   0.00000  Uiso   1.00
Zn701  Zn    0.50000   0.75000   0.21771   0.00000  Uiso   1.00
Zn702  Zn    0.50000   0.75000   0.11563   0.00000  Uiso   1.00
Zn703  Zn    0.75000   0.50000   0.21771   0.00000  Uiso   1.00
Zn704  Zn    0.75000   0.50000   0.11563   0.00000  Uiso   1.00
C705   C     0.05969   0.18996   0.50002   0.00000  Uiso   1.00
C706   C     0.00044   0.21000   0.64184   0.00000  Uiso   1.00
C707   C     0.00075   0.21014   0.35579   0.00000  Uiso   1.00
C708   C     0.00123   0.28994   0.64419   0.00000  Uiso   1.00
C709   C     0.25448   0.03973   0.35827   0.00000  Uiso   1.00
C710   C     0.24743   0.46010   0.64174   0.00000  Uiso   1.00
C711   C     0.24718   0.46025   0.35565   0.00000  Uiso   1.00
C712   C     0.25382   0.03978   0.64425   0.00000  Uiso   1.00
C713   C     0.40170   0.12623   0.46291   0.00000  Uiso   1.00
C714   C     0.09062   0.38041   0.53097   0.00000  Uiso   1.00
C715   C     0.12312   0.34062   0.46652   0.00000  Uiso   1.00
C716   C     0.43956   0.30931   0.50062   0.00000  Uiso   1.00
C717   C     0.37315   0.16272   0.53147   0.00000  Uiso   1.00
C718   C     0.11747   0.15229   0.54014   0.00000  Uiso   1.00
C719   C     0.37478   0.33836   0.46754   0.00000  Uiso   1.00
C720   C     0.40068   0.37187   0.53873   0.00000  Uiso   1.00
C721   C     0.09867   0.12858   0.46298   0.00000  Uiso   1.00
C722   C     0.15080   0.37693   0.46230   0.00000  Uiso   1.00
C723   C     0.34037   0.13083   0.53083   0.00000  Uiso   1.00
C724   C     0.37308   0.09066   0.46653   0.00000  Uiso   1.00
C725   C     0.12335   0.41232   0.53165   0.00000  Uiso   1.00
C726   C     0.37226   0.40741   0.53524   0.00000  Uiso   1.00
C727   C     0.43926   0.19090   0.49937   0.00000  Uiso   1.00
C728   C     0.13465   0.10227   0.46065   0.00000  Uiso   1.00
C729   C     0.14663   0.11731   0.54127   0.00000  Uiso   1.00
C730   C     0.34280   0.37024   0.46715   0.00000  Uiso   1.00
C731   C     0.09276   0.34310   0.50061   0.00000  Uiso   1.00
C732   C     0.40423   0.15954   0.49787   0.00000  Uiso   1.00
C733   C     0.40469   0.34045   0.50232   0.00000  Uiso   1.00
C734   C     0.09263   0.15681   0.50093   0.00000  Uiso   1.00
C735   C     0.34247   0.09350   0.50044   0.00000  Uiso   1.00
C736   C     0.15404   0.40963   0.49774   0.00000  Uiso   1.00
C737   C     0.15709   0.09398   0.50071   0.00000  Uiso   1.00
C738   C     0.06003   0.30960   0.50041   0.00000  Uiso   1.00
C739   C     0.34279   0.40623   0.49960   0.00000  Uiso   1.00
C740   C     0.40545   0.15161   0.38739   0.00000  Uiso   1.00
C741   C     0.02005   0.41035   0.53490   0.00000  Uiso   1.00
C742   C     0.15145   0.26672   0.44564   0.00000  Uiso   1.00
C743   C     0.38966   0.19280   0.60675   0.00000  Uiso   1.00
C744   C     0.13630   0.22224   0.58081   0.00000  Uiso   1.00
C745   C     0.38706   0.31152   0.39103   0.00000  Uiso   1.00
C746   C     0.39996   0.33790   0.61071   0.00000  Uiso   1.00
C747   C     0.03693   0.08809   0.43589   0.00000  Uiso   1.00
C748   C     0.14816   0.40742   0.38895   0.00000  Uiso   1.00
C749   C     0.30977   0.43980   0.49967   0.00000  Uiso   1.00
C750   C     0.26862   0.15804   0.53717   0.00000  Uiso   1.00
C751   C     0.39528   0.01339   0.44976   0.00000  Uiso   1.00
C752   C     0.13845   0.44172   0.60730   0.00000  Uiso   1.00
C753   C     0.40453   0.47738   0.56653   0.00000  Uiso   1.00
C754   C     0.16886   0.11860   0.39135   0.00000  Uiso   1.00
C755   C     0.14152   0.07207   0.60702   0.00000  Uiso   1.00
C756   C     0.27157   0.34352   0.45013   0.00000  Uiso   1.00
C757   C     0.19031   0.06044   0.50028   0.00000  Uiso   1.00
C758   C     0.18916   0.44098   0.49933   0.00000  Uiso   1.00
C759   C     0.30983   0.05985   0.50040   0.00000  Uiso   1.00
C760   C     0.00090   0.29003   0.35817   0.00000  Uiso   1.00
H761   H     0.49975   0.32788   0.41215   0.00000  Uiso   1.00
H762   H     0.37480   0.13461   0.37888   0.00000  Uiso   1.00
H763   H     0.42539   0.15030   0.35699   0.00000  Uiso   1.00
H764   H     0.39938   0.18776   0.39686   0.00000  Uiso   1.00
H765   H     0.05972   0.40110   0.58949   0.00000  Uiso   1.00
H766   H     0.49374   0.41706   0.55842   0.00000  Uiso   1.00
H767   H     0.00793   0.38879   0.50635   0.00000  Uiso   1.00
H768   H     0.03118   0.44346   0.52236   0.00000  Uiso   1.00
H769   H     0.12464   0.31181   0.40152   0.00000  Uiso   1.00
H770   H     0.18485   0.27883   0.44639   0.00000  Uiso   1.00
H771   H     0.14814   0.23867   0.42006   0.00000  Uiso   1.00
H772   H     0.00000   0.17215   0.58782   0.00000  Uiso   1.00
H773   H     0.14312   0.25312   0.47861   0.00000  Uiso   1.00
H774   H     0.34504   0.21919   0.56278   0.00000  Uiso   1.00
H775   H     0.40839   0.22299   0.61838   0.00000  Uiso   1.00
H776   H     0.41069   0.16265   0.60662   0.00000  Uiso   1.00
H777   H     0.36366   0.18773   0.63095   0.00000  Uiso   1.00
H778   H     0.11048   0.16483   0.60923   0.00000  Uiso   1.00
H779   H     0.17063   0.21426   0.57974   0.00000  Uiso   1.00
H780   H     0.12958   0.24181   0.61235   0.00000  Uiso   1.00
H781   H     0.12779   0.24379   0.55244   0.00000  Uiso   1.00
H782   H     0.34677   0.28174   0.43637   0.00000  Uiso   1.00
H783   H     0.49949   0.17369   0.40773   0.00000  Uiso   1.00
H784   H     0.39359   0.27947   0.37176   0.00000  Uiso   1.00
H785   H     0.41630   0.33270   0.39188   0.00000  Uiso   1.00
H786   H     0.36160   0.32996   0.37359   0.00000  Uiso   1.00
H787   H     0.43403   0.39530   0.59538   0.00000  Uiso   1.00
H788   H     0.37036   0.35488   0.62180   0.00000  Uiso   1.00
H789   H     0.42002   0.33228   0.64052   0.00000  Uiso   1.00
H790   H     0.39185   0.30431   0.59481   0.00000  Uiso   1.00
H791   H     0.07820   0.12410   0.39633   0.00000  Uiso   1.00
H792   H     0.01451   0.08525   0.40719   0.00000  Uiso   1.00
H793   H     0.01871   0.09540   0.46697   0.00000  Uiso   1.00
H794   H     0.00066   0.32659   0.59219   0.00000  Uiso   1.00
H795   H     0.05338   0.05501   0.43853   0.00000  Uiso   1.00
H796   H     0.18501   0.35313   0.40735   0.00000  Uiso   1.00
H797   H     0.11780   0.38964   0.38078   0.00000  Uiso   1.00
H798   H     0.16637   0.41014   0.35760   0.00000  Uiso   1.00
H799   H     0.14137   0.44226   0.40226   0.00000  Uiso   1.00
H800   H     0.31052   0.15102   0.59027   0.00000  Uiso   1.00
H801   H     0.24160   0.16012   0.56070   0.00000  Uiso   1.00
H802   H     0.25841   0.13758   0.50706   0.00000  Uiso   1.00
H803   H     0.27705   0.19297   0.52717   0.00000  Uiso   1.00
H804   H     0.37976   0.06046   0.40211   0.00000  Uiso   1.00
H805   H     0.25085   0.07817   0.41131   0.00000  Uiso   1.00
H806   H     0.42919   0.02152   0.45652   0.00000  Uiso   1.00
H807   H     0.39311   0.48589   0.42349   0.00000  Uiso   1.00
H808   H     0.38023   0.00091   0.48041   0.00000  Uiso   1.00
H809   H     0.09545   0.46917   0.56226   0.00000  Uiso   1.00
H810   H     0.15915   0.47041   0.61871   0.00000  Uiso   1.00
H811   H     0.15714   0.40986   0.60804   0.00000  Uiso   1.00
H812   H     0.11175   0.43939   0.63114   0.00000  Uiso   1.00
H813   H     0.36514   0.43286   0.60081   0.00000  Uiso   1.00
H814   H     0.42425   0.47772   0.59749   0.00000  Uiso   1.00
H815   H     0.38968   0.01124   0.56378   0.00000  Uiso   1.00
H816   H     0.25044   0.42205   0.58805   0.00000  Uiso   1.00
H817   H     0.42567   0.47126   0.53734   0.00000  Uiso   1.00
H818   H     0.12586   0.06573   0.40046   0.00000  Uiso   1.00
H819   H     0.18198   0.10213   0.36071   0.00000  Uiso   1.00
H820   H     0.19518   0.13534   0.41064   0.00000  Uiso   1.00
H821   H     0.14618   0.14503   0.38113   0.00000  Uiso   1.00
H822   H     0.17603   0.13248   0.60305   0.00000  Uiso   1.00
H823   H     0.11397   0.08793   0.62414   0.00000  Uiso   1.00
H824   H     0.16226   0.05670   0.63239   0.00000  Uiso   1.00
H825   H     0.13000   0.04436   0.58385   0.00000  Uiso   1.00
H826   H     0.30815   0.38879   0.41140   0.00000  Uiso   1.00
H827   H     0.24674   0.42414   0.40749   0.00000  Uiso   1.00
H828   H     0.25307   0.33041   0.42078   0.00000  Uiso   1.00
H829   H     0.25260   0.36885   0.46947   0.00000  Uiso   1.00
H830   H     0.27858   0.31433   0.47162   0.00000  Uiso   1.00
H831   H     0.25009   0.07682   0.59277   0.00000  Uiso   1.00
H832   H     0.44087   0.09918   0.41352   0.00000  Uiso   1.00
N833   N     0.00000   0.25000   0.61907   0.00000  Uiso   1.00
N834   N     0.37421   0.30091   0.43592   0.00000  Uiso   1.00
N835   N     0.42278   0.36588   0.57985   0.00000  Uiso   1.00
N836   N     0.06715   0.12427   0.42869   0.00000  Uiso   1.00
N837   N     0.17248   0.38249   0.42121   0.00000  Uiso   1.00
N838   N     0.30433   0.13710   0.55884   0.00000  Uiso   1.00
N839   N     0.37337   0.05311   0.43486   0.00000  Uiso   1.00
N840   N     0.12274   0.45017   0.56267   0.00000  Uiso   1.00
N841   N     0.37157   0.44303   0.56884   0.00000  Uiso   1.00
N842   N     0.14822   0.08484   0.41809   0.00000  Uiso   1.00
N843   N     0.16529   0.10564   0.58296   0.00000  Uiso   1.00
N844   N     0.00000   0.25000   0.38093   0.00000  Uiso   1.00
N845   N     0.31030   0.36400   0.43465   0.00000  Uiso   1.00
N846   N     0.25000   0.00000   0.61907   0.00000  Uiso   1.00
N847   N     0.25000   0.00000   0.38093   0.00000  Uiso   1.00
N848   N     0.42682   0.12922   0.42368   0.00000  Uiso   1.00
N849   N     0.05398   0.38756   0.55781   0.00000  Uiso   1.00
N850   N     0.12331   0.30329   0.43467   0.00000  Uiso   1.00
N851   N     0.37262   0.20067   0.56248   0.00000  Uiso   1.00
N852   N     0.11129   0.18091   0.57913   0.00000  Uiso   1.00
O853   O     0.04581   0.20419   0.53821   0.00000  Uiso   1.00
O854   O     0.20420   0.04581   0.46179   0.00000  Uiso   1.00
O855   O     0.20420   0.04581   0.53821   0.00000  Uiso   1.00
O856   O     0.29581   0.45419   0.46179   0.00000  Uiso   1.00
O857   O     0.20420   0.45419   0.46179   0.00000  Uiso   1.00
O858   O     0.29581   0.04581   0.53821   0.00000  Uiso   1.00
O859   O     0.29581   0.04581   0.46179   0.00000  Uiso   1.00
O860   O     0.20420   0.45419   0.53821   0.00000  Uiso   1.00
O861   O     0.00214   0.33196   0.37991   0.00000  Uiso   1.00
O862   O     0.00098   0.16805   0.62015   0.00000  Uiso   1.00
O863   O     0.00255   0.16871   0.37534   0.00000  Uiso   1.00
O864   O     0.45420   0.29581   0.46179   0.00000  Uiso   1.00
O865   O     0.00330   0.33150   0.62467   0.00000  Uiso   1.00
O866   O     0.26037   0.08100   0.38035   0.00000  Uiso   1.00
O867   O     0.24517   0.41824   0.61994   0.00000  Uiso   1.00
O868   O     0.24514   0.41881   0.37503   0.00000  Uiso   1.00
O869   O     0.25675   0.08126   0.62472   0.00000  Uiso   1.00
O870   O     0.45420   0.29581   0.53821   0.00000  Uiso   1.00
O871   O     0.04581   0.20419   0.46179   0.00000  Uiso   1.00
O872   O     0.45420   0.20419   0.46179   0.00000  Uiso   1.00
O873   O     0.04581   0.29581   0.53821   0.00000  Uiso   1.00
O874   O     0.04581   0.29581   0.46179   0.00000  Uiso   1.00
O875   O     0.45420   0.20419   0.53821   0.00000  Uiso   1.00
O876   O     0.29581   0.45419   0.53821   0.00000  Uiso   1.00
Zn877  Zn    0.00000   0.25000   0.55104   0.00000  Uiso   1.00
Zn878  Zn    0.00000   0.25000   0.44896   0.00000  Uiso   1.00
Zn879  Zn    0.25000   0.00000   0.55104   0.00000  Uiso   1.00
Zn880  Zn    0.25000   0.00000   0.44896   0.00000  Uiso   1.00
C881   C     0.55969   0.18996   0.50002   0.00000  Uiso   1.00
C882   C     0.50044   0.21000   0.64184   0.00000  Uiso   1.00
C883   C     0.50075   0.21014   0.35579   0.00000  Uiso   1.00
C884   C     0.50123   0.28994   0.64419   0.00000  Uiso   1.00
C885   C     0.75448   0.03973   0.35827   0.00000  Uiso   1.00
C886   C     0.74743   0.46010   0.64174   0.00000  Uiso   1.00
C887   C     0.74718   0.46025   0.35565   0.00000  Uiso   1.00
C888   C     0.75382   0.03978   0.64425   0.00000  Uiso   1.00
C889   C     0.90170   0.12623   0.46291   0.00000  Uiso   1.00
C890   C     0.59062   0.38041   0.53097   0.00000  Uiso   1.00
C891   C     0.62312   0.34062   0.46652   0.00000  Uiso   1.00
C892   C     0.93956   0.30931   0.50062   0.00000  Uiso   1.00
C893   C     0.87315   0.16272   0.53147   0.00000  Uiso   1.00
C894   C     0.61747   0.15229   0.54014   0.00000  Uiso   1.00
C895   C     0.87478   0.33836   0.46754   0.00000  Uiso   1.00
C896   C     0.90068   0.37187   0.53873   0.00000  Uiso   1.00
C897   C     0.59867   0.12858   0.46298   0.00000  Uiso   1.00
C898   C     0.65080   0.37693   0.46230   0.00000  Uiso   1.00
C899   C     0.84037   0.13083   0.53083   0.00000  Uiso   1.00
C900   C     0.87308   0.09066   0.46653   0.00000  Uiso   1.00
C901   C     0.62335   0.41232   0.53165   0.00000  Uiso   1.00
C902   C     0.87226   0.40741   0.53524   0.00000  Uiso   1.00
C903   C     0.93926   0.19090   0.49937   0.00000  Uiso   1.00
C904   C     0.63465   0.10227   0.46065   0.00000  Uiso   1.00
C905   C     0.64663   0.11731   0.54127   0.00000  Uiso   1.00
C906   C     0.84280   0.37024   0.46715   0.00000  Uiso   1.00
C907   C     0.59276   0.34310   0.50061   0.00000  Uiso   1.00
C908   C     0.90423   0.15954   0.49787   0.00000  Uiso   1.00
C909   C     0.90469   0.34045   0.50232   0.00000  Uiso   1.00
C910   C     0.59263   0.15681   0.50093   0.00000  Uiso   1.00
C911   C     0.84247   0.09350   0.50044   0.00000  Uiso   1.00
C912   C     0.65404   0.40963   0.49774   0.00000  Uiso   1.00
C913   C     0.65709   0.09398   0.50071   0.00000  Uiso   1.00
C914   C     0.56003   0.30960   0.50041   0.00000  Uiso   1.00
C915   C     0.84279   0.40623   0.49960   0.00000  Uiso   1.00
C916   C     0.90545   0.15161   0.38739   0.00000  Uiso   1.00
C917   C     0.52005   0.41035   0.53490   0.00000  Uiso   1.00
C918   C     0.65145   0.26672   0.44564   0.00000  Uiso   1.00
C919   C     0.88966   0.19280   0.60675   0.00000  Uiso   1.00
C920   C     0.63630   0.22224   0.58081   0.00000  Uiso   1.00
C921   C     0.88706   0.31152   0.39103   0.00000  Uiso   1.00
C922   C     0.89996   0.33790   0.61071   0.00000  Uiso   1.00
C923   C     0.53693   0.08809   0.43589   0.00000  Uiso   1.00
C924   C     0.64816   0.40742   0.38895   0.00000  Uiso   1.00
C925   C     0.80977   0.43980   0.49967   0.00000  Uiso   1.00
C926   C     0.76862   0.15804   0.53717   0.00000  Uiso   1.00
C927   C     0.89528   0.01339   0.44976   0.00000  Uiso   1.00
C928   C     0.63845   0.44172   0.60730   0.00000  Uiso   1.00
C929   C     0.90453   0.47738   0.56653   0.00000  Uiso   1.00
C930   C     0.66886   0.11860   0.39135   0.00000  Uiso   1.00
C931   C     0.64152   0.07207   0.60702   0.00000  Uiso   1.00
C932   C     0.77157   0.34352   0.45013   0.00000  Uiso   1.00
C933   C     0.69031   0.06044   0.50028   0.00000  Uiso   1.00
C934   C     0.68916   0.44098   0.49933   0.00000  Uiso   1.00
C935   C     0.80983   0.05985   0.50040   0.00000  Uiso   1.00
C936   C     0.50090   0.29003   0.35817   0.00000  Uiso   1.00
H937   H     0.99975   0.32788   0.41215   0.00000  Uiso   1.00
H938   H     0.87480   0.13461   0.37888   0.00000  Uiso   1.00
H939   H     0.92539   0.15030   0.35699   0.00000  Uiso   1.00
H940   H     0.89938   0.18776   0.39686   0.00000  Uiso   1.00
H941   H     0.55972   0.40110   0.58949   0.00000  Uiso   1.00
H942   H     0.99374   0.41706   0.55842   0.00000  Uiso   1.00
H943   H     0.50793   0.38879   0.50635   0.00000  Uiso   1.00
H944   H     0.53118   0.44346   0.52236   0.00000  Uiso   1.00
H945   H     0.62464   0.31181   0.40152   0.00000  Uiso   1.00
H946   H     0.68485   0.27883   0.44639   0.00000  Uiso   1.00
H947   H     0.64814   0.23867   0.42006   0.00000  Uiso   1.00
H948   H     0.50000   0.17215   0.58782   0.00000  Uiso   1.00
H949   H     0.64312   0.25312   0.47861   0.00000  Uiso   1.00
H950   H     0.84504   0.21919   0.56278   0.00000  Uiso   1.00
H951   H     0.90839   0.22299   0.61838   0.00000  Uiso   1.00
H952   H     0.91069   0.16265   0.60662   0.00000  Uiso   1.00
H953   H     0.86366   0.18773   0.63095   0.00000  Uiso   1.00
H954   H     0.61048   0.16483   0.60923   0.00000  Uiso   1.00
H955   H     0.67063   0.21426   0.57974   0.00000  Uiso   1.00
H956   H     0.62958   0.24181   0.61235   0.00000  Uiso   1.00
H957   H     0.62779   0.24379   0.55244   0.00000  Uiso   1.00
H958   H     0.84677   0.28174   0.43637   0.00000  Uiso   1.00
H959   H     0.99949   0.17369   0.40773   0.00000  Uiso   1.00
H960   H     0.89359   0.27947   0.37176   0.00000  Uiso   1.00
H961   H     0.91630   0.33270   0.39188   0.00000  Uiso   1.00
H962   H     0.86160   0.32996   0.37359   0.00000  Uiso   1.00
H963   H     0.93403   0.39530   0.59538   0.00000  Uiso   1.00
H964   H     0.87036   0.35488   0.62180   0.00000  Uiso   1.00
H965   H     0.92002   0.33228   0.64052   0.00000  Uiso   1.00
H966   H     0.89185   0.30431   0.59481   0.00000  Uiso   1.00
H967   H     0.57820   0.12410   0.39633   0.00000  Uiso   1.00
H968   H     0.51451   0.08525   0.40719   0.00000  Uiso   1.00
H969   H     0.51871   0.09540   0.46697   0.00000  Uiso   1.00
H970   H     0.50066   0.32659   0.59219   0.00000  Uiso   1.00
H971   H     0.55338   0.05501   0.43853   0.00000  Uiso   1.00
H972   H     0.68501   0.35313   0.40735   0.00000  Uiso   1.00
H973   H     0.61780   0.38964   0.38078   0.00000  Uiso   1.00
H974   H     0.66637   0.41014   0.35760   0.00000  Uiso   1.00
H975   H     0.64137   0.44226   0.40226   0.00000  Uiso   1.00
H976   H     0.81052   0.15102   0.59027   0.00000  Uiso   1.00
H977   H     0.74160   0.16012   0.56070   0.00000  Uiso   1.00
H978   H     0.75841   0.13758   0.50706   0.00000  Uiso   1.00
H979   H     0.77705   0.19297   0.52717   0.00000  Uiso   1.00
H980   H     0.87976   0.06046   0.40211   0.00000  Uiso   1.00
H981   H     0.75085   0.07817   0.41131   0.00000  Uiso   1.00
H982   H     0.92919   0.02152   0.45652   0.00000  Uiso   1.00
H983   H     0.89311   0.48589   0.42349   0.00000  Uiso   1.00
H984   H     0.88023   0.00091   0.48041   0.00000  Uiso   1.00
H985   H     0.59545   0.46917   0.56226   0.00000  Uiso   1.00
H986   H     0.65915   0.47041   0.61871   0.00000  Uiso   1.00
H987   H     0.65714   0.40986   0.60804   0.00000  Uiso   1.00
H988   H     0.61175   0.43939   0.63114   0.00000  Uiso   1.00
H989   H     0.86514   0.43286   0.60081   0.00000  Uiso   1.00
H990   H     0.92425   0.47772   0.59749   0.00000  Uiso   1.00
H991   H     0.88968   0.01124   0.56378   0.00000  Uiso   1.00
H992   H     0.75044   0.42205   0.58805   0.00000  Uiso   1.00
H993   H     0.92567   0.47126   0.53734   0.00000  Uiso   1.00
H994   H     0.62586   0.06573   0.40046   0.00000  Uiso   1.00
H995   H     0.68198   0.10213   0.36071   0.00000  Uiso   1.00
H996   H     0.69518   0.13534   0.41064   0.00000  Uiso   1.00
H997   H     0.64618   0.14503   0.38113   0.00000  Uiso   1.00
H998   H     0.67603   0.13248   0.60305   0.00000  Uiso   1.00
H999   H     0.61397   0.08793   0.62414   0.00000  Uiso   1.00
H1000  H     0.66226   0.05670   0.63239   0.00000  Uiso   1.00
H1001  H     0.63000   0.04436   0.58385   0.00000  Uiso   1.00
H1002  H     0.80815   0.38879   0.41140   0.00000  Uiso   1.00
H1003  H     0.74674   0.42414   0.40749   0.00000  Uiso   1.00
H1004  H     0.75307   0.33041   0.42078   0.00000  Uiso   1.00
H1005  H     0.75260   0.36885   0.46947   0.00000  Uiso   1.00
H1006  H     0.77858   0.31433   0.47162   0.00000  Uiso   1.00
H1007  H     0.75009   0.07682   0.59277   0.00000  Uiso   1.00
H1008  H     0.94087   0.09918   0.41352   0.00000  Uiso   1.00
N1009  N     0.50000   0.25000   0.61907   0.00000  Uiso   1.00
N1010  N     0.87421   0.30091   0.43592   0.00000  Uiso   1.00
N1011  N     0.92278   0.36588   0.57985   0.00000  Uiso   1.00
N1012  N     0.56715   0.12427   0.42869   0.00000  Uiso   1.00
N1013  N     0.67248   0.38249   0.42121   0.00000  Uiso   1.00
N1014  N     0.80433   0.13710   0.55884   0.00000  Uiso   1.00
N1015  N     0.87337   0.05311   0.43486   0.00000  Uiso   1.00
N1016  N     0.62274   0.45017   0.56267   0.00000  Uiso   1.00
N1017  N     0.87157   0.44303   0.56884   0.00000  Uiso   1.00
N1018  N     0.64822   0.08484   0.41809   0.00000  Uiso   1.00
N1019  N     0.66529   0.10564   0.58296   0.00000  Uiso   1.00
N1020  N     0.50000   0.25000   0.38093   0.00000  Uiso   1.00
N1021  N     0.81030   0.36400   0.43465   0.00000  Uiso   1.00
N1022  N     0.75000   0.00000   0.61907   0.00000  Uiso   1.00
N1023  N     0.75000   0.00000   0.38093   0.00000  Uiso   1.00
N1024  N     0.92682   0.12922   0.42368   0.00000  Uiso   1.00
N1025  N     0.55398   0.38756   0.55781   0.00000  Uiso   1.00
N1026  N     0.62331   0.30329   0.43467   0.00000  Uiso   1.00
N1027  N     0.87262   0.20067   0.56248   0.00000  Uiso   1.00
N1028  N     0.61129   0.18091   0.57913   0.00000  Uiso   1.00
O1029  O     0.54581   0.20419   0.53821   0.00000  Uiso   1.00
O1030  O     0.70420   0.04581   0.46179   0.00000  Uiso   1.00
O1031  O     0.70420   0.04581   0.53821   0.00000  Uiso   1.00
O1032  O     0.79581   0.45419   0.46179   0.00000  Uiso   1.00
O1033  O     0.70420   0.45419   0.46179   0.00000  Uiso   1.00
O1034  O     0.79581   0.04581   0.53821   0.00000  Uiso   1.00
O1035  O     0.79581   0.04581   0.46179   0.00000  Uiso   1.00
O1036  O     0.70420   0.45419   0.53821   0.00000  Uiso   1.00
O1037  O     0.50214   0.33196   0.37991   0.00000  Uiso   1.00
O1038  O     0.50098   0.16805   0.62015   0.00000  Uiso   1.00
O1039  O     0.50255   0.16871   0.37534   0.00000  Uiso   1.00
O1040  O     0.95420   0.29581   0.46179   0.00000  Uiso   1.00
O1041  O     0.50330   0.33150   0.62467   0.00000  Uiso   1.00
O1042  O     0.76037   0.08100   0.38035   0.00000  Uiso   1.00
O1043  O     0.74517   0.41824   0.61994   0.00000  Uiso   1.00
O1044  O     0.74514   0.41881   0.37503   0.00000  Uiso   1.00
O1045  O     0.75675   0.08126   0.62472   0.00000  Uiso   1.00
O1046  O     0.95420   0.29581   0.53821   0.00000  Uiso   1.00
O1047  O     0.54581   0.20419   0.46179   0.00000  Uiso   1.00
O1048  O     0.95420   0.20419   0.46179   0.00000  Uiso   1.00
O1049  O     0.54581   0.29581   0.53821   0.00000  Uiso   1.00
O1050  O     0.54581   0.29581   0.46179   0.00000  Uiso   1.00
O1051  O     0.95420   0.20419   0.53821   0.00000  Uiso   1.00
O1052  O     0.79581   0.45419   0.53821   0.00000  Uiso   1.00
Zn1053 Zn    0.50000   0.25000   0.55104   0.00000  Uiso   1.00
Zn1054 Zn    0.50000   0.25000   0.44896   0.00000  Uiso   1.00
Zn1055 Zn    0.75000   0.00000   0.55104   0.00000  Uiso   1.00
Zn1056 Zn    0.75000   0.00000   0.44896   0.00000  Uiso   1.00
C1057  C     0.05969   0.68996   0.50002   0.00000  Uiso   1.00
C1058  C     0.00044   0.71000   0.64184   0.00000  Uiso   1.00
C1059  C     0.00075   0.71014   0.35579   0.00000  Uiso   1.00
C1060  C     0.00123   0.78994   0.64419   0.00000  Uiso   1.00
C1061  C     0.25448   0.53973   0.35827   0.00000  Uiso   1.00
C1062  C     0.24743   0.96010   0.64174   0.00000  Uiso   1.00
C1063  C     0.24718   0.96025   0.35565   0.00000  Uiso   1.00
C1064  C     0.25382   0.53978   0.64425   0.00000  Uiso   1.00
C1065  C     0.40170   0.62623   0.46291   0.00000  Uiso   1.00
C1066  C     0.09062   0.88041   0.53097   0.00000  Uiso   1.00
C1067  C     0.12312   0.84062   0.46652   0.00000  Uiso   1.00
C1068  C     0.43956   0.80931   0.50062   0.00000  Uiso   1.00
C1069  C     0.37315   0.66272   0.53147   0.00000  Uiso   1.00
C1070  C     0.11747   0.65229   0.54014   0.00000  Uiso   1.00
C1071  C     0.37478   0.83836   0.46754   0.00000  Uiso   1.00
C1072  C     0.40068   0.87187   0.53873   0.00000  Uiso   1.00
C1073  C     0.09867   0.62858   0.46298   0.00000  Uiso   1.00
C1074  C     0.15080   0.87693   0.46230   0.00000  Uiso   1.00
C1075  C     0.34037   0.63083   0.53083   0.00000  Uiso   1.00
C1076  C     0.37308   0.59066   0.46653   0.00000  Uiso   1.00
C1077  C     0.12335   0.91232   0.53165   0.00000  Uiso   1.00
C1078  C     0.37226   0.90741   0.53524   0.00000  Uiso   1.00
C1079  C     0.43926   0.69090   0.49937   0.00000  Uiso   1.00
C1080  C     0.13465   0.60227   0.46065   0.00000  Uiso   1.00
C1081  C     0.14663   0.61731   0.54127   0.00000  Uiso   1.00
C1082  C     0.34280   0.87024   0.46715   0.00000  Uiso   1.00
C1083  C     0.09276   0.84310   0.50061   0.00000  Uiso   1.00
C1084  C     0.40423   0.65954   0.49787   0.00000  Uiso   1.00
C1085  C     0.40469   0.84045   0.50232   0.00000  Uiso   1.00
C1086  C     0.09263   0.65681   0.50093   0.00000  Uiso   1.00
C1087  C     0.34247   0.59350   0.50044   0.00000  Uiso   1.00
C1088  C     0.15404   0.90963   0.49774   0.00000  Uiso   1.00
C1089  C     0.15709   0.59398   0.50071   0.00000  Uiso   1.00
C1090  C     0.06003   0.80960   0.50041   0.00000  Uiso   1.00
C1091  C     0.34279   0.90623   0.49960   0.00000  Uiso   1.00
C1092  C     0.40545   0.65161   0.38739   0.00000  Uiso   1.00
C1093  C     0.02005   0.91035   0.53490   0.00000  Uiso   1.00
C1094  C     0.15145   0.76672   0.44564   0.00000  Uiso   1.00
C1095  C     0.38966   0.69280   0.60675   0.00000  Uiso   1.00
C1096  C     0.13630   0.72224   0.58081   0.00000  Uiso   1.00
C1097  C     0.38706   0.81152   0.39103   0.00000  Uiso   1.00
C1098  C     0.39996   0.83790   0.61071   0.00000  Uiso   1.00
C1099  C     0.03693   0.58809   0.43589   0.00000  Uiso   1.00
C1100  C     0.14816   0.90742   0.38895   0.00000  Uiso   1.00
C1101  C     0.30977   0.93980   0.49967   0.00000  Uiso   1.00
C1102  C     0.26862   0.65804   0.53717   0.00000  Uiso   1.00
C1103  C     0.39528   0.51339   0.44976   0.00000  Uiso   1.00
C1104  C     0.13845   0.94172   0.60730   0.00000  Uiso   1.00
C1105  C     0.40453   0.97738   0.56653   0.00000  Uiso   1.00
C1106  C     0.16886   0.61860   0.39135   0.00000  Uiso   1.00
C1107  C     0.14152   0.57207   0.60702   0.00000  Uiso   1.00
C1108  C     0.27157   0.84352   0.45013   0.00000  Uiso   1.00
C1109  C     0.19031   0.56044   0.50028   0.00000  Uiso   1.00
C1110  C     0.18916   0.94098   0.49933   0.00000  Uiso   1.00
C1111  C     0.30983   0.55985   0.50040   0.00000  Uiso   1.00
C1112  C     0.00090   0.79003   0.35817   0.00000  Uiso   1.00
H1113  H     0.49975   0.82788   0.41215   0.00000  Uiso   1.00
H1114  H     0.37480   0.63461   0.37888   0.00000  Uiso   1.00
H1115  H     0.42539   0.65030   0.35699   0.00000  Uiso   1.00
H1116  H     0.39938   0.68776   0.39686   0.00000  Uiso   1.00
H1117  H     0.05972   0.90110   0.58949   0.00000  Uiso   1.00
H1118  H     0.49374   0.91706   0.55842   0.00000  Uiso   1.00
H1119  H     0.00793   0.88879   0.50635   0.00000  Uiso   1.00
H1120  H     0.03118   0.94346   0.52236   0.00000  Uiso   1.00
H1121  H     0.12464   0.81181   0.40152   0.00000  Uiso   1.00
H1122  H     0.18485   0.77883   0.44639   0.00000  Uiso   1.00
H1123  H     0.14814   0.73867   0.42006   0.00000  Uiso   1.00
H1124  H     0.00000   0.67215   0.58782   0.00000  Uiso   1.00
H1125  H     0.14312   0.75312   0.47861   0.00000  Uiso   1.00
H1126  H     0.34504   0.71919   0.56278   0.00000  Uiso   1.00
H1127  H     0.40839   0.72299   0.61838   0.00000  Uiso   1.00
H1128  H     0.41069   0.66265   0.60662   0.00000  Uiso   1.00
H1129  H     0.36366   0.68773   0.63095   0.00000  Uiso   1.00
H1130  H     0.11048   0.66483   0.60923   0.00000  Uiso   1.00
H1131  H     0.17063   0.71426   0.57974   0.00000  Uiso   1.00
H1132  H     0.12958   0.74181   0.61235   0.00000  Uiso   1.00
H1133  H     0.12779   0.74379   0.55244   0.00000  Uiso   1.00
H1134  H     0.34677   0.78174   0.43637   0.00000  Uiso   1.00
H1135  H     0.49949   0.67369   0.40773   0.00000  Uiso   1.00
H1136  H     0.39359   0.77947   0.37176   0.00000  Uiso   1.00
H1137  H     0.41630   0.83270   0.39188   0.00000  Uiso   1.00
H1138  H     0.36160   0.82996   0.37359   0.00000  Uiso   1.00
H1139  H     0.43403   0.89530   0.59538   0.00000  Uiso   1.00
H1140  H     0.37036   0.85488   0.62180   0.00000  Uiso   1.00
H1141  H     0.42002   0.83228   0.64052   0.00000  Uiso   1.00
H1142  H     0.39185   0.80431   0.59481   0.00000  Uiso   1.00
H1143  H     0.07820   0.62410   0.39633   0.00000  Uiso   1.00
H1144  H     0.01451   0.58525   0.40719   0.00000  Uiso   1.00
H1145  H     0.01871   0.59540   0.46697   0.00000  Uiso   1.00
H1146  H     0.00066   0.82659   0.59219   0.00000  Uiso   1.00
H1147  H     0.05338   0.55501   0.43853   0.00000  Uiso   1.00
H1148  H     0.18501   0.85313   0.40735   0.00000  Uiso   1.00
H1149  H     0.11780   0.88964   0.38078   0.00000  Uiso   1.00
H1150  H     0.16637   0.91014   0.35760   0.00000  Uiso   1.00
H1151  H     0.14137   0.94226   0.40226   0.00000  Uiso   1.00
H1152  H     0.31052   0.65102   0.59027   0.00000  Uiso   1.00
H1153  H     0.24160   0.66012   0.56070   0.00000  Uiso   1.00
H1154  H     0.25841   0.63758   0.50706   0.00000  Uiso   1.00
H1155  H     0.27705   0.69297   0.52717   0.00000  Uiso   1.00
H1156  H     0.37976   0.56046   0.40211   0.00000  Uiso   1.00
H1157  H     0.25085   0.57817   0.41131   0.00000  Uiso   1.00
H1158  H     0.42919   0.52152   0.45652   0.00000  Uiso   1.00
H1159  H     0.39311   0.98589   0.42349   0.00000  Uiso   1.00
H1160  H     0.38023   0.50091   0.48041   0.00000  Uiso   1.00
H1161  H     0.09545   0.96917   0.56226   0.00000  Uiso   1.00
H1162  H     0.15915   0.97041   0.61871   0.00000  Uiso   1.00
H1163  H     0.15714   0.90986   0.60804   0.00000  Uiso   1.00
H1164  H     0.11175   0.93939   0.63114   0.00000  Uiso   1.00
H1165  H     0.36514   0.93286   0.60081   0.00000  Uiso   1.00
H1166  H     0.42425   0.97772   0.59749   0.00000  Uiso   1.00
H1167  H     0.38968   0.51124   0.56378   0.00000  Uiso   1.00
H1168  H     0.25044   0.92205   0.58805   0.00000  Uiso   1.00
H1169  H     0.42567   0.97126   0.53734   0.00000  Uiso   1.00
H1170  H     0.12586   0.56573   0.40046   0.00000  Uiso   1.00
H1171  H     0.18198   0.60213   0.36071   0.00000  Uiso   1.00
H1172  H     0.19518   0.63534   0.41064   0.00000  Uiso   1.00
H1173  H     0.14618   0.64503   0.38113   0.00000  Uiso   1.00
H1174  H     0.17603   0.63248   0.60305   0.00000  Uiso   1.00
H1175  H     0.11397   0.58793   0.62414   0.00000  Uiso   1.00
H1176  H     0.16226   0.55670   0.63239   0.00000  Uiso   1.00
H1177  H     0.13000   0.54436   0.58385   0.00000  Uiso   1.00
H1178  H     0.30815   0.88879   0.41140   0.00000  Uiso   1.00
H1179  H     0.24674   0.92414   0.40749   0.00000  Uiso   1.00
H1180  H     0.25307   0.83041   0.42078   0.00000  Uiso   1.00
H1181  H     0.25260   0.86885   0.46947   0.00000  Uiso   1.00
H1182  H     0.27858   0.81433   0.47162   0.00000  Uiso   1.00
H1183  H     0.25009   0.57682   0.59277   0.00000  Uiso   1.00
H1184  H     0.44087   0.59918   0.41352   0.00000  Uiso   1.00
N1185  N     0.00000   0.75000   0.61907   0.00000  Uiso   1.00
N1186  N     0.37421   0.80091   0.43592   0.00000  Uiso   1.00
N1187  N     0.42278   0.86588   0.57985   0.00000  Uiso   1.00
N1188  N     0.06715   0.62427   0.42869   0.00000  Uiso   1.00
N1189  N     0.17248   0.88249   0.42121   0.00000  Uiso   1.00
N1190  N     0.30433   0.63710   0.55884   0.00000  Uiso   1.00
N1191  N     0.37337   0.55311   0.43486   0.00000  Uiso   1.00
N1192  N     0.12274   0.95017   0.56267   0.00000  Uiso   1.00
N1193  N     0.37157   0.94303   0.56884   0.00000  Uiso   1.00
N1194  N     0.14822   0.58484   0.41809   0.00000  Uiso   1.00
N1195  N     0.16529   0.60564   0.58296   0.00000  Uiso   1.00
N1196  N     0.00000   0.75000   0.38093   0.00000  Uiso   1.00
N1197  N     0.31030   0.86400   0.43465   0.00000  Uiso   1.00
N1198  N     0.25000   0.50000   0.61907   0.00000  Uiso   1.00
N1199  N     0.25000   0.50000   0.38093   0.00000  Uiso   1.00
N1200  N     0.42682   0.62922   0.42368   0.00000  Uiso   1.00
N1201  N     0.05398   0.88756   0.55781   0.00000  Uiso   1.00
N1202  N     0.12331   0.80329   0.43467   0.00000  Uiso   1.00
N1203  N     0.37262   0.70067   0.56248   0.00000  Uiso   1.00
N1204  N     0.11129   0.68091   0.57913   0.00000  Uiso   1.00
O1205  O     0.04581   0.70419   0.53821   0.00000  Uiso   1.00
O1206  O     0.20420   0.54581   0.46179   0.00000  Uiso   1.00
O1207  O     0.20420   0.54581   0.53821   0.00000  Uiso   1.00
O1208  O     0.29581   0.95419   0.46179   0.00000  Uiso   1.00
O1209  O     0.20420   0.95419   0.46179   0.00000  Uiso   1.00
O1210  O     0.29581   0.54581   0.53821   0.00000  Uiso   1.00
O1211  O     0.29581   0.54581   0.46179   0.00000  Uiso   1.00
O1212  O     0.20420   0.95419   0.53821   0.00000  Uiso   1.00
O1213  O     0.00214   0.83196   0.37991   0.00000  Uiso   1.00
O1214  O     0.00098   0.66805   0.62015   0.00000  Uiso   1.00
O1215  O     0.00255   0.66871   0.37534   0.00000  Uiso   1.00
O1216  O     0.45420   0.79581   0.46179   0.00000  Uiso   1.00
O1217  O     0.00330   0.83150   0.62467   0.00000  Uiso   1.00
O1218  O     0.26037   0.58100   0.38035   0.00000  Uiso   1.00
O1219  O     0.24517   0.91824   0.61994   0.00000  Uiso   1.00
O1220  O     0.24514   0.91881   0.37503   0.00000  Uiso   1.00
O1221  O     0.25675   0.58126   0.62472   0.00000  Uiso   1.00
O1222  O     0.45420   0.79581   0.53821   0.00000  Uiso   1.00
O1223  O     0.04581   0.70419   0.46179   0.00000  Uiso   1.00
O1224  O     0.45420   0.70419   0.46179   0.00000  Uiso   1.00
O1225  O     0.04581   0.79581   0.53821   0.00000  Uiso   1.00
O1226  O     0.04581   0.79581   0.46179   0.00000  Uiso   1.00
O1227  O     0.45420   0.70419   0.53821   0.00000  Uiso   1.00
O1228  O     0.29581   0.95419   0.53821   0.00000  Uiso   1.00
Zn1229 Zn    0.00000   0.75000   0.55104   0.00000  Uiso   1.00
Zn1230 Zn    0.00000   0.75000   0.44896   0.00000  Uiso   1.00
Zn1231 Zn    0.25000   0.50000   0.55104   0.00000  Uiso   1.00
Zn1232 Zn    0.25000   0.50000   0.44896   0.00000  Uiso   1.00
C1233  C     0.55969   0.68996   0.50002   0.00000  Uiso   1.00
C1234  C     0.50044   0.71000   0.64184   0.00000  Uiso   1.00
C1235  C     0.50075   0.71014   0.35579   0.00000  Uiso   1.00
C1236  C     0.50123   0.78994   0.64419   0.00000  Uiso   1.00
C1237  C     0.75448   0.53973   0.35827   0.00000  Uiso   1.00
C1238  C     0.74743   0.96010   0.64174   0.00000  Uiso   1.00
C1239  C     0.74718   0.96025   0.35565   0.00000  Uiso   1.00
C1240  C     0.75382   0.53978   0.64425   0.00000  Uiso   1.00
C1241  C     0.90170   0.62623   0.46291   0.00000  Uiso   1.00
C1242  C     0.59062   0.88041   0.53097   0.00000  Uiso   1.00
C1243  C     0.62312   0.84062   0.46652   0.00000  Uiso   1.00
C1244  C     0.93956   0.80931   0.50062   0.00000  Uiso   1.00
C1245  C     0.87315   0.66272   0.53147   0.00000  Uiso   1.00
C1246  C     0.61747   0.65229   0.54014   0.00000  Uiso   1.00
C1247  C     0.87478   0.83836   0.46754   0.00000  Uiso   1.00
C1248  C     0.90068   0.87187   0.53873   0.00000  Uiso   1.00
C1249  C     0.59867   0.62858   0.46298   0.00000  Uiso   1.00
C1250  C     0.65080   0.87693   0.46230   0.00000  Uiso   1.00
C1251  C     0.84037   0.63083   0.53083   0.00000  Uiso   1.00
C1252  C     0.87308   0.59066   0.46653   0.00000  Uiso   1.00
C1253  C     0.62335   0.91232   0.53165   0.00000  Uiso   1.00
C1254  C     0.87226   0.90741   0.53524   0.00000  Uiso   1.00
C1255  C     0.93926   0.69090   0.49937   0.00000  Uiso   1.00
C1256  C     0.63465   0.60227   0.46065   0.00000  Uiso   1.00
C1257  C     0.64663   0.61731   0.54127   0.00000  Uiso   1.00
C1258  C     0.84280   0.87024   0.46715   0.00000  Uiso   1.00
C1259  C     0.59276   0.84310   0.50061   0.00000  Uiso   1.00
C1260  C     0.90423   0.65954   0.49787   0.00000  Uiso   1.00
C1261  C     0.90469   0.84045   0.50232   0.00000  Uiso   1.00
C1262  C     0.59263   0.65681   0.50093   0.00000  Uiso   1.00
C1263  C     0.84247   0.59350   0.50044   0.00000  Uiso   1.00
C1264  C     0.65404   0.90963   0.49774   0.00000  Uiso   1.00
C1265  C     0.65709   0.59398   0.50071   0.00000  Uiso   1.00
C1266  C     0.56003   0.80960   0.50041   0.00000  Uiso   1.00
C1267  C     0.84279   0.90623   0.49960   0.00000  Uiso   1.00
C1268  C     0.90545   0.65161   0.38739   0.00000  Uiso   1.00
C1269  C     0.52005   0.91035   0.53490   0.00000  Uiso   1.00
C1270  C     0.65145   0.76672   0.44564   0.00000  Uiso   1.00
C1271  C     0.88966   0.69280   0.60675   0.00000  Uiso   1.00
C1272  C     0.63630   0.72224   0.58081   0.00000  Uiso   1.00
C1273  C     0.88706   0.81152   0.39103   0.00000  Uiso   1.00
C1274  C     0.89996   0.83790   0.61071   0.00000  Uiso   1.00
C1275  C     0.53693   0.58809   0.43589   0.00000  Uiso   1.00
C1276  C     0.64816   0.90742   0.38895   0.00000  Uiso   1.00
C1277  C     0.80977   0.93980   0.49967   0.00000  Uiso   1.00
C1278  C     0.76862   0.65804   0.53717   0.00000  Uiso   1.00
C1279  C     0.89528   0.51339   0.44976   0.00000  Uiso   1.00
C1280  C     0.63845   0.94172   0.60730   0.00000  Uiso   1.00
C1281  C     0.90453   0.97738   0.56653   0.00000  Uiso   1.00
C1282  C     0.66886   0.61860   0.39135   0.00000  Uiso   1.00
C1283  C     0.64152   0.57207   0.60702   0.00000  Uiso   1.00
C1284  C     0.77157   0.84352   0.45013   0.00000  Uiso   1.00
C1285  C     0.69031   0.56044   0.50028   0.00000  Uiso   1.00
C1286  C     0.68916   0.94098   0.49933   0.00000  Uiso   1.00
C1287  C     0.80983   0.55985   0.50040   0.00000  Uiso   1.00
C1288  C     0.50090   0.79003   0.35817   0.00000  Uiso   1.00
H1289  H     0.99975   0.82788   0.41215   0.00000  Uiso   1.00
H1290  H     0.87480   0.63461   0.37888   0.00000  Uiso   1.00
H1291  H     0.92539   0.65030   0.35699   0.00000  Uiso   1.00
H1292  H     0.89938   0.68776   0.39686   0.00000  Uiso   1.00
H1293  H     0.55972   0.90110   0.58949   0.00000  Uiso   1.00
H1294  H     0.99374   0.91706   0.55842   0.00000  Uiso   1.00
H1295  H     0.50793   0.88879   0.50635   0.00000  Uiso   1.00
H1296  H     0.53118   0.94346   0.52236   0.00000  Uiso   1.00
H1297  H     0.62464   0.81181   0.40152   0.00000  Uiso   1.00
H1298  H     0.68485   0.77883   0.44639   0.00000  Uiso   1.00
H1299  H     0.64814   0.73867   0.42006   0.00000  Uiso   1.00
H1300  H     0.50000   0.67215   0.58782   0.00000  Uiso   1.00
H1301  H     0.64312   0.75312   0.47861   0.00000  Uiso   1.00
H1302  H     0.84504   0.71919   0.56278   0.00000  Uiso   1.00
H1303  H     0.90839   0.72299   0.61838   0.00000  Uiso   1.00
H1304  H     0.91069   0.66265   0.60662   0.00000  Uiso   1.00
H1305  H     0.86366   0.68773   0.63095   0.00000  Uiso   1.00
H1306  H     0.61048   0.66483   0.60923   0.00000  Uiso   1.00
H1307  H     0.67063   0.71426   0.57974   0.00000  Uiso   1.00
H1308  H     0.62958   0.74181   0.61235   0.00000  Uiso   1.00
H1309  H     0.62779   0.74379   0.55244   0.00000  Uiso   1.00
H1310  H     0.84677   0.78174   0.43637   0.00000  Uiso   1.00
H1311  H     0.99949   0.67369   0.40773   0.00000  Uiso   1.00
H1312  H     0.89359   0.77947   0.37176   0.00000  Uiso   1.00
H1313  H     0.91630   0.83270   0.39188   0.00000  Uiso   1.00
H1314  H     0.86160   0.82996   0.37359   0.00000  Uiso   1.00
H1315  H     0.93403   0.89530   0.59538   0.00000  Uiso   1.00
H1316  H     0.87036   0.85488   0.62180   0.00000  Uiso   1.00
H1317  H     0.92002   0.83228   0.64052   0.00000  Uiso   1.00
H1318  H     0.89185   0.80431   0.59481   0.00000  Uiso   1.00
H1319  H     0.57820   0.62410   0.39633   0.00000  Uiso   1.00
H1320  H     0.51451   0.58525   0.40719   0.00000  Uiso   1.00
H1321  H     0.51871   0.59540   0.46697   0.00000  Uiso   1.00
H1322  H     0.50066   0.82659   0.59219   0.00000  Uiso   1.00
H1323  H     0.55338   0.55501   0.43853   0.00000  Uiso   1.00
H1324  H     0.68501   0.85313   0.40735   0.00000  Uiso   1.00
H1325  H     0.61780   0.88964   0.38078   0.00000  Uiso   1.00
H1326  H     0.66637   0.91014   0.35760   0.00000  Uiso   1.00
H1327  H     0.64137   0.94226   0.40226   0.00000  Uiso   1.00
H1328  H     0.81052   0.65102   0.59027   0.00000  Uiso   1.00
H1329  H     0.74160   0.66012   0.56070   0.00000  Uiso   1.00
H1330  H     0.75841   0.63758   0.50706   0.00000  Uiso   1.00
H1331  H     0.77705   0.69297   0.52717   0.00000  Uiso   1.00
H1332  H     0.87976   0.56046   0.40211   0.00000  Uiso   1.00
H1333  H     0.75085   0.57817   0.41131   0.00000  Uiso   1.00
H1334  H     0.92919   0.52152   0.45652   0.00000  Uiso   1.00
H1335  H     0.89311   0.98589   0.42349   0.00000  Uiso   1.00
H1336  H     0.88023   0.50091   0.48041   0.00000  Uiso   1.00
H1337  H     0.59545   0.96917   0.56226   0.00000  Uiso   1.00
H1338  H     0.65915   0.97041   0.61871   0.00000  Uiso   1.00
H1339  H     0.65714   0.90986   0.60804   0.00000  Uiso   1.00
H1340  H     0.61175   0.93939   0.63114   0.00000  Uiso   1.00
H1341  H     0.86514   0.93286   0.60081   0.00000  Uiso   1.00
H1342  H     0.92425   0.97772   0.59749   0.00000  Uiso   1.00
H1343  H     0.88968   0.51124   0.56378   0.00000  Uiso   1.00
H1344  H     0.75044   0.92205   0.58805   0.00000  Uiso   1.00
H1345  H     0.92567   0.97126   0.53734   0.00000  Uiso   1.00
H1346  H     0.62586   0.56573   0.40046   0.00000  Uiso   1.00
H1347  H     0.68198   0.60213   0.36071   0.00000  Uiso   1.00
H1348  H     0.69518   0.63534   0.41064   0.00000  Uiso   1.00
H1349  H     0.64618   0.64503   0.38113   0.00000  Uiso   1.00
H1350  H     0.67603   0.63248   0.60305   0.00000  Uiso   1.00
H1351  H     0.61397   0.58793   0.62414   0.00000  Uiso   1.00
H1352  H     0.66226   0.55670   0.63239   0.00000  Uiso   1.00
H1353  H     0.63000   0.54436   0.58385   0.00000  Uiso   1.00
H1354  H     0.80815   0.88879   0.41140   0.00000  Uiso   1.00
H1355  H     0.74674   0.92414   0.40749   0.00000  Uiso   1.00
H1356  H     0.75307   0.83041   0.42078   0.00000  Uiso   1.00
H1357  H     0.75260   0.86885   0.46947   0.00000  Uiso   1.00
H1358  H     0.77858   0.81433   0.47162   0.00000  Uiso   1.00
H1359  H     0.75009   0.57682   0.59277   0.00000  Uiso   1.00
H1360  H     0.94087   0.59918   0.41352   0.00000  Uiso   1.00
N1361  N     0.50000   0.75000   0.61907   0.00000  Uiso   1.00
N1362  N     0.87421   0.80091   0.43592   0.00000  Uiso   1.00
N1363  N     0.92278   0.86588   0.57985   0.00000  Uiso   1.00
N1364  N     0.56715   0.62427   0.42869   0.00000  Uiso   1.00
N1365  N     0.67248   0.88249   0.42121   0.00000  Uiso   1.00
N1366  N     0.80433   0.63710   0.55884   0.00000  Uiso   1.00
N1367  N     0.87337   0.55311   0.43486   0.00000  Uiso   1.00
N1368  N     0.62274   0.95017   0.56267   0.00000  Uiso   1.00
N1369  N     0.87157   0.94303   0.56884   0.00000  Uiso   1.00
N1370  N     0.64822   0.58484   0.41809   0.00000  Uiso   1.00
N1371  N     0.66529   0.60564   0.58296   0.00000  Uiso   1.00
N1372  N     0.50000   0.75000   0.38093   0.00000  Uiso   1.00
N1373  N     0.81030   0.86400   0.43465   0.00000  Uiso   1.00
N1374  N     0.75000   0.50000   0.61907   0.00000  Uiso   1.00
N1375  N     0.75000   0.50000   0.38093   0.00000  Uiso   1.00
N1376  N     0.92682   0.62922   0.42368   0.00000  Uiso   1.00
N1377  N     0.55398   0.88756   0.55781   0.00000  Uiso   1.00
N1378  N     0.62331   0.80329   0.43467   0.00000  Uiso   1.00
N1379  N     0.87262   0.70067   0.56248   0.00000  Uiso   1.00
N1380  N     0.61129   0.68091   0.57913   0.00000  Uiso   1.00
O1381  O     0.54581   0.70419   0.53821   0.00000  Uiso   1.00
O1382  O     0.70420   0.54581   0.46179   0.00000  Uiso   1.00
O1383  O     0.70420   0.54581   0.53821   0.00000  Uiso   1.00
O1384  O     0.79581   0.95419   0.46179   0.00000  Uiso   1.00
O1385  O     0.70420   0.95419   0.46179   0.00000  Uiso   1.00
O1386  O     0.79581   0.54581   0.53821   0.00000  Uiso   1.00
O1387  O     0.79581   0.54581   0.46179   0.00000  Uiso   1.00
O1388  O     0.70420   0.95419   0.53821   0.00000  Uiso   1.00
O1389  O     0.50214   0.83196   0.37991   0.00000  Uiso   1.00
O1390  O     0.50098   0.66805   0.62015   0.00000  Uiso   1.00
O1391  O     0.50255   0.66871   0.37534   0.00000  Uiso   1.00
O1392  O     0.95420   0.79581   0.46179   0.00000  Uiso   1.00
O1393  O     0.50330   0.83150   0.62467   0.00000  Uiso   1.00
O1394  O     0.76037   0.58100   0.38035   0.00000  Uiso   1.00
O1395  O     0.74517   0.91824   0.61994   0.00000  Uiso   1.00
O1396  O     0.74514   0.91881   0.37503   0.00000  Uiso   1.00
O1397  O     0.75675   0.58126   0.62472   0.00000  Uiso   1.00
O1398  O     0.95420   0.79581   0.53821   0.00000  Uiso   1.00
O1399  O     0.54581   0.70419   0.46179   0.00000  Uiso   1.00
O1400  O     0.95420   0.70419   0.46179   0.00000  Uiso   1.00
O1401  O     0.54581   0.79581   0.53821   0.00000  Uiso   1.00
O1402  O     0.54581   0.79581   0.46179   0.00000  Uiso   1.00
O1403  O     0.95420   0.70419   0.53821   0.00000  Uiso   1.00
O1404  O     0.79581   0.95419   0.53821   0.00000  Uiso   1.00
Zn1405 Zn    0.50000   0.75000   0.55104   0.00000  Uiso   1.00
Zn1406 Zn    0.50000   0.75000   0.44896   0.00000  Uiso   1.00
Zn1407 Zn    0.75000   0.50000   0.55104   0.00000  Uiso   1.00
Zn1408 Zn    0.75000   0.50000   0.44896   0.00000  Uiso   1.00
C1409  C     0.05969   0.18996   0.83335   0.00000  Uiso   1.00
C1410  C     0.00044   0.21000   0.97517   0.00000  Uiso   1.00
C1411  C     0.00075   0.21014   0.68912   0.00000  Uiso   1.00
C1412  C     0.00123   0.28994   0.97753   0.00000  Uiso   1.00
C1413  C     0.25448   0.03973   0.69161   0.00000  Uiso   1.00
C1414  C     0.24743   0.46010   0.97508   0.00000  Uiso   1.00
C1415  C     0.24718   0.46025   0.68899   0.00000  Uiso   1.00
C1416  C     0.25382   0.03978   0.97759   0.00000  Uiso   1.00
C1417  C     0.40170   0.12623   0.79625   0.00000  Uiso   1.00
C1418  C     0.09062   0.38041   0.86431   0.00000  Uiso   1.00
C1419  C     0.12312   0.34062   0.79985   0.00000  Uiso   1.00
C1420  C     0.43956   0.30931   0.83395   0.00000  Uiso   1.00
C1421  C     0.37315   0.16272   0.86481   0.00000  Uiso   1.00
C1422  C     0.11747   0.15229   0.87347   0.00000  Uiso   1.00
C1423  C     0.37478   0.33836   0.80087   0.00000  Uiso   1.00
C1424  C     0.40068   0.37187   0.87207   0.00000  Uiso   1.00
C1425  C     0.09867   0.12858   0.79631   0.00000  Uiso   1.00
C1426  C     0.15080   0.37693   0.79563   0.00000  Uiso   1.00
C1427  C     0.34037   0.13083   0.86416   0.00000  Uiso   1.00
C1428  C     0.37308   0.09066   0.79986   0.00000  Uiso   1.00
C1429  C     0.12335   0.41232   0.86498   0.00000  Uiso   1.00
C1430  C     0.37226   0.40741   0.86857   0.00000  Uiso   1.00
C1431  C     0.43926   0.19090   0.83270   0.00000  Uiso   1.00
C1432  C     0.13465   0.10227   0.79399   0.00000  Uiso   1.00
C1433  C     0.14663   0.11731   0.87460   0.00000  Uiso   1.00
C1434  C     0.34280   0.37024   0.80049   0.00000  Uiso   1.00
C1435  C     0.09276   0.34310   0.83395   0.00000  Uiso   1.00
C1436  C     0.40423   0.15954   0.83120   0.00000  Uiso   1.00
C1437  C     0.40469   0.34045   0.83565   0.00000  Uiso   1.00
C1438  C     0.09263   0.15681   0.83426   0.00000  Uiso   1.00
C1439  C     0.34247   0.09350   0.83377   0.00000  Uiso   1.00
C1440  C     0.15404   0.40963   0.83107   0.00000  Uiso   1.00
C1441  C     0.15709   0.09398   0.83405   0.00000  Uiso   1.00
C1442  C     0.06003   0.30960   0.83375   0.00000  Uiso   1.00
C1443  C     0.34279   0.40623   0.83294   0.00000  Uiso   1.00
C1444  C     0.40545   0.15161   0.72073   0.00000  Uiso   1.00
C1445  C     0.02005   0.41035   0.86823   0.00000  Uiso   1.00
C1446  C     0.15145   0.26672   0.77898   0.00000  Uiso   1.00
C1447  C     0.38966   0.19280   0.94008   0.00000  Uiso   1.00
C1448  C     0.13630   0.22224   0.91415   0.00000  Uiso   1.00
C1449  C     0.38706   0.31152   0.72436   0.00000  Uiso   1.00
C1450  C     0.39996   0.33790   0.94405   0.00000  Uiso   1.00
C1451  C     0.03693   0.08809   0.76922   0.00000  Uiso   1.00
C1452  C     0.14816   0.40742   0.72228   0.00000  Uiso   1.00
C1453  C     0.30977   0.43980   0.83301   0.00000  Uiso   1.00
C1454  C     0.26862   0.15804   0.87051   0.00000  Uiso   1.00
C1455  C     0.39528   0.01339   0.78309   0.00000  Uiso   1.00
C1456  C     0.13845   0.44172   0.94063   0.00000  Uiso   1.00
C1457  C     0.40453   0.47738   0.89986   0.00000  Uiso   1.00
C1458  C     0.16886   0.11860   0.72469   0.00000  Uiso   1.00
C1459  C     0.14152   0.07207   0.94036   0.00000  Uiso   1.00
C1460  C     0.27157   0.34352   0.78347   0.00000  Uiso   1.00
C1461  C     0.19031   0.06044   0.83362   0.00000  Uiso   1.00
C1462  C     0.18916   0.44098   0.83267   0.00000  Uiso   1.00
C1463  C     0.30983   0.05985   0.83373   0.00000  Uiso   1.00
C1464  C     0.00090   0.29003   0.69151   0.00000  Uiso   1.00
H1465  H     0.49975   0.32788   0.74548   0.00000  Uiso   1.00
H1466  H     0.37480   0.13461   0.71221   0.00000  Uiso   1.00
H1467  H     0.42539   0.15030   0.69032   0.00000  Uiso   1.00
H1468  H     0.39938   0.18776   0.73020   0.00000  Uiso   1.00
H1469  H     0.05972   0.40110   0.92283   0.00000  Uiso   1.00
H1470  H     0.49374   0.41706   0.89175   0.00000  Uiso   1.00
H1471  H     0.00793   0.38879   0.83969   0.00000  Uiso   1.00
H1472  H     0.03118   0.44346   0.85570   0.00000  Uiso   1.00
H1473  H     0.12464   0.31181   0.73485   0.00000  Uiso   1.00
H1474  H     0.18485   0.27883   0.77972   0.00000  Uiso   1.00
H1475  H     0.14814   0.23867   0.75339   0.00000  Uiso   1.00
H1476  H     0.00000   0.17215   0.92116   0.00000  Uiso   1.00
H1477  H     0.14312   0.25312   0.81194   0.00000  Uiso   1.00
H1478  H     0.34504   0.21919   0.89612   0.00000  Uiso   1.00
H1479  H     0.40839   0.22299   0.95171   0.00000  Uiso   1.00
H1480  H     0.41069   0.16265   0.93995   0.00000  Uiso   1.00
H1481  H     0.36366   0.18773   0.96429   0.00000  Uiso   1.00
H1482  H     0.11048   0.16483   0.94257   0.00000  Uiso   1.00
H1483  H     0.17063   0.21426   0.91307   0.00000  Uiso   1.00
H1484  H     0.12958   0.24181   0.94568   0.00000  Uiso   1.00
H1485  H     0.12779   0.24379   0.88577   0.00000  Uiso   1.00
H1486  H     0.34677   0.28174   0.76971   0.00000  Uiso   1.00
H1487  H     0.49949   0.17369   0.74106   0.00000  Uiso   1.00
H1488  H     0.39359   0.27947   0.70510   0.00000  Uiso   1.00
H1489  H     0.41630   0.33270   0.72521   0.00000  Uiso   1.00
H1490  H     0.36160   0.32996   0.70692   0.00000  Uiso   1.00
H1491  H     0.43403   0.39530   0.92871   0.00000  Uiso   1.00
H1492  H     0.37036   0.35488   0.95513   0.00000  Uiso   1.00
H1493  H     0.42002   0.33228   0.97386   0.00000  Uiso   1.00
H1494  H     0.39185   0.30431   0.92814   0.00000  Uiso   1.00
H1495  H     0.07820   0.12410   0.72966   0.00000  Uiso   1.00
H1496  H     0.01451   0.08525   0.74052   0.00000  Uiso   1.00
H1497  H     0.01871   0.09540   0.80031   0.00000  Uiso   1.00
H1498  H     0.00066   0.32659   0.92553   0.00000  Uiso   1.00
H1499  H     0.05338   0.05501   0.77186   0.00000  Uiso   1.00
H1500  H     0.18501   0.35313   0.74068   0.00000  Uiso   1.00
H1501  H     0.11780   0.38964   0.71411   0.00000  Uiso   1.00
H1502  H     0.16637   0.41014   0.69093   0.00000  Uiso   1.00
H1503  H     0.14137   0.44226   0.73560   0.00000  Uiso   1.00
H1504  H     0.31052   0.15102   0.92361   0.00000  Uiso   1.00
H1505  H     0.24160   0.16012   0.89403   0.00000  Uiso   1.00
H1506  H     0.25841   0.13758   0.84040   0.00000  Uiso   1.00
H1507  H     0.27705   0.19297   0.86051   0.00000  Uiso   1.00
H1508  H     0.37976   0.06046   0.73544   0.00000  Uiso   1.00
H1509  H     0.25085   0.07817   0.74465   0.00000  Uiso   1.00
H1510  H     0.42919   0.02152   0.78985   0.00000  Uiso   1.00
H1511  H     0.39311   0.48589   0.75682   0.00000  Uiso   1.00
H1512  H     0.38023   0.00091   0.81375   0.00000  Uiso   1.00
H1513  H     0.09545   0.46917   0.89560   0.00000  Uiso   1.00
H1514  H     0.15915   0.47041   0.95205   0.00000  Uiso   1.00
H1515  H     0.15714   0.40986   0.94137   0.00000  Uiso   1.00
H1516  H     0.11175   0.43939   0.96448   0.00000  Uiso   1.00
H1517  H     0.36514   0.43286   0.93415   0.00000  Uiso   1.00
H1518  H     0.42425   0.47772   0.93083   0.00000  Uiso   1.00
H1519  H     0.38968   0.01124   0.89711   0.00000  Uiso   1.00
H1520  H     0.25044   0.42205   0.92138   0.00000  Uiso   1.00
H1521  H     0.42567   0.47126   0.87068   0.00000  Uiso   1.00
H1522  H     0.12586   0.06573   0.73380   0.00000  Uiso   1.00
H1523  H     0.18198   0.10213   0.69405   0.00000  Uiso   1.00
H1524  H     0.19518   0.13534   0.74397   0.00000  Uiso   1.00
H1525  H     0.14618   0.14503   0.71446   0.00000  Uiso   1.00
H1526  H     0.17603   0.13248   0.93638   0.00000  Uiso   1.00
H1527  H     0.11397   0.08793   0.95747   0.00000  Uiso   1.00
H1528  H     0.16226   0.05670   0.96572   0.00000  Uiso   1.00
H1529  H     0.13000   0.04436   0.91718   0.00000  Uiso   1.00
H1530  H     0.30815   0.38879   0.74473   0.00000  Uiso   1.00
H1531  H     0.24674   0.42414   0.74082   0.00000  Uiso   1.00
H1532  H     0.25307   0.33041   0.75411   0.00000  Uiso   1.00
H1533  H     0.25260   0.36885   0.80280   0.00000  Uiso   1.00
H1534  H     0.27858   0.31433   0.80495   0.00000  Uiso   1.00
H1535  H     0.25009   0.07682   0.92610   0.00000  Uiso   1.00
H1536  H     0.44087   0.09918   0.74685   0.00000  Uiso   1.00
N1537  N     0.00000   0.25000   0.95240   0.00000  Uiso   1.00
N1538  N     0.37421   0.30091   0.76925   0.00000  Uiso   1.00
N1539  N     0.42278   0.36588   0.91319   0.00000  Uiso   1.00
N1540  N     0.06715   0.12427   0.76202   0.00000  Uiso   1.00
N1541  N     0.17248   0.38249   0.75455   0.00000  Uiso   1.00
N1542  N     0.30433   0.13710   0.89218   0.00000  Uiso   1.00
N1543  N     0.37337   0.05311   0.76819   0.00000  Uiso   1.00
N1544  N     0.12274   0.45017   0.89600   0.00000  Uiso   1.00
N1545  N     0.37157   0.44303   0.90217   0.00000  Uiso   1.00
N1546  N     0.14822   0.08484   0.75142   0.00000  Uiso   1.00
N1547  N     0.16529   0.10564   0.91629   0.00000  Uiso   1.00
N1548  N     0.00000   0.25000   0.71427   0.00000  Uiso   1.00
N1549  N     0.31030   0.36400   0.76798   0.00000  Uiso   1.00
N1550  N     0.25000   0.00000   0.95240   0.00000  Uiso   1.00
N1551  N     0.25000   0.00000   0.71427   0.00000  Uiso   1.00
N1552  N     0.42682   0.12922   0.75701   0.00000  Uiso   1.00
N1553  N     0.05398   0.38756   0.89115   0.00000  Uiso   1.00
N1554  N     0.12331   0.30329   0.76801   0.00000  Uiso   1.00
N1555  N     0.37262   0.20067   0.89581   0.00000  Uiso   1.00
N1556  N     0.11129   0.18091   0.91247   0.00000  Uiso   1.00
O1557  O     0.04581   0.20419   0.87154   0.00000  Uiso   1.00
O1558  O     0.20420   0.04581   0.79513   0.00000  Uiso   1.00
O1559  O     0.20420   0.04581   0.87154   0.00000  Uiso   1.00
O1560  O     0.29581   0.45419   0.79513   0.00000  Uiso   1.00
O1561  O     0.20420   0.45419   0.79513   0.00000  Uiso   1.00
O1562  O     0.29581   0.04581   0.87154   0.00000  Uiso   1.00
O1563  O     0.29581   0.04581   0.79513   0.00000  Uiso   1.00
O1564  O     0.20420   0.45419   0.87154   0.00000  Uiso   1.00
O1565  O     0.00214   0.33196   0.71324   0.00000  Uiso   1.00
O1566  O     0.00098   0.16805   0.95349   0.00000  Uiso   1.00
O1567  O     0.00255   0.16871   0.70868   0.00000  Uiso   1.00
O1568  O     0.45420   0.29581   0.79513   0.00000  Uiso   1.00
O1569  O     0.00330   0.33150   0.95800   0.00000  Uiso   1.00
O1570  O     0.26037   0.08100   0.71369   0.00000  Uiso   1.00
O1571  O     0.24517   0.41824   0.95328   0.00000  Uiso   1.00
O1572  O     0.24514   0.41881   0.70836   0.00000  Uiso   1.00
O1573  O     0.25675   0.08126   0.95805   0.00000  Uiso   1.00
O1574  O     0.45420   0.29581   0.87154   0.00000  Uiso   1.00
O1575  O     0.04581   0.20419   0.79513   0.00000  Uiso   1.00
O1576  O     0.45420   0.20419   0.79513   0.00000  Uiso   1.00
O1577  O     0.04581   0.29581   0.87154   0.00000  Uiso   1.00
O1578  O     0.04581   0.29581   0.79513   0.00000  Uiso   1.00
O1579  O     0.45420   0.20419   0.87154   0.00000  Uiso   1.00
O1580  O     0.29581   0.45419   0.87154   0.00000  Uiso   1.00
Zn1581 Zn    0.00000   0.25000   0.88437   0.00000  Uiso   1.00
Zn1582 Zn    0.00000   0.25000   0.78229   0.00000  Uiso   1.00
Zn1583 Zn    0.25000   0.00000   0.88437   0.00000  Uiso   1.00
Zn1584 Zn    0.25000   0.00000   0.78229   0.00000  Uiso   1.00
C1585  C     0.55969   0.18996   0.83335   0.00000  Uiso   1.00
C1586  C     0.50044   0.21000   0.97517   0.00000  Uiso   1.00
C1587  C     0.50075   0.21014   0.68912   0.00000  Uiso   1.00
C1588  C     0.50123   0.28994   0.97753   0.00000  Uiso   1.00
C1589  C     0.75448   0.03973   0.69161   0.00000  Uiso   1.00
C1590  C     0.74743   0.46010   0.97508   0.00000  Uiso   1.00
C1591  C     0.74718   0.46025   0.68899   0.00000  Uiso   1.00
C1592  C     0.75382   0.03978   0.97759   0.00000  Uiso   1.00
C1593  C     0.90170   0.12623   0.79625   0.00000  Uiso   1.00
C1594  C     0.59062   0.38041   0.86431   0.00000  Uiso   1.00
C1595  C     0.62312   0.34062   0.79985   0.00000  Uiso   1.00
C1596  C     0.93956   0.30931   0.83395   0.00000  Uiso   1.00
C1597  C     0.87315   0.16272   0.86481   0.00000  Uiso   1.00
C1598  C     0.61747   0.15229   0.87347   0.00000  Uiso   1.00
C1599  C     0.87478   0.33836   0.80087   0.00000  Uiso   1.00
C1600  C     0.90068   0.37187   0.87207   0.00000  Uiso   1.00
C1601  C     0.59867   0.12858   0.79631   0.00000  Uiso   1.00
C1602  C     0.65080   0.37693   0.79563   0.00000  Uiso   1.00
C1603  C     0.84037   0.13083   0.86416   0.00000  Uiso   1.00
C1604  C     0.87308   0.09066   0.79986   0.00000  Uiso   1.00
C1605  C     0.62335   0.41232   0.86498   0.00000  Uiso   1.00
C1606  C     0.87226   0.40741   0.86857   0.00000  Uiso   1.00
C1607  C     0.93926   0.19090   0.83270   0.00000  Uiso   1.00
C1608  C     0.63465   0.10227   0.79399   0.00000  Uiso   1.00
C1609  C     0.64663   0.11731   0.87460   0.00000  Uiso   1.00
C1610  C     0.84280   0.37024   0.80049   0.00000  Uiso   1.00
C1611  C     0.59276   0.34310   0.83395   0.00000  Uiso   1.00
C1612  C     0.90423   0.15954   0.83120   0.00000  Uiso   1.00
C1613  C     0.90469   0.34045   0.83565   0.00000  Uiso   1.00
C1614  C     0.59263   0.15681   0.83426   0.00000  Uiso   1.00
C1615  C     0.84247   0.09350   0.83377   0.00000  Uiso   1.00
C1616  C     0.65404   0.40963   0.83107   0.00000  Uiso   1.00
C1617  C     0.65709   0.09398   0.83405   0.00000  Uiso   1.00
C1618  C     0.56003   0.30960   0.83375   0.00000  Uiso   1.00
C1619  C     0.84279   0.40623   0.83294   0.00000  Uiso   1.00
C1620  C     0.90545   0.15161   0.72073   0.00000  Uiso   1.00
C1621  C     0.52005   0.41035   0.86823   0.00000  Uiso   1.00
C1622  C     0.65145   0.26672   0.77898   0.00000  Uiso   1.00
C1623  C     0.88966   0.19280   0.94008   0.00000  Uiso   1.00
C1624  C     0.63630   0.22224   0.91415   0.00000  Uiso   1.00
C1625  C     0.88706   0.31152   0.72436   0.00000  Uiso   1.00
C1626  C     0.89996   0.33790   0.94405   0.00000  Uiso   1.00
C1627  C     0.53693   0.08809   0.76922   0.00000  Uiso   1.00
C1628  C     0.64816   0.40742   0.72228   0.00000  Uiso   1.00
C1629  C     0.80977   0.43980   0.83301   0.00000  Uiso   1.00
C1630  C     0.76862   0.15804   0.87051   0.00000  Uiso   1.00
C1631  C     0.89528   0.01339   0.78309   0.00000  Uiso   1.00
C1632  C     0.63845   0.44172   0.94063   0.00000  Uiso   1.00
C1633  C     0.90453   0.47738   0.89986   0.00000  Uiso   1.00
C1634  C     0.66886   0.11860   0.72469   0.00000  Uiso   1.00
C1635  C     0.64152   0.07207   0.94036   0.00000  Uiso   1.00
C1636  C     0.77157   0.34352   0.78347   0.00000  Uiso   1.00
C1637  C     0.69031   0.06044   0.83362   0.00000  Uiso   1.00
C1638  C     0.68916   0.44098   0.83267   0.00000  Uiso   1.00
C1639  C     0.80983   0.05985   0.83373   0.00000  Uiso   1.00
C1640  C     0.50090   0.29003   0.69151   0.00000  Uiso   1.00
H1641  H     0.99975   0.32788   0.74548   0.00000  Uiso   1.00
H1642  H     0.87480   0.13461   0.71221   0.00000  Uiso   1.00
H1643  H     0.92539   0.15030   0.69032   0.00000  Uiso   1.00
H1644  H     0.89938   0.18776   0.73020   0.00000  Uiso   1.00
H1645  H     0.55972   0.40110   0.92283   0.00000  Uiso   1.00
H1646  H     0.99374   0.41706   0.89175   0.00000  Uiso   1.00
H1647  H     0.50793   0.38879   0.83969   0.00000  Uiso   1.00
H1648  H     0.53118   0.44346   0.85570   0.00000  Uiso   1.00
H1649  H     0.62464   0.31181   0.73485   0.00000  Uiso   1.00
H1650  H     0.68485   0.27883   0.77972   0.00000  Uiso   1.00
H1651  H     0.64814   0.23867   0.75339   0.00000  Uiso   1.00
H1652  H     0.50000   0.17215   0.92116   0.00000  Uiso   1.00
H1653  H     0.64312   0.25312   0.81194   0.00000  Uiso   1.00
H1654  H     0.84504   0.21919   0.89612   0.00000  Uiso   1.00
H1655  H     0.90839   0.22299   0.95171   0.00000  Uiso   1.00
H1656  H     0.91069   0.16265   0.93995   0.00000  Uiso   1.00
H1657  H     0.86366   0.18773   0.96429   0.00000  Uiso   1.00
H1658  H     0.61048   0.16483   0.94257   0.00000  Uiso   1.00
H1659  H     0.67063   0.21426   0.91307   0.00000  Uiso   1.00
H1660  H     0.62958   0.24181   0.94568   0.00000  Uiso   1.00
H1661  H     0.62779   0.24379   0.88577   0.00000  Uiso   1.00
H1662  H     0.84677   0.28174   0.76971   0.00000  Uiso   1.00
H1663  H     0.99949   0.17369   0.74106   0.00000  Uiso   1.00
H1664  H     0.89359   0.27947   0.70510   0.00000  Uiso   1.00
H1665  H     0.91630   0.33270   0.72521   0.00000  Uiso   1.00
H1666  H     0.86160   0.32996   0.70692   0.00000  Uiso   1.00
H1667  H     0.93403   0.39530   0.92871   0.00000  Uiso   1.00
H1668  H     0.87036   0.35488   0.95513   0.00000  Uiso   1.00
H1669  H     0.92002   0.33228   0.97386   0.00000  Uiso   1.00
H1670  H     0.89185   0.30431   0.92814   0.00000  Uiso   1.00
H1671  H     0.57820   0.12410   0.72966   0.00000  Uiso   1.00
H1672  H     0.51451   0.08525   0.74052   0.00000  Uiso   1.00
H1673  H     0.51871   0.09540   0.80031   0.00000  Uiso   1.00
H1674  H     0.50066   0.32659   0.92553   0.00000  Uiso   1.00
H1675  H     0.55338   0.05501   0.77186   0.00000  Uiso   1.00
H1676  H     0.68501   0.35313   0.74068   0.00000  Uiso   1.00
H1677  H     0.61780   0.38964   0.71411   0.00000  Uiso   1.00
H1678  H     0.66637   0.41014   0.69093   0.00000  Uiso   1.00
H1679  H     0.64137   0.44226   0.73560   0.00000  Uiso   1.00
H1680  H     0.81052   0.15102   0.92361   0.00000  Uiso   1.00
H1681  H     0.74160   0.16012   0.89403   0.00000  Uiso   1.00
H1682  H     0.75841   0.13758   0.84040   0.00000  Uiso   1.00
H1683  H     0.77705   0.19297   0.86051   0.00000  Uiso   1.00
H1684  H     0.87976   0.06046   0.73544   0.00000  Uiso   1.00
H1685  H     0.75085   0.07817   0.74465   0.00000  Uiso   1.00
H1686  H     0.92919   0.02152   0.78985   0.00000  Uiso   1.00
H1687  H     0.89311   0.48589   0.75682   0.00000  Uiso   1.00
H1688  H     0.88023   0.00091   0.81375   0.00000  Uiso   1.00
H1689  H     0.59545   0.46917   0.89560   0.00000  Uiso   1.00
H1690  H     0.65915   0.47041   0.95205   0.00000  Uiso   1.00
H1691  H     0.65714   0.40986   0.94137   0.00000  Uiso   1.00
H1692  H     0.61175   0.43939   0.96448   0.00000  Uiso   1.00
H1693  H     0.86514   0.43286   0.93415   0.00000  Uiso   1.00
H1694  H     0.92425   0.47772   0.93083   0.00000  Uiso   1.00
H1695  H     0.88968   0.01124   0.89711   0.00000  Uiso   1.00
H1696  H     0.75044   0.42205   0.92138   0.00000  Uiso   1.00
H1697  H     0.92567   0.47126   0.87068   0.00000  Uiso   1.00
H1698  H     0.62586   0.06573   0.73380   0.00000  Uiso   1.00
H1699  H     0.68198   0.10213   0.69405   0.00000  Uiso   1.00
H1700  H     0.69518   0.13534   0.74397   0.00000  Uiso   1.00
H1701  H     0.64618   0.14503   0.71446   0.00000  Uiso   1.00
H1702  H     0.67603   0.13248   0.93638   0.00000  Uiso   1.00
H1703  H     0.61397   0.08793   0.95747   0.00000  Uiso   1.00
H1704  H     0.66226   0.05670   0.96572   0.00000  Uiso   1.00
H1705  H     0.63000   0.04436   0.91718   0.00000  Uiso   1.00
H1706  H     0.80815   0.38879   0.74473   0.00000  Uiso   1.00
H1707  H     0.74674   0.42414   0.74082   0.00000  Uiso   1.00
H1708  H     0.75307   0.33041   0.75411   0.00000  Uiso   1.00
H1709  H     0.75260   0.36885   0.80280   0.00000  Uiso   1.00
H1710  H     0.77858   0.31433   0.80495   0.00000  Uiso   1.00
H1711  H     0.75009   0.07682   0.92610   0.00000  Uiso   1.00
H1712  H     0.94087   0.09918   0.74685   0.00000  Uiso   1.00
N1713  N     0.50000   0.25000   0.95240   0.00000  Uiso   1.00
N1714  N     0.87421   0.30091   0.76925   0.00000  Uiso   1.00
N1715  N     0.92278   0.36588   0.91319   0.00000  Uiso   1.00
N1716  N     0.56715   0.12427   0.76202   0.00000  Uiso   1.00
N1717  N     0.67248   0.38249   0.75455   0.00000  Uiso   1.00
N1718  N     0.80433   0.13710   0.89218   0.00000  Uiso   1.00
N1719  N     0.87337   0.05311   0.76819   0.00000  Uiso   1.00
N1720  N     0.62274   0.45017   0.89600   0.00000  Uiso   1.00
N1721  N     0.87157   0.44303   0.90217   0.00000  Uiso   1.00
N1722  N     0.64822   0.08484   0.75142   0.00000  Uiso   1.00
N1723  N     0.66529   0.10564   0.91629   0.00000  Uiso   1.00
N1724  N     0.50000   0.25000   0.71427   0.00000  Uiso   1.00
N1725  N     0.81030   0.36400   0.76798   0.00000  Uiso   1.00
N1726  N     0.75000   0.00000   0.95240   0.00000  Uiso   1.00
N1727  N     0.75000   0.00000   0.71427   0.00000  Uiso   1.00
N1728  N     0.92682   0.12922   0.75701   0.00000  Uiso   1.00
N1729  N     0.55398   0.38756   0.89115   0.00000  Uiso   1.00
N1730  N     0.62331   0.30329   0.76801   0.00000  Uiso   1.00
N1731  N     0.87262   0.20067   0.89581   0.00000  Uiso   1.00
N1732  N     0.61129   0.18091   0.91247   0.00000  Uiso   1.00
O1733  O     0.54581   0.20419   0.87154   0.00000  Uiso   1.00
O1734  O     0.70420   0.04581   0.79513   0.00000  Uiso   1.00
O1735  O     0.70420   0.04581   0.87154   0.00000  Uiso   1.00
O1736  O     0.79581   0.45419   0.79513   0.00000  Uiso   1.00
O1737  O     0.70420   0.45419   0.79513   0.00000  Uiso   1.00
O1738  O     0.79581   0.04581   0.87154   0.00000  Uiso   1.00
O1739  O     0.79581   0.04581   0.79513   0.00000  Uiso   1.00
O1740  O     0.70420   0.45419   0.87154   0.00000  Uiso   1.00
O1741  O     0.50214   0.33196   0.71324   0.00000  Uiso   1.00
O1742  O     0.50098   0.16805   0.95349   0.00000  Uiso   1.00
O1743  O     0.50255   0.16871   0.70868   0.00000  Uiso   1.00
O1744  O     0.95420   0.29581   0.79513   0.00000  Uiso   1.00
O1745  O     0.50330   0.33150   0.95800   0.00000  Uiso   1.00
O1746  O     0.76037   0.08100   0.71369   0.00000  Uiso   1.00
O1747  O     0.74517   0.41824   0.95328   0.00000  Uiso   1.00
O1748  O     0.74514   0.41881   0.70836   0.00000  Uiso   1.00
O1749  O     0.75675   0.08126   0.95805   0.00000  Uiso   1.00
O1750  O     0.95420   0.29581   0.87154   0.00000  Uiso   1.00
O1751  O     0.54581   0.20419   0.79513   0.00000  Uiso   1.00
O1752  O     0.95420   0.20419   0.79513   0.00000  Uiso   1.00
O1753  O     0.54581   0.29581   0.87154   0.00000  Uiso   1.00
O1754  O     0.54581   0.29581   0.79513   0.00000  Uiso   1.00
O1755  O     0.95420   0.20419   0.87154   0.00000  Uiso   1.00
O1756  O     0.79581   0.45419   0.87154   0.00000  Uiso   1.00
Zn1757 Zn    0.50000   0.25000   0.88437   0.00000  Uiso   1.00
Zn1758 Zn    0.50000   0.25000   0.78229   0.00000  Uiso   1.00
Zn1759 Zn    0.75000   0.00000   0.88437   0.00000  Uiso   1.00
Zn1760 Zn    0.75000   0.00000   0.78229   0.00000  Uiso   1.00
C1761  C     0.05969   0.68996   0.83335   0.00000  Uiso   1.00
C1762  C     0.00044   0.71000   0.97517   0.00000  Uiso   1.00
C1763  C     0.00075   0.71014   0.68912   0.00000  Uiso   1.00
C1764  C     0.00123   0.78994   0.97753   0.00000  Uiso   1.00
C1765  C     0.25448   0.53973   0.69161   0.00000  Uiso   1.00
C1766  C     0.24743   0.96010   0.97508   0.00000  Uiso   1.00
C1767  C     0.24718   0.96025   0.68899   0.00000  Uiso   1.00
C1768  C     0.25382   0.53978   0.97759   0.00000  Uiso   1.00
C1769  C     0.40170   0.62623   0.79625   0.00000  Uiso   1.00
C1770  C     0.09062   0.88041   0.86431   0.00000  Uiso   1.00
C1771  C     0.12312   0.84062   0.79985   0.00000  Uiso   1.00
C1772  C     0.43956   0.80931   0.83395   0.00000  Uiso   1.00
C1773  C     0.37315   0.66272   0.86481   0.00000  Uiso   1.00
C1774  C     0.11747   0.65229   0.87347   0.00000  Uiso   1.00
C1775  C     0.37478   0.83836   0.80087   0.00000  Uiso   1.00
C1776  C     0.40068   0.87187   0.87207   0.00000  Uiso   1.00
C1777  C     0.09867   0.62858   0.79631   0.00000  Uiso   1.00
C1778  C     0.15080   0.87693   0.79563   0.00000  Uiso   1.00
C1779  C     0.34037   0.63083   0.86416   0.00000  Uiso   1.00
C1780  C     0.37308   0.59066   0.79986   0.00000  Uiso   1.00
C1781  C     0.12335   0.91232   0.86498   0.00000  Uiso   1.00
C1782  C     0.37226   0.90741   0.86857   0.00000  Uiso   1.00
C1783  C     0.43926   0.69090   0.83270   0.00000  Uiso   1.00
C1784  C     0.13465   0.60227   0.79399   0.00000  Uiso   1.00
C1785  C     0.14663   0.61731   0.87460   0.00000  Uiso   1.00
C1786  C     0.34280   0.87024   0.80049   0.00000  Uiso   1.00
C1787  C     0.09276   0.84310   0.83395   0.00000  Uiso   1.00
C1788  C     0.40423   0.65954   0.83120   0.00000  Uiso   1.00
C1789  C     0.40469   0.84045   0.83565   0.00000  Uiso   1.00
C1790  C     0.09263   0.65681   0.83426   0.00000  Uiso   1.00
C1791  C     0.34247   0.59350   0.83377   0.00000  Uiso   1.00
C1792  C     0.15404   0.90963   0.83107   0.00000  Uiso   1.00
C1793  C     0.15709   0.59398   0.83405   0.00000  Uiso   1.00
C1794  C     0.06003   0.80960   0.83375   0.00000  Uiso   1.00
C1795  C     0.34279   0.90623   0.83294   0.00000  Uiso   1.00
C1796  C     0.40545   0.65161   0.72073   0.00000  Uiso   1.00
C1797  C     0.02005   0.91035   0.86823   0.00000  Uiso   1.00
C1798  C     0.15145   0.76672   0.77898   0.00000  Uiso   1.00
C1799  C     0.38966   0.69280   0.94008   0.00000  Uiso   1.00
C1800  C     0.13630   0.72224   0.91415   0.00000  Uiso   1.00
C1801  C     0.38706   0.81152   0.72436   0.00000  Uiso   1.00
C1802  C     0.39996   0.83790   0.94405   0.00000  Uiso   1.00
C1803  C     0.03693   0.58809   0.76922   0.00000  Uiso   1.00
C1804  C     0.14816   0.90742   0.72228   0.00000  Uiso   1.00
C1805  C     0.30977   0.93980   0.83301   0.00000  Uiso   1.00
C1806  C     0.26862   0.65804   0.87051   0.00000  Uiso   1.00
C1807  C     0.39528   0.51339   0.78309   0.00000  Uiso   1.00
C1808  C     0.13845   0.94172   0.94063   0.00000  Uiso   1.00
C1809  C     0.40453   0.97738   0.89986   0.00000  Uiso   1.00
C1810  C     0.16886   0.61860   0.72469   0.00000  Uiso   1.00
C1811  C     0.14152   0.57207   0.94036   0.00000  Uiso   1.00
C1812  C     0.27157   0.84352   0.78347   0.00000  Uiso   1.00
C1813  C     0.19031   0.56044   0.83362   0.00000  Uiso   1.00
C1814  C     0.18916   0.94098   0.83267   0.00000  Uiso   1.00
C1815  C     0.30983   0.55985   0.83373   0.00000  Uiso   1.00
C1816  C     0.00090   0.79003   0.69151   0.00000  Uiso   1.00
H1817  H     0.49975   0.82788   0.74548   0.00000  Uiso   1.00
H1818  H     0.37480   0.63461   0.71221   0.00000  Uiso   1.00
H1819  H     0.42539   0.65030   0.69032   0.00000  Uiso   1.00
H1820  H     0.39938   0.68776   0.73020   0.00000  Uiso   1.00
H1821  H     0.05972   0.90110   0.92283   0.00000  Uiso   1.00
H1822  H     0.49374   0.91706   0.89175   0.00000  Uiso   1.00
H1823  H     0.00793   0.88879   0.83969   0.00000  Uiso   1.00
H1824  H     0.03118   0.94346   0.85570   0.00000  Uiso   1.00
H1825  H     0.12464   0.81181   0.73485   0.00000  Uiso   1.00
H1826  H     0.18485   0.77883   0.77972   0.00000  Uiso   1.00
H1827  H     0.14814   0.73867   0.75339   0.00000  Uiso   1.00
H1828  H     0.00000   0.67215   0.92116   0.00000  Uiso   1.00
H1829  H     0.14312   0.75312   0.81194   0.00000  Uiso   1.00
H1830  H     0.34504   0.71919   0.89612   0.00000  Uiso   1.00
H1831  H     0.40839   0.72299   0.95171   0.00000  Uiso   1.00
H1832  H     0.41069   0.66265   0.93995   0.00000  Uiso   1.00
H1833  H     0.36366   0.68773   0.96429   0.00000  Uiso   1.00
H1834  H     0.11048   0.66483   0.94257   0.00000  Uiso   1.00
H1835  H     0.17063   0.71426   0.91307   0.00000  Uiso   1.00
H1836  H     0.12958   0.74181   0.94568   0.00000  Uiso   1.00
H1837  H     0.12779   0.74379   0.88577   0.00000  Uiso   1.00
H1838  H     0.34677   0.78174   0.76971   0.00000  Uiso   1.00
H1839  H     0.49949   0.67369   0.74106   0.00000  Uiso   1.00
H1840  H     0.39359   0.77947   0.70510   0.00000  Uiso   1.00
H1841  H     0.41630   0.83270   0.72521   0.00000  Uiso   1.00
H1842  H     0.36160   0.82996   0.70692   0.00000  Uiso   1.00
H1843  H     0.43403   0.89530   0.92871   0.00000  Uiso   1.00
H1844  H     0.37036   0.85488   0.95513   0.00000  Uiso   1.00
H1845  H     0.42002   0.83228   0.97386   0.00000  Uiso   1.00
H1846  H     0.39185   0.80431   0.92814   0.00000  Uiso   1.00
H1847  H     0.07820   0.62410   0.72966   0.00000  Uiso   1.00
H1848  H     0.01451   0.58525   0.74052   0.00000  Uiso   1.00
H1849  H     0.01871   0.59540   0.80031   0.00000  Uiso   1.00
H1850  H     0.00066   0.82659   0.92553   0.00000  Uiso   1.00
H1851  H     0.05338   0.55501   0.77186   0.00000  Uiso   1.00
H1852  H     0.18501   0.85313   0.74068   0.00000  Uiso   1.00
H1853  H     0.11780   0.88964   0.71411   0.00000  Uiso   1.00
H1854  H     0.16637   0.91014   0.69093   0.00000  Uiso   1.00
H1855  H     0.14137   0.94226   0.73560   0.00000  Uiso   1.00
H1856  H     0.31052   0.65102   0.92361   0.00000  Uiso   1.00
H1857  H     0.24160   0.66012   0.89403   0.00000  Uiso   1.00
H1858  H     0.25841   0.63758   0.84040   0.00000  Uiso   1.00
H1859  H     0.27705   0.69297   0.86051   0.00000  Uiso   1.00
H1860  H     0.37976   0.56046   0.73544   0.00000  Uiso   1.00
H1861  H     0.25085   0.57817   0.74465   0.00000  Uiso   1.00
H1862  H     0.42919   0.52152   0.78985   0.00000  Uiso   1.00
H1863  H     0.39311   0.98589   0.75682   0.00000  Uiso   1.00
H1864  H     0.38023   0.50091   0.81375   0.00000  Uiso   1.00
H1865  H     0.09545   0.96917   0.89560   0.00000  Uiso   1.00
H1866  H     0.15915   0.97041   0.95205   0.00000  Uiso   1.00
H1867  H     0.15714   0.90986   0.94137   0.00000  Uiso   1.00
H1868  H     0.11175   0.93939   0.96448   0.00000  Uiso   1.00
H1869  H     0.36514   0.93286   0.93415   0.00000  Uiso   1.00
H1870  H     0.42425   0.97772   0.93083   0.00000  Uiso   1.00
H1871  H     0.38968   0.51124   0.89711   0.00000  Uiso   1.00
H1872  H     0.25044   0.92205   0.92138   0.00000  Uiso   1.00
H1873  H     0.42567   0.97126   0.87068   0.00000  Uiso   1.00
H1874  H     0.12586   0.56573   0.73380   0.00000  Uiso   1.00
H1875  H     0.18198   0.60213   0.69405   0.00000  Uiso   1.00
H1876  H     0.19518   0.63534   0.74397   0.00000  Uiso   1.00
H1877  H     0.14618   0.64503   0.71446   0.00000  Uiso   1.00
H1878  H     0.17603   0.63248   0.93638   0.00000  Uiso   1.00
H1879  H     0.11397   0.58793   0.95747   0.00000  Uiso   1.00
H1880  H     0.16226   0.55670   0.96572   0.00000  Uiso   1.00
H1881  H     0.13000   0.54436   0.91718   0.00000  Uiso   1.00
H1882  H     0.30815   0.88879   0.74473   0.00000  Uiso   1.00
H1883  H     0.24674   0.92414   0.74082   0.00000  Uiso   1.00
H1884  H     0.25307   0.83041   0.75411   0.00000  Uiso   1.00
H1885  H     0.25260   0.86885   0.80280   0.00000  Uiso   1.00
H1886  H     0.27858   0.81433   0.80495   0.00000  Uiso   1.00
H1887  H     0.25009   0.57682   0.92610   0.00000  Uiso   1.00
H1888  H     0.44087   0.59918   0.74685   0.00000  Uiso   1.00
N1889  N     0.00000   0.75000   0.95240   0.00000  Uiso   1.00
N1890  N     0.37421   0.80091   0.76925   0.00000  Uiso   1.00
N1891  N     0.42278   0.86588   0.91319   0.00000  Uiso   1.00
N1892  N     0.06715   0.62427   0.76202   0.00000  Uiso   1.00
N1893  N     0.17248   0.88249   0.75455   0.00000  Uiso   1.00
N1894  N     0.30433   0.63710   0.89218   0.00000  Uiso   1.00
N1895  N     0.37337   0.55311   0.76819   0.00000  Uiso   1.00
N1896  N     0.12274   0.95017   0.89600   0.00000  Uiso   1.00
N1897  N     0.37157   0.94303   0.90217   0.00000  Uiso   1.00
N1898  N     0.14822   0.58484   0.75142   0.00000  Uiso   1.00
N1899  N     0.16529   0.60564   0.91629   0.00000  Uiso   1.00
N1900  N     0.00000   0.75000   0.71427   0.00000  Uiso   1.00
N1901  N     0.31030   0.86400   0.76798   0.00000  Uiso   1.00
N1902  N     0.25000   0.50000   0.95240   0.00000  Uiso   1.00
N1903  N     0.25000   0.50000   0.71427   0.00000  Uiso   1.00
N1904  N     0.42682   0.62922   0.75701   0.00000  Uiso   1.00
N1905  N     0.05398   0.88756   0.89115   0.00000  Uiso   1.00
N1906  N     0.12331   0.80329   0.76801   0.00000  Uiso   1.00
N1907  N     0.37262   0.70067   0.89581   0.00000  Uiso   1.00
N1908  N     0.11129   0.68091   0.91247   0.00000  Uiso   1.00
O1909  O     0.04581   0.70419   0.87154   0.00000  Uiso   1.00
O1910  O     0.20420   0.54581   0.79513   0.00000  Uiso   1.00
O1911  O     0.20420   0.54581   0.87154   0.00000  Uiso   1.00
O1912  O     0.29581   0.95419   0.79513   0.00000  Uiso   1.00
O1913  O     0.20420   0.95419   0.79513   0.00000  Uiso   1.00
O1914  O     0.29581   0.54581   0.87154   0.00000  Uiso   1.00
O1915  O     0.29581   0.54581   0.79513   0.00000  Uiso   1.00
O1916  O     0.20420   0.95419   0.87154   0.00000  Uiso   1.00
O1917  O     0.00214   0.83196   0.71324   0.00000  Uiso   1.00
O1918  O     0.00098   0.66805   0.95349   0.00000  Uiso   1.00
O1919  O     0.00255   0.66871   0.70868   0.00000  Uiso   1.00
O1920  O     0.45420   0.79581   0.79513   0.00000  Uiso   1.00
O1921  O     0.00330   0.83150   0.95800   0.00000  Uiso   1.00
O1922  O     0.26037   0.58100   0.71369   0.00000  Uiso   1.00
O1923  O     0.24517   0.91824   0.95328   0.00000  Uiso   1.00
O1924  O     0.24514   0.91881   0.70836   0.00000  Uiso   1.00
O1925  O     0.25675   0.58126   0.95805   0.00000  Uiso   1.00
O1926  O     0.45420   0.79581   0.87154   0.00000  Uiso   1.00
O1927  O     0.04581   0.70419   0.79513   0.00000  Uiso   1.00
O1928  O     0.45420   0.70419   0.79513   0.00000  Uiso   1.00
O1929  O     0.04581   0.79581   0.87154   0.00000  Uiso   1.00
O1930  O     0.04581   0.79581   0.79513   0.00000  Uiso   1.00
O1931  O     0.45420   0.70419   0.87154   0.00000  Uiso   1.00
O1932  O     0.29581   0.95419   0.87154   0.00000  Uiso   1.00
Zn1933 Zn    0.00000   0.75000   0.88437   0.00000  Uiso   1.00
Zn1934 Zn    0.00000   0.75000   0.78229   0.00000  Uiso   1.00
Zn1935 Zn    0.25000   0.50000   0.88437   0.00000  Uiso   1.00
Zn1936 Zn    0.25000   0.50000   0.78229   0.00000  Uiso   1.00
C1937  C     0.55969   0.68996   0.83335   0.00000  Uiso   1.00
C1938  C     0.50044   0.71000   0.97517   0.00000  Uiso   1.00
C1939  C     0.50075   0.71014   0.68912   0.00000  Uiso   1.00
C1940  C     0.50123   0.78994   0.97753   0.00000  Uiso   1.00
C1941  C     0.75448   0.53973   0.69161   0.00000  Uiso   1.00
C1942  C     0.74743   0.96010   0.97508   0.00000  Uiso   1.00
C1943  C     0.74718   0.96025   0.68899   0.00000  Uiso   1.00
C1944  C     0.75382   0.53978   0.97759   0.00000  Uiso   1.00
C1945  C     0.90170   0.62623   0.79625   0.00000  Uiso   1.00
C1946  C     0.59062   0.88041   0.86431   0.00000  Uiso   1.00
C1947  C     0.62312   0.84062   0.79985   0.00000  Uiso   1.00
C1948  C     0.93956   0.80931   0.83395   0.00000  Uiso   1.00
C1949  C     0.87315   0.66272   0.86481   0.00000  Uiso   1.00
C1950  C     0.61747   0.65229   0.87347   0.00000  Uiso   1.00
C1951  C     0.87478   0.83836   0.80087   0.00000  Uiso   1.00
C1952  C     0.90068   0.87187   0.87207   0.00000  Uiso   1.00
C1953  C     0.59867   0.62858   0.79631   0.00000  Uiso   1.00
C1954  C     0.65080   0.87693   0.79563   0.00000  Uiso   1.00
C1955  C     0.84037   0.63083   0.86416   0.00000  Uiso   1.00
C1956  C     0.87308   0.59066   0.79986   0.00000  Uiso   1.00
C1957  C     0.62335   0.91232   0.86498   0.00000  Uiso   1.00
C1958  C     0.87226   0.90741   0.86857   0.00000  Uiso   1.00
C1959  C     0.93926   0.69090   0.83270   0.00000  Uiso   1.00
C1960  C     0.63465   0.60227   0.79399   0.00000  Uiso   1.00
C1961  C     0.64663   0.61731   0.87460   0.00000  Uiso   1.00
C1962  C     0.84280   0.87024   0.80049   0.00000  Uiso   1.00
C1963  C     0.59276   0.84310   0.83395   0.00000  Uiso   1.00
C1964  C     0.90423   0.65954   0.83120   0.00000  Uiso   1.00
C1965  C     0.90469   0.84045   0.83565   0.00000  Uiso   1.00
C1966  C     0.59263   0.65681   0.83426   0.00000  Uiso   1.00
C1967  C     0.84247   0.59350   0.83377   0.00000  Uiso   1.00
C1968  C     0.65404   0.90963   0.83107   0.00000  Uiso   1.00
C1969  C     0.65709   0.59398   0.83405   0.00000  Uiso   1.00
C1970  C     0.56003   0.80960   0.83375   0.00000  Uiso   1.00
C1971  C     0.84279   0.90623   0.83294   0.00000  Uiso   1.00
C1972  C     0.90545   0.65161   0.72073   0.00000  Uiso   1.00
C1973  C     0.52005   0.91035   0.86823   0.00000  Uiso   1.00
C1974  C     0.65145   0.76672   0.77898   0.00000  Uiso   1.00
C1975  C     0.88966   0.69280   0.94008   0.00000  Uiso   1.00
C1976  C     0.63630   0.72224   0.91415   0.00000  Uiso   1.00
C1977  C     0.88706   0.81152   0.72436   0.00000  Uiso   1.00
C1978  C     0.89996   0.83790   0.94405   0.00000  Uiso   1.00
C1979  C     0.53693   0.58809   0.76922   0.00000  Uiso   1.00
C1980  C     0.64816   0.90742   0.72228   0.00000  Uiso   1.00
C1981  C     0.80977   0.93980   0.83301   0.00000  Uiso   1.00
C1982  C     0.76862   0.65804   0.87051   0.00000  Uiso   1.00
C1983  C     0.89528   0.51339   0.78309   0.00000  Uiso   1.00
C1984  C     0.63845   0.94172   0.94063   0.00000  Uiso   1.00
C1985  C     0.90453   0.97738   0.89986   0.00000  Uiso   1.00
C1986  C     0.66886   0.61860   0.72469   0.00000  Uiso   1.00
C1987  C     0.64152   0.57207   0.94036   0.00000  Uiso   1.00
C1988  C     0.77157   0.84352   0.78347   0.00000  Uiso   1.00
C1989  C     0.69031   0.56044   0.83362   0.00000  Uiso   1.00
C1990  C     0.68916   0.94098   0.83267   0.00000  Uiso   1.00
C1991  C     0.80983   0.55985   0.83373   0.00000  Uiso   1.00
C1992  C     0.50090   0.79003   0.69151   0.00000  Uiso   1.00
H1993  H     0.99975   0.82788   0.74548   0.00000  Uiso   1.00
H1994  H     0.87480   0.63461   0.71221   0.00000  Uiso   1.00
H1995  H     0.92539   0.65030   0.69032   0.00000  Uiso   1.00
H1996  H     0.89938   0.68776   0.73020   0.00000  Uiso   1.00
H1997  H     0.55972   0.90110   0.92283   0.00000  Uiso   1.00
H1998  H     0.99374   0.91706   0.89175   0.00000  Uiso   1.00
H1999  H     0.50793   0.88879   0.83969   0.00000  Uiso   1.00
H2000  H     0.53118   0.94346   0.85570   0.00000  Uiso   1.00
H2001  H     0.62464   0.81181   0.73485   0.00000  Uiso   1.00
H2002  H     0.68485   0.77883   0.77972   0.00000  Uiso   1.00
H2003  H     0.64814   0.73867   0.75339   0.00000  Uiso   1.00
H2004  H     0.50000   0.67215   0.92116   0.00000  Uiso   1.00
H2005  H     0.64312   0.75312   0.81194   0.00000  Uiso   1.00
H2006  H     0.84504   0.71919   0.89612   0.00000  Uiso   1.00
H2007  H     0.90839   0.72299   0.95171   0.00000  Uiso   1.00
H2008  H     0.91069   0.66265   0.93995   0.00000  Uiso   1.00
H2009  H     0.86366   0.68773   0.96429   0.00000  Uiso   1.00
H2010  H     0.61048   0.66483   0.94257   0.00000  Uiso   1.00
H2011  H     0.67063   0.71426   0.91307   0.00000  Uiso   1.00
H2012  H     0.62958   0.74181   0.94568   0.00000  Uiso   1.00
H2013  H     0.62779   0.74379   0.88577   0.00000  Uiso   1.00
H2014  H     0.84677   0.78174   0.76971   0.00000  Uiso   1.00
H2015  H     0.99949   0.67369   0.74106   0.00000  Uiso   1.00
H2016  H     0.89359   0.77947   0.70510   0.00000  Uiso   1.00
H2017  H     0.91630   0.83270   0.72521   0.00000  Uiso   1.00
H2018  H     0.86160   0.82996   0.70692   0.00000  Uiso   1.00
H2019  H     0.93403   0.89530   0.92871   0.00000  Uiso   1.00
H2020  H     0.87036   0.85488   0.95513   0.00000  Uiso   1.00
H2021  H     0.92002   0.83228   0.97386   0.00000  Uiso   1.00
H2022  H     0.89185   0.80431   0.92814   0.00000  Uiso   1.00
H2023  H     0.57820   0.62410   0.72966   0.00000  Uiso   1.00
H2024  H     0.51451   0.58525   0.74052   0.00000  Uiso   1.00
H2025  H     0.51871   0.59540   0.80031   0.00000  Uiso   1.00
H2026  H     0.50066   0.82659   0.92553   0.00000  Uiso   1.00
H2027  H     0.55338   0.55501   0.77186   0.00000  Uiso   1.00
H2028  H     0.68501   0.85313   0.74068   0.00000  Uiso   1.00
H2029  H     0.61780   0.88964   0.71411   0.00000  Uiso   1.00
H2030  H     0.66637   0.91014   0.69093   0.00000  Uiso   1.00
H2031  H     0.64137   0.94226   0.73560   0.00000  Uiso   1.00
H2032  H     0.81052   0.65102   0.92361   0.00000  Uiso   1.00
H2033  H     0.74160   0.66012   0.89403   0.00000  Uiso   1.00
H2034  H     0.75841   0.63758   0.84040   0.00000  Uiso   1.00
H2035  H     0.77705   0.69297   0.86051   0.00000  Uiso   1.00
H2036  H     0.87976   0.56046   0.73544   0.00000  Uiso   1.00
H2037  H     0.75085   0.57817   0.74465   0.00000  Uiso   1.00
H2038  H     0.92919   0.52152   0.78985   0.00000  Uiso   1.00
H2039  H     0.89311   0.98589   0.75682   0.00000  Uiso   1.00
H2040  H     0.88023   0.50091   0.81375   0.00000  Uiso   1.00
H2041  H     0.59545   0.96917   0.89560   0.00000  Uiso   1.00
H2042  H     0.65915   0.97041   0.95205   0.00000  Uiso   1.00
H2043  H     0.65714   0.90986   0.94137   0.00000  Uiso   1.00
H2044  H     0.61175   0.93939   0.96448   0.00000  Uiso   1.00
H2045  H     0.86514   0.93286   0.93415   0.00000  Uiso   1.00
H2046  H     0.92425   0.97772   0.93083   0.00000  Uiso   1.00
H2047  H     0.88968   0.51124   0.89711   0.00000  Uiso   1.00
H2048  H     0.75044   0.92205   0.92138   0.00000  Uiso   1.00
H2049  H     0.92567   0.97126   0.87068   0.00000  Uiso   1.00
H2050  H     0.62586   0.56573   0.73380   0.00000  Uiso   1.00
H2051  H     0.68198   0.60213   0.69405   0.00000  Uiso   1.00
H2052  H     0.69518   0.63534   0.74397   0.00000  Uiso   1.00
H2053  H     0.64618   0.64503   0.71446   0.00000  Uiso   1.00
H2054  H     0.67603   0.63248   0.93638   0.00000  Uiso   1.00
H2055  H     0.61397   0.58793   0.95747   0.00000  Uiso   1.00
H2056  H     0.66226   0.55670   0.96572   0.00000  Uiso   1.00
H2057  H     0.63000   0.54436   0.91718   0.00000  Uiso   1.00
H2058  H     0.80815   0.88879   0.74473   0.00000  Uiso   1.00
H2059  H     0.74674   0.92414   0.74082   0.00000  Uiso   1.00
H2060  H     0.75307   0.83041   0.75411   0.00000  Uiso   1.00
H2061  H     0.75260   0.86885   0.80280   0.00000  Uiso   1.00
H2062  H     0.77858   0.81433   0.80495   0.00000  Uiso   1.00
H2063  H     0.75009   0.57682   0.92610   0.00000  Uiso   1.00
H2064  H     0.94087   0.59918   0.74685   0.00000  Uiso   1.00
N2065  N     0.50000   0.75000   0.95240   0.00000  Uiso   1.00
N2066  N     0.87421   0.80091   0.76925   0.00000  Uiso   1.00
N2067  N     0.92278   0.86588   0.91319   0.00000  Uiso   1.00
N2068  N     0.56715   0.62427   0.76202   0.00000  Uiso   1.00
N2069  N     0.67248   0.88249   0.75455   0.00000  Uiso   1.00
N2070  N     0.80433   0.63710   0.89218   0.00000  Uiso   1.00
N2071  N     0.87337   0.55311   0.76819   0.00000  Uiso   1.00
N2072  N     0.62274   0.95017   0.89600   0.00000  Uiso   1.00
N2073  N     0.87157   0.94303   0.90217   0.00000  Uiso   1.00
N2074  N     0.64822   0.58484   0.75142   0.00000  Uiso   1.00
N2075  N     0.66529   0.60564   0.91629   0.00000  Uiso   1.00
N2076  N     0.50000   0.75000   0.71427   0.00000  Uiso   1.00
N2077  N     0.81030   0.86400   0.76798   0.00000  Uiso   1.00
N2078  N     0.75000   0.50000   0.95240   0.00000  Uiso   1.00
N2079  N     0.75000   0.50000   0.71427   0.00000  Uiso   1.00
N2080  N     0.92682   0.62922   0.75701   0.00000  Uiso   1.00
N2081  N     0.55398   0.88756   0.89115   0.00000  Uiso   1.00
N2082  N     0.62331   0.80329   0.76801   0.00000  Uiso   1.00
N2083  N     0.87262   0.70067   0.89581   0.00000  Uiso   1.00
N2084  N     0.61129   0.68091   0.91247   0.00000  Uiso   1.00
O2085  O     0.54581   0.70419   0.87154   0.00000  Uiso   1.00
O2086  O     0.70420   0.54581   0.79513   0.00000  Uiso   1.00
O2087  O     0.70420   0.54581   0.87154   0.00000  Uiso   1.00
O2088  O     0.79581   0.95419   0.79513   0.00000  Uiso   1.00
O2089  O     0.70420   0.95419   0.79513   0.00000  Uiso   1.00
O2090  O     0.79581   0.54581   0.87154   0.00000  Uiso   1.00
O2091  O     0.79581   0.54581   0.79513   0.00000  Uiso   1.00
O2092  O     0.70420   0.95419   0.87154   0.00000  Uiso   1.00
O2093  O     0.50214   0.83196   0.71324   0.00000  Uiso   1.00
O2094  O     0.50098   0.66805   0.95349   0.00000  Uiso   1.00
O2095  O     0.50255   0.66871   0.70868   0.00000  Uiso   1.00
O2096  O     0.95420   0.79581   0.79513   0.00000  Uiso   1.00
O2097  O     0.50330   0.83150   0.95800   0.00000  Uiso   1.00
O2098  O     0.76037   0.58100   0.71369   0.00000  Uiso   1.00
O2099  O     0.74517   0.91824   0.95328   0.00000  Uiso   1.00
O2100  O     0.74514   0.91881   0.70836   0.00000  Uiso   1.00
O2101  O     0.75675   0.58126   0.95805   0.00000  Uiso   1.00
O2102  O     0.95420   0.79581   0.87154   0.00000  Uiso   1.00
O2103  O     0.54581   0.70419   0.79513   0.00000  Uiso   1.00
O2104  O     0.95420   0.70419   0.79513   0.00000  Uiso   1.00
O2105  O     0.54581   0.79581   0.87154   0.00000  Uiso   1.00
O2106  O     0.54581   0.79581   0.79513   0.00000  Uiso   1.00
O2107  O     0.95420   0.70419   0.87154   0.00000  Uiso   1.00
O2108  O     0.79581   0.95419   0.87154   0.00000  Uiso   1.00
Zn2109 Zn    0.50000   0.75000   0.88437   0.00000  Uiso   1.00
Zn2110 Zn    0.50000   0.75000   0.78229   0.00000  Uiso   1.00
Zn2111 Zn    0.75000   0.50000   0.88437   0.00000  Uiso   1.00
Zn2112 Zn    0.75000   0.50000   0.78229   0.00000  Uiso   1.00
loop_
_geom_bond_atom_site_label_1
_geom_bond_atom_site_label_2
_geom_bond_distance
_geom_bond_site_symmetry_2
_ccdc_geom_bond_type
C1     O167    1.303   .     A
C1     O149    1.283   .     A
C1     C30     1.432   .     S
C2     N129    1.379   .     A
C2     O158    1.376   .     S
C2     C707    1.412   .     S
C3     O159    1.371   .     S
C3     N140    1.373   .     A
C3     C1410   1.412   1_554 S
C4     N129    1.374   .     A
C4     O161    1.374   .     S
C4     C760    1.413   .     S
C5     N143    1.377   .     A
C5     O162    1.374   .     S
C5     C1416   1.414   1_554 S
C6     O163    1.376   .     S
C6     C711    1.411   .     S
C6     N494    1.377   .     S
C7     O164    1.368   .     S
C7     C1414   1.411   1_554 S
C7     N495    1.374   .     S
C8     O165    1.373   .     S
C8     N142    1.375   .     A
C8     C709    1.414   .     S
C9     N144    1.424   .     S
C9     C20     1.386   .     A
C9     C28     1.410   .     A
C10    C27     1.404   .     A
C10    C21     1.391   .     A
C10    N145    1.425   .     S
C11    C18     1.385   .     A
C11    C27     1.404   .     A
C11    N146    1.430   .     S
C12    C29     1.438   .     S
C12    O160    1.302   .     A
C12    O166    1.287   .     A
C13    C28     1.410   .     A
C13    N147    1.428   .     S
C13    C19     1.392   .     A
C14    N148    1.430   .     S
C14    C30     1.415   .     A
C14    C25     1.388   .     A
C15    C29     1.399   .     A
C15    C26     1.384   .     A
C15    N130    1.428   .     S
C16    N131    1.425   .     S
C16    C29     1.412   .     A
C16    C22     1.389   .     A
C17    N132    1.425   .     S
C17    C30     1.398   .     A
C17    C24     1.381   .     A
C18    N133    1.423   .     S
C18    C32     1.410   .     A
C19    C31     1.405   .     A
C19    N134    1.427   .     S
C20    N135    1.432   .     S
C20    C31     1.406   .     A
C21    N136    1.426   .     S
C21    C32     1.407   .     A
C22    C35     1.408   .     A
C22    N137    1.428   .     S
C23    C28     1.435   .     S
C23    O168    1.291   .     A
C23    O171    1.297   .     A
C24    N138    1.425   .     S
C24    C33     1.415   .     A
C25    N139    1.427   .     S
C25    C33     1.415   .     A
C26    N141    1.415   .     S
C26    C35     1.413   .     A
C27    C34     1.424   .     S
C31    C55     1.425   .     S
C32    C54     1.437   .     S
C33    C53     1.446   .     S
C34    O170    1.287   .     A
C34    O169    1.294   .     A
C35    C45     1.442   .     S
C36    H59     1.108   .     S
C36    H58     1.111   .     S
C36    H60     1.111   .     S
C36    N144    1.451   .     S
C37    H63     1.111   .     S
C37    H64     1.111   .     S
C37    N145    1.448   .     S
C37    H238    1.106   1_455 S
C38    N146    1.445   .     S
C38    H66     1.111   .     S
C38    H69     1.107   .     S
C38    H67     1.111   .     S
C39    H72     1.112   .     S
C39    H73     1.110   .     S
C39    N147    1.450   .     S
C39    H71     1.109   .     S
C40    N148    1.446   .     S
C40    H76     1.111   .     S
C40    H77     1.108   .     S
C40    H75     1.111   .     S
C41    N130    1.446   .     S
C41    H81     1.110   .     S
C41    H82     1.110   .     S
C41    H80     1.110   .     S
C42    N131    1.448   .     S
C42    H86     1.111   .     S
C42    H84     1.111   .     S
C42    H85     1.107   .     S
C43    H89     1.111   .     S
C43    H88     1.109   .     S
C43    N132    1.447   .     S
C43    H91     1.112   .     S
C44    H93     1.111   .     S
C44    N133    1.449   .     S
C44    H95     1.111   .     S
C44    H94     1.107   .     S
C45    O172    1.295   .     A
C45    O152    1.296   .     A
C46    H99     1.111   .     S
C46    H98     1.111   .     S
C46    N134    1.448   .     S
C46    H97     1.110   .     S
C47    H102    1.111   .     S
C47    H104    1.106   .     S
C47    N135    1.444   .     S
C47    H455    1.111   1_545 S
C48    H107    1.112   .     S
C48    H106    1.108   .     S
C48    N136    1.449   .     S
C48    H108    1.110   .     S
C49    N137    1.450   .     S
C49    H113    1.112   .     S
C49    H110    1.111   .     S
C49    H463    1.110   .     S
C50    H117    1.110   .     S
C50    H115    1.106   .     S
C50    H116    1.111   .     S
C50    N138    1.449   .     S
C51    H119    1.110   .     S
C51    H120    1.108   .     S
C51    H121    1.110   .     S
C51    N139    1.449   .     S
C52    H126    1.112   .     S
C52    N141    1.445   .     S
C52    H125    1.109   .     S
C52    H124    1.108   .     S
C53    O150    1.295   .     A
C53    O151    1.299   .     A
C54    O153    1.291   .     A
C54    O156    1.298   .     A
C55    O154    1.295   .     A
C55    O155    1.287   .     A
C56    N140    1.380   .     A
C56    O157    1.376   .     S
C56    C1412   1.413   1_554 S
H57    O333    0.977   .     S
H61    N145    1.029   .     S
H62    C213    1.106   .     S
H65    N146    1.030   .     S
H68    O158    0.977   .     S
H70    N147    1.031   .     S
H74    N148    1.030   .     S
H78    N130    1.031   .     S
H79    O335    0.979   .     S
H83    N131    1.029   .     S
H87    N132    1.029   .     S
H90    O161    0.979   .     S
H92    N133    1.029   .     S
H96    N134    1.029   .     S
H100   N135    1.029   .     S
H101   O162    0.980   .     S
H103   C399    1.111   .     S
H105   N136    1.031   .     S
H109   N137    1.031   .     S
H111   C401    1.110   1_545 S
H112   O163    0.978   .     S
H114   N138    1.031   .     S
H118   N139    1.031   .     S
H122   N141    1.026   .     S
H123   O164    0.978   .     S
H127   O165    0.980   .     S
H128   N144    1.030   .     S
N129   Zn173   2.031   .     S
N140   Zn174   2.031   .     S
N142   Zn175   2.031   .     S
N142   C358    1.377   1_545 S
N143   Zn176   2.031   .     S
N143   C359    1.374   1_545 S
O149   Zn173   2.015   .     S
O150   Zn176   2.015   .     S
O151   Zn175   2.028   .     S
O152   Zn528   2.028   .     S
O153   Zn528   2.018   .     S
O154   Zn175   2.018   .     S
O155   Zn176   1.998   .     S
O156   Zn527   1.998   .     S
O157   H233    0.977   1_455 S
O159   H255    0.979   1_455 S
O160   Zn350   2.015   .     S
O166   Zn349   2.028   .     S
O167   Zn174   2.028   .     S
O168   Zn350   2.018   .     S
O169   Zn173   2.018   .     S
O170   Zn174   1.998   .     S
O171   Zn349   1.998   .     S
O172   Zn527   2.015   .     S
Zn173  O347    1.998   1_455 S
Zn173  O342    2.028   1_455 S
Zn174  O344    2.018   1_455 S
Zn174  O336    2.015   1_455 S
Zn175  O508    1.998   1_545 S
Zn175  O524    2.015   1_545 S
Zn176  O505    2.018   1_545 S
Zn176  O504    2.028   1_545 S
C177   O343    1.303   .     A
C177   O325    1.283   .     A
C177   C206    1.432   .     S
C178   N305    1.379   .     A
C178   O334    1.376   .     S
C178   C883    1.412   .     S
C179   O335    1.371   .     S
C179   N316    1.373   .     A
C179   C1586   1.412   1_554 S
C180   N305    1.374   .     A
C180   O337    1.374   .     S
C180   C936    1.413   .     S
C181   N319    1.377   .     A
C181   O338    1.374   .     S
C181   C1592   1.414   1_554 S
C182   O339    1.376   .     S
C182   C887    1.411   .     S
C182   N670    1.377   .     S
C183   O340    1.368   .     S
C183   C1590   1.411   1_554 S
C183   N671    1.374   .     S
C184   O341    1.373   .     S
C184   N318    1.375   .     A
C184   C885    1.414   .     S
C185   N320    1.424   .     S
C185   C196    1.386   .     A
C185   C204    1.410   .     A
C186   C203    1.404   .     A
C186   C197    1.391   .     A
C186   N321    1.425   .     S
C187   C194    1.385   .     A
C187   C203    1.404   .     A
C187   N322    1.430   .     S
C188   C205    1.438   .     S
C188   O336    1.302   .     A
C188   O342    1.287   .     A
C189   C204    1.410   .     A
C189   N323    1.428   .     S
C189   C195    1.392   .     A
C190   N324    1.430   .     S
C190   C206    1.415   .     A
C190   C201    1.388   .     A
C191   C205    1.399   .     A
C191   C202    1.384   .     A
C191   N306    1.428   .     S
C192   N307    1.425   .     S
C192   C205    1.412   .     A
C192   C198    1.389   .     A
C193   N308    1.425   .     S
C193   C206    1.398   .     A
C193   C200    1.381   .     A
C194   N309    1.423   .     S
C194   C208    1.410   .     A
C195   C207    1.405   .     A
C195   N310    1.427   .     S
C196   N311    1.432   .     S
C196   C207    1.406   .     A
C197   N312    1.426   .     S
C197   C208    1.407   .     A
C198   C211    1.408   .     A
C198   N313    1.428   .     S
C199   C204    1.435   .     S
C199   O344    1.291   .     A
C199   O347    1.297   .     A
C200   N314    1.425   .     S
C200   C209    1.415   .     A
C201   N315    1.427   .     S
C201   C209    1.415   .     A
C202   N317    1.415   .     S
C202   C211    1.413   .     A
C203   C210    1.424   .     S
C207   C231    1.425   .     S
C208   C230    1.437   .     S
C209   C229    1.446   .     S
C210   O346    1.287   .     A
C210   O345    1.294   .     A
C211   C221    1.442   .     S
C212   H235    1.108   .     S
C212   H234    1.111   .     S
C212   H236    1.111   .     S
C212   N320    1.451   .     S
C213   H239    1.111   .     S
C213   H240    1.111   .     S
C213   N321    1.448   .     S
C214   N322    1.445   .     S
C214   H242    1.111   .     S
C214   H245    1.107   .     S
C214   H243    1.111   .     S
C215   H248    1.112   .     S
C215   H249    1.110   .     S
C215   N323    1.450   .     S
C215   H247    1.109   .     S
C216   N324    1.446   .     S
C216   H252    1.111   .     S
C216   H253    1.108   .     S
C216   H251    1.111   .     S
C217   N306    1.446   .     S
C217   H257    1.110   .     S
C217   H258    1.110   .     S
C217   H256    1.110   .     S
C218   N307    1.448   .     S
C218   H262    1.111   .     S
C218   H260    1.111   .     S
C218   H261    1.107   .     S
C219   H265    1.111   .     S
C219   H264    1.109   .     S
C219   N308    1.447   .     S
C219   H267    1.112   .     S
C220   H269    1.111   .     S
C220   N309    1.449   .     S
C220   H271    1.111   .     S
C220   H270    1.107   .     S
C221   O348    1.295   .     A
C221   O328    1.296   .     A
C222   H275    1.111   .     S
C222   H274    1.111   .     S
C222   N310    1.448   .     S
C222   H273    1.110   .     S
C223   H278    1.111   .     S
C223   H280    1.106   .     S
C223   N311    1.444   .     S
C223   H631    1.111   1_545 S
C224   H283    1.112   .     S
C224   H282    1.108   .     S
C224   N312    1.449   .     S
C224   H284    1.110   .     S
C225   N313    1.450   .     S
C225   H289    1.112   .     S
C225   H286    1.111   .     S
C225   H639    1.110   .     S
C226   H293    1.110   .     S
C226   H291    1.106   .     S
C226   H292    1.111   .     S
C226   N314    1.449   .     S
C227   H295    1.110   .     S
C227   H296    1.108   .     S
C227   H297    1.110   .     S
C227   N315    1.449   .     S
C228   H302    1.112   .     S
C228   N317    1.445   .     S
C228   H301    1.109   .     S
C228   H300    1.108   .     S
C229   O326    1.295   .     A
C229   O327    1.299   .     A
C230   O329    1.291   .     A
C230   O332    1.298   .     A
C231   O330    1.295   .     A
C231   O331    1.287   .     A
C232   N316    1.380   .     A
C232   O333    1.376   .     S
C232   C1588   1.413   1_554 S
H233   O157    0.977   1_655 S
H237   N321    1.029   .     S
H238   C37     1.106   1_655 S
H241   N322    1.030   .     S
H244   O334    0.977   .     S
H246   N323    1.031   .     S
H250   N324    1.030   .     S
H254   N306    1.031   .     S
H255   O159    0.979   1_655 S
H259   N307    1.029   .     S
H263   N308    1.029   .     S
H266   O337    0.979   .     S
H268   N309    1.029   .     S
H272   N310    1.029   .     S
H276   N311    1.029   .     S
H277   O338    0.980   .     S
H279   C575    1.111   .     S
H281   N312    1.031   .     S
H285   N313    1.031   .     S
H287   C577    1.110   1_545 S
H288   O339    0.978   .     S
H290   N314    1.031   .     S
H294   N315    1.031   .     S
H298   N317    1.026   .     S
H299   O340    0.978   .     S
H303   O341    0.980   .     S
H304   N320    1.030   .     S
N305   Zn349   2.031   .     S
N316   Zn350   2.031   .     S
N318   Zn351   2.031   .     S
N318   C534    1.377   1_545 S
N319   Zn352   2.031   .     S
N319   C535    1.374   1_545 S
O325   Zn349   2.015   .     S
O326   Zn352   2.015   .     S
O327   Zn351   2.028   .     S
O328   Zn704   2.028   .     S
O329   Zn704   2.018   .     S
O330   Zn351   2.018   .     S
O331   Zn352   1.998   .     S
O332   Zn703   1.998   .     S
O336   Zn174   2.015   1_655 S
O342   Zn173   2.028   1_655 S
O343   Zn350   2.028   .     S
O344   Zn174   2.018   1_655 S
O345   Zn349   2.018   .     S
O346   Zn350   1.998   .     S
O347   Zn173   1.998   1_655 S
O348   Zn703   2.015   .     S
Zn351  O684    1.998   1_545 S
Zn351  O700    2.015   1_545 S
Zn352  O681    2.018   1_545 S
Zn352  O680    2.028   1_545 S
C353   O519    1.303   .     A
C353   O501    1.283   .     A
C353   C382    1.432   .     S
C354   N481    1.379   .     A
C354   O510    1.376   .     S
C354   C1059   1.412   .     S
C355   O511    1.371   .     S
C355   N492    1.373   .     A
C355   C1762   1.412   1_554 S
C356   N481    1.374   .     A
C356   O513    1.374   .     S
C356   C1112   1.413   .     S
C357   N495    1.377   .     A
C357   O514    1.374   .     S
C357   C1768   1.414   1_554 S
C358   O515    1.376   .     S
C358   C1063   1.411   .     S
C358   N142    1.377   1_565 S
C359   O516    1.368   .     S
C359   C1766   1.411   1_554 S
C359   N143    1.374   1_565 S
C360   O517    1.373   .     S
C360   N494    1.375   .     A
C360   C1061   1.414   .     S
C361   N496    1.424   .     S
C361   C372    1.386   .     A
C361   C380    1.410   .     A
C362   C379    1.404   .     A
C362   C373    1.391   .     A
C362   N497    1.425   .     S
C363   C370    1.385   .     A
C363   C379    1.404   .     A
C363   N498    1.430   .     S
C364   C381    1.438   .     S
C364   O512    1.302   .     A
C364   O518    1.287   .     A
C365   C380    1.410   .     A
C365   N499    1.428   .     S
C365   C371    1.392   .     A
C366   N500    1.430   .     S
C366   C382    1.415   .     A
C366   C377    1.388   .     A
C367   C381    1.399   .     A
C367   C378    1.384   .     A
C367   N482    1.428   .     S
C368   N483    1.425   .     S
C368   C381    1.412   .     A
C368   C374    1.389   .     A
C369   N484    1.425   .     S
C369   C382    1.398   .     A
C369   C376    1.381   .     A
C370   N485    1.423   .     S
C370   C384    1.410   .     A
C371   C383    1.405   .     A
C371   N486    1.427   .     S
C372   N487    1.432   .     S
C372   C383    1.406   .     A
C373   N488    1.426   .     S
C373   C384    1.407   .     A
C374   C387    1.408   .     A
C374   N489    1.428   .     S
C375   C380    1.435   .     S
C375   O520    1.291   .     A
C375   O523    1.297   .     A
C376   N490    1.425   .     S
C376   C385    1.415   .     A
C377   N491    1.427   .     S
C377   C385    1.415   .     A
C378   N493    1.415   .     S
C378   C387    1.413   .     A
C379   C386    1.424   .     S
C383   C407    1.425   .     S
C384   C406    1.437   .     S
C385   C405    1.446   .     S
C386   O522    1.287   .     A
C386   O521    1.294   .     A
C387   C397    1.442   .     S
C388   H411    1.108   .     S
C388   H410    1.111   .     S
C388   H412    1.111   .     S
C388   N496    1.451   .     S
C389   H415    1.111   .     S
C389   H416    1.111   .     S
C389   N497    1.448   .     S
C389   H590    1.106   1_455 S
C390   N498    1.445   .     S
C390   H418    1.111   .     S
C390   H421    1.107   .     S
C390   H419    1.111   .     S
C391   H424    1.112   .     S
C391   H425    1.110   .     S
C391   N499    1.450   .     S
C391   H423    1.109   .     S
C392   N500    1.446   .     S
C392   H428    1.111   .     S
C392   H429    1.108   .     S
C392   H427    1.111   .     S
C393   N482    1.446   .     S
C393   H433    1.110   .     S
C393   H434    1.110   .     S
C393   H432    1.110   .     S
C394   N483    1.448   .     S
C394   H438    1.111   .     S
C394   H436    1.111   .     S
C394   H437    1.107   .     S
C395   H441    1.111   .     S
C395   H440    1.109   .     S
C395   N484    1.447   .     S
C395   H443    1.112   .     S
C396   H445    1.111   .     S
C396   N485    1.449   .     S
C396   H447    1.111   .     S
C396   H446    1.107   .     S
C397   O524    1.295   .     A
C397   O504    1.296   .     A
C398   H451    1.111   .     S
C398   H450    1.111   .     S
C398   N486    1.448   .     S
C398   H449    1.110   .     S
C399   H454    1.111   .     S
C399   H456    1.106   .     S
C399   N487    1.444   .     S
C400   H459    1.112   .     S
C400   H458    1.108   .     S
C400   N488    1.449   .     S
C400   H460    1.110   .     S
C401   N489    1.450   .     S
C401   H465    1.112   .     S
C401   H462    1.111   .     S
C401   H111    1.110   1_565 S
C402   H469    1.110   .     S
C402   H467    1.106   .     S
C402   H468    1.111   .     S
C402   N490    1.449   .     S
C403   H471    1.110   .     S
C403   H472    1.108   .     S
C403   H473    1.110   .     S
C403   N491    1.449   .     S
C404   H478    1.112   .     S
C404   N493    1.445   .     S
C404   H477    1.109   .     S
C404   H476    1.108   .     S
C405   O502    1.295   .     A
C405   O503    1.299   .     A
C406   O505    1.291   .     A
C406   O508    1.298   .     A
C407   O506    1.295   .     A
C407   O507    1.287   .     A
C408   N492    1.380   .     A
C408   O509    1.376   .     S
C408   C1764   1.413   1_554 S
H409   O685    0.977   .     S
H413   N497    1.029   .     S
H414   C565    1.106   .     S
H417   N498    1.030   .     S
H420   O510    0.977   .     S
H422   N499    1.031   .     S
H426   N500    1.030   .     S
H430   N482    1.031   .     S
H431   O687    0.979   .     S
H435   N483    1.029   .     S
H439   N484    1.029   .     S
H442   O513    0.979   .     S
H444   N485    1.029   .     S
H448   N486    1.029   .     S
H452   N487    1.029   .     S
H453   O514    0.980   .     S
H455   C47     1.111   1_565 S
H457   N488    1.031   .     S
H461   N489    1.031   .     S
H464   O515    0.978   .     S
H466   N490    1.031   .     S
H470   N491    1.031   .     S
H474   N493    1.026   .     S
H475   O516    0.978   .     S
H479   O517    0.980   .     S
H480   N496    1.030   .     S
N481   Zn525   2.031   .     S
N492   Zn526   2.031   .     S
N494   Zn527   2.031   .     S
N495   Zn528   2.031   .     S
O501   Zn525   2.015   .     S
O502   Zn528   2.015   .     S
O503   Zn527   2.028   .     S
O504   Zn176   2.028   1_565 S
O505   Zn176   2.018   1_565 S
O506   Zn527   2.018   .     S
O507   Zn528   1.998   .     S
O508   Zn175   1.998   1_565 S
O509   H585    0.977   1_455 S
O511   H607    0.979   1_455 S
O512   Zn702   2.015   .     S
O518   Zn701   2.028   .     S
O519   Zn526   2.028   .     S
O520   Zn702   2.018   .     S
O521   Zn525   2.018   .     S
O522   Zn526   1.998   .     S
O523   Zn701   1.998   .     S
O524   Zn175   2.015   1_565 S
Zn525  O699    1.998   1_455 S
Zn525  O694    2.028   1_455 S
Zn526  O696    2.018   1_455 S
Zn526  O688    2.015   1_455 S
C529   O695    1.303   .     A
C529   O677    1.283   .     A
C529   C558    1.432   .     S
C530   N657    1.379   .     A
C530   O686    1.376   .     S
C530   C1235   1.412   .     S
C531   O687    1.371   .     S
C531   N668    1.373   .     A
C531   C1938   1.412   1_554 S
C532   N657    1.374   .     A
C532   O689    1.374   .     S
C532   C1288   1.413   .     S
C533   N671    1.377   .     A
C533   O690    1.374   .     S
C533   C1944   1.414   1_554 S
C534   O691    1.376   .     S
C534   C1239   1.411   .     S
C534   N318    1.377   1_565 S
C535   O692    1.368   .     S
C535   C1942   1.411   1_554 S
C535   N319    1.374   1_565 S
C536   O693    1.373   .     S
C536   N670    1.375   .     A
C536   C1237   1.414   .     S
C537   N672    1.424   .     S
C537   C548    1.386   .     A
C537   C556    1.410   .     A
C538   C555    1.404   .     A
C538   C549    1.391   .     A
C538   N673    1.425   .     S
C539   C546    1.385   .     A
C539   C555    1.404   .     A
C539   N674    1.430   .     S
C540   C557    1.438   .     S
C540   O688    1.302   .     A
C540   O694    1.287   .     A
C541   C556    1.410   .     A
C541   N675    1.428   .     S
C541   C547    1.392   .     A
C542   N676    1.430   .     S
C542   C558    1.415   .     A
C542   C553    1.388   .     A
C543   C557    1.399   .     A
C543   C554    1.384   .     A
C543   N658    1.428   .     S
C544   N659    1.425   .     S
C544   C557    1.412   .     A
C544   C550    1.389   .     A
C545   N660    1.425   .     S
C545   C558    1.398   .     A
C545   C552    1.381   .     A
C546   N661    1.423   .     S
C546   C560    1.410   .     A
C547   C559    1.405   .     A
C547   N662    1.427   .     S
C548   N663    1.432   .     S
C548   C559    1.406   .     A
C549   N664    1.426   .     S
C549   C560    1.407   .     A
C550   C563    1.408   .     A
C550   N665    1.428   .     S
C551   C556    1.435   .     S
C551   O696    1.291   .     A
C551   O699    1.297   .     A
C552   N666    1.425   .     S
C552   C561    1.415   .     A
C553   N667    1.427   .     S
C553   C561    1.415   .     A
C554   N669    1.415   .     S
C554   C563    1.413   .     A
C555   C562    1.424   .     S
C559   C583    1.425   .     S
C560   C582    1.437   .     S
C561   C581    1.446   .     S
C562   O698    1.287   .     A
C562   O697    1.294   .     A
C563   C573    1.442   .     S
C564   H587    1.108   .     S
C564   H586    1.111   .     S
C564   H588    1.111   .     S
C564   N672    1.451   .     S
C565   H591    1.111   .     S
C565   H592    1.111   .     S
C565   N673    1.448   .     S
C566   N674    1.445   .     S
C566   H594    1.111   .     S
C566   H597    1.107   .     S
C566   H595    1.111   .     S
C567   H600    1.112   .     S
C567   H601    1.110   .     S
C567   N675    1.450   .     S
C567   H599    1.109   .     S
C568   N676    1.446   .     S
C568   H604    1.111   .     S
C568   H605    1.108   .     S
C568   H603    1.111   .     S
C569   N658    1.446   .     S
C569   H609    1.110   .     S
C569   H610    1.110   .     S
C569   H608    1.110   .     S
C570   N659    1.448   .     S
C570   H614    1.111   .     S
C570   H612    1.111   .     S
C570   H613    1.107   .     S
C571   H617    1.111   .     S
C571   H616    1.109   .     S
C571   N660    1.447   .     S
C571   H619    1.112   .     S
C572   H621    1.111   .     S
C572   N661    1.449   .     S
C572   H623    1.111   .     S
C572   H622    1.107   .     S
C573   O700    1.295   .     A
C573   O680    1.296   .     A
C574   H627    1.111   .     S
C574   H626    1.111   .     S
C574   N662    1.448   .     S
C574   H625    1.110   .     S
C575   H630    1.111   .     S
C575   H632    1.106   .     S
C575   N663    1.444   .     S
C576   H635    1.112   .     S
C576   H634    1.108   .     S
C576   N664    1.449   .     S
C576   H636    1.110   .     S
C577   N665    1.450   .     S
C577   H641    1.112   .     S
C577   H638    1.111   .     S
C577   H287    1.110   1_565 S
C578   H645    1.110   .     S
C578   H643    1.106   .     S
C578   H644    1.111   .     S
C578   N666    1.449   .     S
C579   H647    1.110   .     S
C579   H648    1.108   .     S
C579   H649    1.110   .     S
C579   N667    1.449   .     S
C580   H654    1.112   .     S
C580   N669    1.445   .     S
C580   H653    1.109   .     S
C580   H652    1.108   .     S
C581   O678    1.295   .     A
C581   O679    1.299   .     A
C582   O681    1.291   .     A
C582   O684    1.298   .     A
C583   O682    1.295   .     A
C583   O683    1.287   .     A
C584   N668    1.380   .     A
C584   O685    1.376   .     S
C584   C1940   1.413   1_554 S
H585   O509    0.977   1_655 S
H589   N673    1.029   .     S
H590   C389    1.106   1_655 S
H593   N674    1.030   .     S
H596   O686    0.977   .     S
H598   N675    1.031   .     S
H602   N676    1.030   .     S
H606   N658    1.031   .     S
H607   O511    0.979   1_655 S
H611   N659    1.029   .     S
H615   N660    1.029   .     S
H618   O689    0.979   .     S
H620   N661    1.029   .     S
H624   N662    1.029   .     S
H628   N663    1.029   .     S
H629   O690    0.980   .     S
H631   C223    1.111   1_565 S
H633   N664    1.031   .     S
H637   N665    1.031   .     S
H640   O691    0.978   .     S
H642   N666    1.031   .     S
H646   N667    1.031   .     S
H650   N669    1.026   .     S
H651   O692    0.978   .     S
H655   O693    0.980   .     S
H656   N672    1.030   .     S
N657   Zn701   2.031   .     S
N668   Zn702   2.031   .     S
N670   Zn703   2.031   .     S
N671   Zn704   2.031   .     S
O677   Zn701   2.015   .     S
O678   Zn704   2.015   .     S
O679   Zn703   2.028   .     S
O680   Zn352   2.028   1_565 S
O681   Zn352   2.018   1_565 S
O682   Zn703   2.018   .     S
O683   Zn704   1.998   .     S
O684   Zn351   1.998   1_565 S
O688   Zn526   2.015   1_655 S
O694   Zn525   2.028   1_655 S
O695   Zn702   2.028   .     S
O696   Zn526   2.018   1_655 S
O697   Zn701   2.018   .     S
O698   Zn702   1.998   .     S
O699   Zn525   1.998   1_655 S
O700   Zn351   2.015   1_565 S
C705   O871    1.303   .     A
C705   O853    1.283   .     A
C705   C734    1.432   .     S
C706   N833    1.379   .     A
C706   O862    1.376   .     S
C706   C1411   1.412   .     S
C707   O863    1.371   .     S
C707   N844    1.373   .     A
C708   N833    1.374   .     A
C708   O865    1.374   .     S
C708   C1464   1.413   .     S
C709   N847    1.377   .     A
C709   O866    1.374   .     S
C710   O867    1.376   .     S
C710   C1415   1.411   .     S
C710   N1198   1.377   .     S
C711   O868    1.368   .     S
C711   N1199   1.374   .     S
C712   O869    1.373   .     S
C712   N846    1.375   .     A
C712   C1413   1.414   .     S
C713   N848    1.424   .     S
C713   C724    1.386   .     A
C713   C732    1.410   .     A
C714   C731    1.404   .     A
C714   C725    1.391   .     A
C714   N849    1.425   .     S
C715   C722    1.385   .     A
C715   C731    1.404   .     A
C715   N850    1.430   .     S
C716   C733    1.438   .     S
C716   O864    1.302   .     A
C716   O870    1.287   .     A
C717   C732    1.410   .     A
C717   N851    1.428   .     S
C717   C723    1.392   .     A
C718   N852    1.430   .     S
C718   C734    1.415   .     A
C718   C729    1.388   .     A
C719   C733    1.399   .     A
C719   C730    1.384   .     A
C719   N834    1.428   .     S
C720   N835    1.425   .     S
C720   C733    1.412   .     A
C720   C726    1.389   .     A
C721   N836    1.425   .     S
C721   C734    1.398   .     A
C721   C728    1.381   .     A
C722   N837    1.423   .     S
C722   C736    1.410   .     A
C723   C735    1.405   .     A
C723   N838    1.427   .     S
C724   N839    1.432   .     S
C724   C735    1.406   .     A
C725   N840    1.426   .     S
C725   C736    1.407   .     A
C726   C739    1.408   .     A
C726   N841    1.428   .     S
C727   C732    1.435   .     S
C727   O872    1.291   .     A
C727   O875    1.297   .     A
C728   N842    1.425   .     S
C728   C737    1.415   .     A
C729   N843    1.427   .     S
C729   C737    1.415   .     A
C730   N845    1.415   .     S
C730   C739    1.413   .     A
C731   C738    1.424   .     S
C735   C759    1.425   .     S
C736   C758    1.437   .     S
C737   C757    1.446   .     S
C738   O874    1.287   .     A
C738   O873    1.294   .     A
C739   C749    1.442   .     S
C740   H763    1.108   .     S
C740   H762    1.111   .     S
C740   H764    1.111   .     S
C740   N848    1.451   .     S
C741   H767    1.111   .     S
C741   H768    1.111   .     S
C741   N849    1.448   .     S
C741   H942    1.106   1_455 S
C742   N850    1.445   .     S
C742   H770    1.111   .     S
C742   H773    1.107   .     S
C742   H771    1.111   .     S
C743   H776    1.112   .     S
C743   H777    1.110   .     S
C743   N851    1.450   .     S
C743   H775    1.109   .     S
C744   N852    1.446   .     S
C744   H780    1.111   .     S
C744   H781    1.108   .     S
C744   H779    1.111   .     S
C745   N834    1.446   .     S
C745   H785    1.110   .     S
C745   H786    1.110   .     S
C745   H784    1.110   .     S
C746   N835    1.448   .     S
C746   H790    1.111   .     S
C746   H788    1.111   .     S
C746   H789    1.107   .     S
C747   H793    1.111   .     S
C747   H792    1.109   .     S
C747   N836    1.447   .     S
C747   H795    1.112   .     S
C748   H797    1.111   .     S
C748   N837    1.449   .     S
C748   H799    1.111   .     S
C748   H798    1.107   .     S
C749   O876    1.295   .     A
C749   O856    1.296   .     A
C750   H803    1.111   .     S
C750   H802    1.111   .     S
C750   N838    1.448   .     S
C750   H801    1.110   .     S
C751   H806    1.111   .     S
C751   H808    1.106   .     S
C751   N839    1.444   .     S
C751   H1159   1.111   1_545 S
C752   H811    1.112   .     S
C752   H810    1.108   .     S
C752   N840    1.449   .     S
C752   H812    1.110   .     S
C753   N841    1.450   .     S
C753   H817    1.112   .     S
C753   H814    1.111   .     S
C753   H1167   1.110   .     S
C754   H821    1.110   .     S
C754   H819    1.106   .     S
C754   H820    1.111   .     S
C754   N842    1.449   .     S
C755   H823    1.110   .     S
C755   H824    1.108   .     S
C755   H825    1.110   .     S
C755   N843    1.449   .     S
C756   H830    1.112   .     S
C756   N845    1.445   .     S
C756   H829    1.109   .     S
C756   H828    1.108   .     S
C757   O854    1.295   .     A
C757   O855    1.299   .     A
C758   O857    1.291   .     A
C758   O860    1.298   .     A
C759   O858    1.295   .     A
C759   O859    1.287   .     A
C760   N844    1.380   .     A
C760   O861    1.376   .     S
H761   O1037   0.977   .     S
H765   N849    1.029   .     S
H766   C917    1.106   .     S
H769   N850    1.030   .     S
H772   O862    0.977   .     S
H774   N851    1.031   .     S
H778   N852    1.030   .     S
H782   N834    1.031   .     S
H783   O1039   0.979   .     S
H787   N835    1.029   .     S
H791   N836    1.029   .     S
H794   O865    0.979   .     S
H796   N837    1.029   .     S
H800   N838    1.029   .     S
H804   N839    1.029   .     S
H805   O866    0.980   .     S
H807   C1103   1.111   .     S
H809   N840    1.031   .     S
H813   N841    1.031   .     S
H815   C1105   1.110   1_545 S
H816   O867    0.978   .     S
H818   N842    1.031   .     S
H822   N843    1.031   .     S
H826   N845    1.026   .     S
H827   O868    0.978   .     S
H831   O869    0.980   .     S
H832   N848    1.030   .     S
N833   Zn877   2.031   .     S
N844   Zn878   2.031   .     S
N846   Zn879   2.031   .     S
N846   C1062   1.377   1_545 S
N847   Zn880   2.031   .     S
N847   C1063   1.374   1_545 S
O853   Zn877   2.015   .     S
O854   Zn880   2.015   .     S
O855   Zn879   2.028   .     S
O856   Zn1232  2.028   .     S
O857   Zn1232  2.018   .     S
O858   Zn879   2.018   .     S
O859   Zn880   1.998   .     S
O860   Zn1231  1.998   .     S
O861   H937    0.977   1_455 S
O863   H959    0.979   1_455 S
O864   Zn1054  2.015   .     S
O870   Zn1053  2.028   .     S
O871   Zn878   2.028   .     S
O872   Zn1054  2.018   .     S
O873   Zn877   2.018   .     S
O874   Zn878   1.998   .     S
O875   Zn1053  1.998   .     S
O876   Zn1231  2.015   .     S
Zn877  O1051   1.998   1_455 S
Zn877  O1046   2.028   1_455 S
Zn878  O1048   2.018   1_455 S
Zn878  O1040   2.015   1_455 S
Zn879  O1212   1.998   1_545 S
Zn879  O1228   2.015   1_545 S
Zn880  O1209   2.018   1_545 S
Zn880  O1208   2.028   1_545 S
C881   O1047   1.303   .     A
C881   O1029   1.283   .     A
C881   C910    1.432   .     S
C882   N1009   1.379   .     A
C882   O1038   1.376   .     S
C882   C1587   1.412   .     S
C883   O1039   1.371   .     S
C883   N1020   1.373   .     A
C884   N1009   1.374   .     A
C884   O1041   1.374   .     S
C884   C1640   1.413   .     S
C885   N1023   1.377   .     A
C885   O1042   1.374   .     S
C886   O1043   1.376   .     S
C886   C1591   1.411   .     S
C886   N1374   1.377   .     S
C887   O1044   1.368   .     S
C887   N1375   1.374   .     S
C888   O1045   1.373   .     S
C888   N1022   1.375   .     A
C888   C1589   1.414   .     S
C889   N1024   1.424   .     S
C889   C900    1.386   .     A
C889   C908    1.410   .     A
C890   C907    1.404   .     A
C890   C901    1.391   .     A
C890   N1025   1.425   .     S
C891   C898    1.385   .     A
C891   C907    1.404   .     A
C891   N1026   1.430   .     S
C892   C909    1.438   .     S
C892   O1040   1.302   .     A
C892   O1046   1.287   .     A
C893   C908    1.410   .     A
C893   N1027   1.428   .     S
C893   C899    1.392   .     A
C894   N1028   1.430   .     S
C894   C910    1.415   .     A
C894   C905    1.388   .     A
C895   C909    1.399   .     A
C895   C906    1.384   .     A
C895   N1010   1.428   .     S
C896   N1011   1.425   .     S
C896   C909    1.412   .     A
C896   C902    1.389   .     A
C897   N1012   1.425   .     S
C897   C910    1.398   .     A
C897   C904    1.381   .     A
C898   N1013   1.423   .     S
C898   C912    1.410   .     A
C899   C911    1.405   .     A
C899   N1014   1.427   .     S
C900   N1015   1.432   .     S
C900   C911    1.406   .     A
C901   N1016   1.426   .     S
C901   C912    1.407   .     A
C902   C915    1.408   .     A
C902   N1017   1.428   .     S
C903   C908    1.435   .     S
C903   O1048   1.291   .     A
C903   O1051   1.297   .     A
C904   N1018   1.425   .     S
C904   C913    1.415   .     A
C905   N1019   1.427   .     S
C905   C913    1.415   .     A
C906   N1021   1.415   .     S
C906   C915    1.413   .     A
C907   C914    1.424   .     S
C911   C935    1.425   .     S
C912   C934    1.437   .     S
C913   C933    1.446   .     S
C914   O1050   1.287   .     A
C914   O1049   1.294   .     A
C915   C925    1.442   .     S
C916   H939    1.108   .     S
C916   H938    1.111   .     S
C916   H940    1.111   .     S
C916   N1024   1.451   .     S
C917   H943    1.111   .     S
C917   H944    1.111   .     S
C917   N1025   1.448   .     S
C918   N1026   1.445   .     S
C918   H946    1.111   .     S
C918   H949    1.107   .     S
C918   H947    1.111   .     S
C919   H952    1.112   .     S
C919   H953    1.110   .     S
C919   N1027   1.450   .     S
C919   H951    1.109   .     S
C920   N1028   1.446   .     S
C920   H956    1.111   .     S
C920   H957    1.108   .     S
C920   H955    1.111   .     S
C921   N1010   1.446   .     S
C921   H961    1.110   .     S
C921   H962    1.110   .     S
C921   H960    1.110   .     S
C922   N1011   1.448   .     S
C922   H966    1.111   .     S
C922   H964    1.111   .     S
C922   H965    1.107   .     S
C923   H969    1.111   .     S
C923   H968    1.109   .     S
C923   N1012   1.447   .     S
C923   H971    1.112   .     S
C924   H973    1.111   .     S
C924   N1013   1.449   .     S
C924   H975    1.111   .     S
C924   H974    1.107   .     S
C925   O1052   1.295   .     A
C925   O1032   1.296   .     A
C926   H979    1.111   .     S
C926   H978    1.111   .     S
C926   N1014   1.448   .     S
C926   H977    1.110   .     S
C927   H982    1.111   .     S
C927   H984    1.106   .     S
C927   N1015   1.444   .     S
C927   H1335   1.111   1_545 S
C928   H987    1.112   .     S
C928   H986    1.108   .     S
C928   N1016   1.449   .     S
C928   H988    1.110   .     S
C929   N1017   1.450   .     S
C929   H993    1.112   .     S
C929   H990    1.111   .     S
C929   H1343   1.110   .     S
C930   H997    1.110   .     S
C930   H995    1.106   .     S
C930   H996    1.111   .     S
C930   N1018   1.449   .     S
C931   H999    1.110   .     S
C931   H1000   1.108   .     S
C931   H1001   1.110   .     S
C931   N1019   1.449   .     S
C932   H1006   1.112   .     S
C932   N1021   1.445   .     S
C932   H1005   1.109   .     S
C932   H1004   1.108   .     S
C933   O1030   1.295   .     A
C933   O1031   1.299   .     A
C934   O1033   1.291   .     A
C934   O1036   1.298   .     A
C935   O1034   1.295   .     A
C935   O1035   1.287   .     A
C936   N1020   1.380   .     A
C936   O1037   1.376   .     S
H937   O861    0.977   1_655 S
H941   N1025   1.029   .     S
H942   C741    1.106   1_655 S
H945   N1026   1.030   .     S
H948   O1038   0.977   .     S
H950   N1027   1.031   .     S
H954   N1028   1.030   .     S
H958   N1010   1.031   .     S
H959   O863    0.979   1_655 S
H963   N1011   1.029   .     S
H967   N1012   1.029   .     S
H970   O1041   0.979   .     S
H972   N1013   1.029   .     S
H976   N1014   1.029   .     S
H980   N1015   1.029   .     S
H981   O1042   0.980   .     S
H983   C1279   1.111   .     S
H985   N1016   1.031   .     S
H989   N1017   1.031   .     S
H991   C1281   1.110   1_545 S
H992   O1043   0.978   .     S
H994   N1018   1.031   .     S
H998   N1019   1.031   .     S
H1002  N1021   1.026   .     S
H1003  O1044   0.978   .     S
H1007  O1045   0.980   .     S
H1008  N1024   1.030   .     S
N1009  Zn1053  2.031   .     S
N1020  Zn1054  2.031   .     S
N1022  Zn1055  2.031   .     S
N1022  C1238   1.377   1_545 S
N1023  Zn1056  2.031   .     S
N1023  C1239   1.374   1_545 S
O1029  Zn1053  2.015   .     S
O1030  Zn1056  2.015   .     S
O1031  Zn1055  2.028   .     S
O1032  Zn1408  2.028   .     S
O1033  Zn1408  2.018   .     S
O1034  Zn1055  2.018   .     S
O1035  Zn1056  1.998   .     S
O1036  Zn1407  1.998   .     S
O1040  Zn878   2.015   1_655 S
O1046  Zn877   2.028   1_655 S
O1047  Zn1054  2.028   .     S
O1048  Zn878   2.018   1_655 S
O1049  Zn1053  2.018   .     S
O1050  Zn1054  1.998   .     S
O1051  Zn877   1.998   1_655 S
O1052  Zn1407  2.015   .     S
Zn1055 O1388   1.998   1_545 S
Zn1055 O1404   2.015   1_545 S
Zn1056 O1385   2.018   1_545 S
Zn1056 O1384   2.028   1_545 S
C1057  O1223   1.303   .     A
C1057  O1205   1.283   .     A
C1057  C1086   1.432   .     S
C1058  N1185   1.379   .     A
C1058  O1214   1.376   .     S
C1058  C1763   1.412   .     S
C1059  O1215   1.371   .     S
C1059  N1196   1.373   .     A
C1060  N1185   1.374   .     A
C1060  O1217   1.374   .     S
C1060  C1816   1.413   .     S
C1061  N1199   1.377   .     A
C1061  O1218   1.374   .     S
C1062  O1219   1.376   .     S
C1062  C1767   1.411   .     S
C1062  N846    1.377   1_565 S
C1063  O1220   1.368   .     S
C1063  N847    1.374   1_565 S
C1064  O1221   1.373   .     S
C1064  N1198   1.375   .     A
C1064  C1765   1.414   .     S
C1065  N1200   1.424   .     S
C1065  C1076   1.386   .     A
C1065  C1084   1.410   .     A
C1066  C1083   1.404   .     A
C1066  C1077   1.391   .     A
C1066  N1201   1.425   .     S
C1067  C1074   1.385   .     A
C1067  C1083   1.404   .     A
C1067  N1202   1.430   .     S
C1068  C1085   1.438   .     S
C1068  O1216   1.302   .     A
C1068  O1222   1.287   .     A
C1069  C1084   1.410   .     A
C1069  N1203   1.428   .     S
C1069  C1075   1.392   .     A
C1070  N1204   1.430   .     S
C1070  C1086   1.415   .     A
C1070  C1081   1.388   .     A
C1071  C1085   1.399   .     A
C1071  C1082   1.384   .     A
C1071  N1186   1.428   .     S
C1072  N1187   1.425   .     S
C1072  C1085   1.412   .     A
C1072  C1078   1.389   .     A
C1073  N1188   1.425   .     S
C1073  C1086   1.398   .     A
C1073  C1080   1.381   .     A
C1074  N1189   1.423   .     S
C1074  C1088   1.410   .     A
C1075  C1087   1.405   .     A
C1075  N1190   1.427   .     S
C1076  N1191   1.432   .     S
C1076  C1087   1.406   .     A
C1077  N1192   1.426   .     S
C1077  C1088   1.407   .     A
C1078  C1091   1.408   .     A
C1078  N1193   1.428   .     S
C1079  C1084   1.435   .     S
C1079  O1224   1.291   .     A
C1079  O1227   1.297   .     A
C1080  N1194   1.425   .     S
C1080  C1089   1.415   .     A
C1081  N1195   1.427   .     S
C1081  C1089   1.415   .     A
C1082  N1197   1.415   .     S
C1082  C1091   1.413   .     A
C1083  C1090   1.424   .     S
C1087  C1111   1.425   .     S
C1088  C1110   1.437   .     S
C1089  C1109   1.446   .     S
C1090  O1226   1.287   .     A
C1090  O1225   1.294   .     A
C1091  C1101   1.442   .     S
C1092  H1115   1.108   .     S
C1092  H1114   1.111   .     S
C1092  H1116   1.111   .     S
C1092  N1200   1.451   .     S
C1093  H1119   1.111   .     S
C1093  H1120   1.111   .     S
C1093  N1201   1.448   .     S
C1093  H1294   1.106   1_455 S
C1094  N1202   1.445   .     S
C1094  H1122   1.111   .     S
C1094  H1125   1.107   .     S
C1094  H1123   1.111   .     S
C1095  H1128   1.112   .     S
C1095  H1129   1.110   .     S
C1095  N1203   1.450   .     S
C1095  H1127   1.109   .     S
C1096  N1204   1.446   .     S
C1096  H1132   1.111   .     S
C1096  H1133   1.108   .     S
C1096  H1131   1.111   .     S
C1097  N1186   1.446   .     S
C1097  H1137   1.110   .     S
C1097  H1138   1.110   .     S
C1097  H1136   1.110   .     S
C1098  N1187   1.448   .     S
C1098  H1142   1.111   .     S
C1098  H1140   1.111   .     S
C1098  H1141   1.107   .     S
C1099  H1145   1.111   .     S
C1099  H1144   1.109   .     S
C1099  N1188   1.447   .     S
C1099  H1147   1.112   .     S
C1100  H1149   1.111   .     S
C1100  N1189   1.449   .     S
C1100  H1151   1.111   .     S
C1100  H1150   1.107   .     S
C1101  O1228   1.295   .     A
C1101  O1208   1.296   .     A
C1102  H1155   1.111   .     S
C1102  H1154   1.111   .     S
C1102  N1190   1.448   .     S
C1102  H1153   1.110   .     S
C1103  H1158   1.111   .     S
C1103  H1160   1.106   .     S
C1103  N1191   1.444   .     S
C1104  H1163   1.112   .     S
C1104  H1162   1.108   .     S
C1104  N1192   1.449   .     S
C1104  H1164   1.110   .     S
C1105  N1193   1.450   .     S
C1105  H1169   1.112   .     S
C1105  H1166   1.111   .     S
C1105  H815    1.110   1_565 S
C1106  H1173   1.110   .     S
C1106  H1171   1.106   .     S
C1106  H1172   1.111   .     S
C1106  N1194   1.449   .     S
C1107  H1175   1.110   .     S
C1107  H1176   1.108   .     S
C1107  H1177   1.110   .     S
C1107  N1195   1.449   .     S
C1108  H1182   1.112   .     S
C1108  N1197   1.445   .     S
C1108  H1181   1.109   .     S
C1108  H1180   1.108   .     S
C1109  O1206   1.295   .     A
C1109  O1207   1.299   .     A
C1110  O1209   1.291   .     A
C1110  O1212   1.298   .     A
C1111  O1210   1.295   .     A
C1111  O1211   1.287   .     A
C1112  N1196   1.380   .     A
C1112  O1213   1.376   .     S
H1113  O1389   0.977   .     S
H1117  N1201   1.029   .     S
H1118  C1269   1.106   .     S
H1121  N1202   1.030   .     S
H1124  O1214   0.977   .     S
H1126  N1203   1.031   .     S
H1130  N1204   1.030   .     S
H1134  N1186   1.031   .     S
H1135  O1391   0.979   .     S
H1139  N1187   1.029   .     S
H1143  N1188   1.029   .     S
H1146  O1217   0.979   .     S
H1148  N1189   1.029   .     S
H1152  N1190   1.029   .     S
H1156  N1191   1.029   .     S
H1157  O1218   0.980   .     S
H1159  C751    1.111   1_565 S
H1161  N1192   1.031   .     S
H1165  N1193   1.031   .     S
H1168  O1219   0.978   .     S
H1170  N1194   1.031   .     S
H1174  N1195   1.031   .     S
H1178  N1197   1.026   .     S
H1179  O1220   0.978   .     S
H1183  O1221   0.980   .     S
H1184  N1200   1.030   .     S
N1185  Zn1229  2.031   .     S
N1196  Zn1230  2.031   .     S
N1198  Zn1231  2.031   .     S
N1199  Zn1232  2.031   .     S
O1205  Zn1229  2.015   .     S
O1206  Zn1232  2.015   .     S
O1207  Zn1231  2.028   .     S
O1208  Zn880   2.028   1_565 S
O1209  Zn880   2.018   1_565 S
O1210  Zn1231  2.018   .     S
O1211  Zn1232  1.998   .     S
O1212  Zn879   1.998   1_565 S
O1213  H1289   0.977   1_455 S
O1215  H1311   0.979   1_455 S
O1216  Zn1406  2.015   .     S
O1222  Zn1405  2.028   .     S
O1223  Zn1230  2.028   .     S
O1224  Zn1406  2.018   .     S
O1225  Zn1229  2.018   .     S
O1226  Zn1230  1.998   .     S
O1227  Zn1405  1.998   .     S
O1228  Zn879   2.015   1_565 S
Zn1229 O1403   1.998   1_455 S
Zn1229 O1398   2.028   1_455 S
Zn1230 O1400   2.018   1_455 S
Zn1230 O1392   2.015   1_455 S
C1233  O1399   1.303   .     A
C1233  O1381   1.283   .     A
C1233  C1262   1.432   .     S
C1234  N1361   1.379   .     A
C1234  O1390   1.376   .     S
C1234  C1939   1.412   .     S
C1235  O1391   1.371   .     S
C1235  N1372   1.373   .     A
C1236  N1361   1.374   .     A
C1236  O1393   1.374   .     S
C1236  C1992   1.413   .     S
C1237  N1375   1.377   .     A
C1237  O1394   1.374   .     S
C1238  O1395   1.376   .     S
C1238  C1943   1.411   .     S
C1238  N1022   1.377   1_565 S
C1239  O1396   1.368   .     S
C1239  N1023   1.374   1_565 S
C1240  O1397   1.373   .     S
C1240  N1374   1.375   .     A
C1240  C1941   1.414   .     S
C1241  N1376   1.424   .     S
C1241  C1252   1.386   .     A
C1241  C1260   1.410   .     A
C1242  C1259   1.404   .     A
C1242  C1253   1.391   .     A
C1242  N1377   1.425   .     S
C1243  C1250   1.385   .     A
C1243  C1259   1.404   .     A
C1243  N1378   1.430   .     S
C1244  C1261   1.438   .     S
C1244  O1392   1.302   .     A
C1244  O1398   1.287   .     A
C1245  C1260   1.410   .     A
C1245  N1379   1.428   .     S
C1245  C1251   1.392   .     A
C1246  N1380   1.430   .     S
C1246  C1262   1.415   .     A
C1246  C1257   1.388   .     A
C1247  C1261   1.399   .     A
C1247  C1258   1.384   .     A
C1247  N1362   1.428   .     S
C1248  N1363   1.425   .     S
C1248  C1261   1.412   .     A
C1248  C1254   1.389   .     A
C1249  N1364   1.425   .     S
C1249  C1262   1.398   .     A
C1249  C1256   1.381   .     A
C1250  N1365   1.423   .     S
C1250  C1264   1.410   .     A
C1251  C1263   1.405   .     A
C1251  N1366   1.427   .     S
C1252  N1367   1.432   .     S
C1252  C1263   1.406   .     A
C1253  N1368   1.426   .     S
C1253  C1264   1.407   .     A
C1254  C1267   1.408   .     A
C1254  N1369   1.428   .     S
C1255  C1260   1.435   .     S
C1255  O1400   1.291   .     A
C1255  O1403   1.297   .     A
C1256  N1370   1.425   .     S
C1256  C1265   1.415   .     A
C1257  N1371   1.427   .     S
C1257  C1265   1.415   .     A
C1258  N1373   1.415   .     S
C1258  C1267   1.413   .     A
C1259  C1266   1.424   .     S
C1263  C1287   1.425   .     S
C1264  C1286   1.437   .     S
C1265  C1285   1.446   .     S
C1266  O1402   1.287   .     A
C1266  O1401   1.294   .     A
C1267  C1277   1.442   .     S
C1268  H1291   1.108   .     S
C1268  H1290   1.111   .     S
C1268  H1292   1.111   .     S
C1268  N1376   1.451   .     S
C1269  H1295   1.111   .     S
C1269  H1296   1.111   .     S
C1269  N1377   1.448   .     S
C1270  N1378   1.445   .     S
C1270  H1298   1.111   .     S
C1270  H1301   1.107   .     S
C1270  H1299   1.111   .     S
C1271  H1304   1.112   .     S
C1271  H1305   1.110   .     S
C1271  N1379   1.450   .     S
C1271  H1303   1.109   .     S
C1272  N1380   1.446   .     S
C1272  H1308   1.111   .     S
C1272  H1309   1.108   .     S
C1272  H1307   1.111   .     S
C1273  N1362   1.446   .     S
C1273  H1313   1.110   .     S
C1273  H1314   1.110   .     S
C1273  H1312   1.110   .     S
C1274  N1363   1.448   .     S
C1274  H1318   1.111   .     S
C1274  H1316   1.111   .     S
C1274  H1317   1.107   .     S
C1275  H1321   1.111   .     S
C1275  H1320   1.109   .     S
C1275  N1364   1.447   .     S
C1275  H1323   1.112   .     S
C1276  H1325   1.111   .     S
C1276  N1365   1.449   .     S
C1276  H1327   1.111   .     S
C1276  H1326   1.107   .     S
C1277  O1404   1.295   .     A
C1277  O1384   1.296   .     A
C1278  H1331   1.111   .     S
C1278  H1330   1.111   .     S
C1278  N1366   1.448   .     S
C1278  H1329   1.110   .     S
C1279  H1334   1.111   .     S
C1279  H1336   1.106   .     S
C1279  N1367   1.444   .     S
C1280  H1339   1.112   .     S
C1280  H1338   1.108   .     S
C1280  N1368   1.449   .     S
C1280  H1340   1.110   .     S
C1281  N1369   1.450   .     S
C1281  H1345   1.112   .     S
C1281  H1342   1.111   .     S
C1281  H991    1.110   1_565 S
C1282  H1349   1.110   .     S
C1282  H1347   1.106   .     S
C1282  H1348   1.111   .     S
C1282  N1370   1.449   .     S
C1283  H1351   1.110   .     S
C1283  H1352   1.108   .     S
C1283  H1353   1.110   .     S
C1283  N1371   1.449   .     S
C1284  H1358   1.112   .     S
C1284  N1373   1.445   .     S
C1284  H1357   1.109   .     S
C1284  H1356   1.108   .     S
C1285  O1382   1.295   .     A
C1285  O1383   1.299   .     A
C1286  O1385   1.291   .     A
C1286  O1388   1.298   .     A
C1287  O1386   1.295   .     A
C1287  O1387   1.287   .     A
C1288  N1372   1.380   .     A
C1288  O1389   1.376   .     S
H1289  O1213   0.977   1_655 S
H1293  N1377   1.029   .     S
H1294  C1093   1.106   1_655 S
H1297  N1378   1.030   .     S
H1300  O1390   0.977   .     S
H1302  N1379   1.031   .     S
H1306  N1380   1.030   .     S
H1310  N1362   1.031   .     S
H1311  O1215   0.979   1_655 S
H1315  N1363   1.029   .     S
H1319  N1364   1.029   .     S
H1322  O1393   0.979   .     S
H1324  N1365   1.029   .     S
H1328  N1366   1.029   .     S
H1332  N1367   1.029   .     S
H1333  O1394   0.980   .     S
H1335  C927    1.111   1_565 S
H1337  N1368   1.031   .     S
H1341  N1369   1.031   .     S
H1344  O1395   0.978   .     S
H1346  N1370   1.031   .     S
H1350  N1371   1.031   .     S
H1354  N1373   1.026   .     S
H1355  O1396   0.978   .     S
H1359  O1397   0.980   .     S
H1360  N1376   1.030   .     S
N1361  Zn1405  2.031   .     S
N1372  Zn1406  2.031   .     S
N1374  Zn1407  2.031   .     S
N1375  Zn1408  2.031   .     S
O1381  Zn1405  2.015   .     S
O1382  Zn1408  2.015   .     S
O1383  Zn1407  2.028   .     S
O1384  Zn1056  2.028   1_565 S
O1385  Zn1056  2.018   1_565 S
O1386  Zn1407  2.018   .     S
O1387  Zn1408  1.998   .     S
O1388  Zn1055  1.998   1_565 S
O1392  Zn1230  2.015   1_655 S
O1398  Zn1229  2.028   1_655 S
O1399  Zn1406  2.028   .     S
O1400  Zn1230  2.018   1_655 S
O1401  Zn1405  2.018   .     S
O1402  Zn1406  1.998   .     S
O1403  Zn1229  1.998   1_655 S
O1404  Zn1055  2.015   1_565 S
C1409  O1575   1.303   .     A
C1409  O1557   1.283   .     A
C1409  C1438   1.432   .     S
C1410  N1537   1.379   .     A
C1410  O1566   1.376   .     S
C1410  C3      1.412   1_556 S
C1411  O1567   1.371   .     S
C1411  N1548   1.373   .     A
C1412  N1537   1.374   .     A
C1412  O1569   1.374   .     S
C1412  C56     1.413   1_556 S
C1413  N1551   1.377   .     A
C1413  O1570   1.374   .     S
C1414  O1571   1.376   .     S
C1414  C7      1.411   1_556 S
C1414  N1902   1.377   .     S
C1415  O1572   1.368   .     S
C1415  N1903   1.374   .     S
C1416  O1573   1.373   .     S
C1416  N1550   1.375   .     A
C1416  C5      1.414   1_556 S
C1417  N1552   1.424   .     S
C1417  C1428   1.386   .     A
C1417  C1436   1.410   .     A
C1418  C1435   1.404   .     A
C1418  C1429   1.391   .     A
C1418  N1553   1.425   .     S
C1419  C1426   1.385   .     A
C1419  C1435   1.404   .     A
C1419  N1554   1.430   .     S
C1420  C1437   1.438   .     S
C1420  O1568   1.302   .     A
C1420  O1574   1.287   .     A
C1421  C1436   1.410   .     A
C1421  N1555   1.428   .     S
C1421  C1427   1.392   .     A
C1422  N1556   1.430   .     S
C1422  C1438   1.415   .     A
C1422  C1433   1.388   .     A
C1423  C1437   1.399   .     A
C1423  C1434   1.384   .     A
C1423  N1538   1.428   .     S
C1424  N1539   1.425   .     S
C1424  C1437   1.412   .     A
C1424  C1430   1.389   .     A
C1425  N1540   1.425   .     S
C1425  C1438   1.398   .     A
C1425  C1432   1.381   .     A
C1426  N1541   1.423   .     S
C1426  C1440   1.410   .     A
C1427  C1439   1.405   .     A
C1427  N1542   1.427   .     S
C1428  N1543   1.432   .     S
C1428  C1439   1.406   .     A
C1429  N1544   1.426   .     S
C1429  C1440   1.407   .     A
C1430  C1443   1.408   .     A
C1430  N1545   1.428   .     S
C1431  C1436   1.435   .     S
C1431  O1576   1.291   .     A
C1431  O1579   1.297   .     A
C1432  N1546   1.425   .     S
C1432  C1441   1.415   .     A
C1433  N1547   1.427   .     S
C1433  C1441   1.415   .     A
C1434  N1549   1.415   .     S
C1434  C1443   1.413   .     A
C1435  C1442   1.424   .     S
C1439  C1463   1.425   .     S
C1440  C1462   1.437   .     S
C1441  C1461   1.446   .     S
C1442  O1578   1.287   .     A
C1442  O1577   1.294   .     A
C1443  C1453   1.442   .     S
C1444  H1467   1.108   .     S
C1444  H1466   1.111   .     S
C1444  H1468   1.111   .     S
C1444  N1552   1.451   .     S
C1445  H1471   1.111   .     S
C1445  H1472   1.111   .     S
C1445  N1553   1.448   .     S
C1445  H1646   1.106   1_455 S
C1446  N1554   1.445   .     S
C1446  H1474   1.111   .     S
C1446  H1477   1.107   .     S
C1446  H1475   1.111   .     S
C1447  H1480   1.112   .     S
C1447  H1481   1.110   .     S
C1447  N1555   1.450   .     S
C1447  H1479   1.109   .     S
C1448  N1556   1.446   .     S
C1448  H1484   1.111   .     S
C1448  H1485   1.108   .     S
C1448  H1483   1.111   .     S
C1449  N1538   1.446   .     S
C1449  H1489   1.110   .     S
C1449  H1490   1.110   .     S
C1449  H1488   1.110   .     S
C1450  N1539   1.448   .     S
C1450  H1494   1.111   .     S
C1450  H1492   1.111   .     S
C1450  H1493   1.107   .     S
C1451  H1497   1.111   .     S
C1451  H1496   1.109   .     S
C1451  N1540   1.447   .     S
C1451  H1499   1.112   .     S
C1452  H1501   1.111   .     S
C1452  N1541   1.449   .     S
C1452  H1503   1.111   .     S
C1452  H1502   1.107   .     S
C1453  O1580   1.295   .     A
C1453  O1560   1.296   .     A
C1454  H1507   1.111   .     S
C1454  H1506   1.111   .     S
C1454  N1542   1.448   .     S
C1454  H1505   1.110   .     S
C1455  H1510   1.111   .     S
C1455  H1512   1.106   .     S
C1455  N1543   1.444   .     S
C1455  H1863   1.111   1_545 S
C1456  H1515   1.112   .     S
C1456  H1514   1.108   .     S
C1456  N1544   1.449   .     S
C1456  H1516   1.110   .     S
C1457  N1545   1.450   .     S
C1457  H1521   1.112   .     S
C1457  H1518   1.111   .     S
C1457  H1871   1.110   .     S
C1458  H1525   1.110   .     S
C1458  H1523   1.106   .     S
C1458  H1524   1.111   .     S
C1458  N1546   1.449   .     S
C1459  H1527   1.110   .     S
C1459  H1528   1.108   .     S
C1459  H1529   1.110   .     S
C1459  N1547   1.449   .     S
C1460  H1534   1.112   .     S
C1460  N1549   1.445   .     S
C1460  H1533   1.109   .     S
C1460  H1532   1.108   .     S
C1461  O1558   1.295   .     A
C1461  O1559   1.299   .     A
C1462  O1561   1.291   .     A
C1462  O1564   1.298   .     A
C1463  O1562   1.295   .     A
C1463  O1563   1.287   .     A
C1464  N1548   1.380   .     A
C1464  O1565   1.376   .     S
H1465  O1741   0.977   .     S
H1469  N1553   1.029   .     S
H1470  C1621   1.106   .     S
H1473  N1554   1.030   .     S
H1476  O1566   0.977   .     S
H1478  N1555   1.031   .     S
H1482  N1556   1.030   .     S
H1486  N1538   1.031   .     S
H1487  O1743   0.979   .     S
H1491  N1539   1.029   .     S
H1495  N1540   1.029   .     S
H1498  O1569   0.979   .     S
H1500  N1541   1.029   .     S
H1504  N1542   1.029   .     S
H1508  N1543   1.029   .     S
H1509  O1570   0.980   .     S
H1511  C1807   1.111   .     S
H1513  N1544   1.031   .     S
H1517  N1545   1.031   .     S
H1519  C1809   1.110   1_545 S
H1520  O1571   0.978   .     S
H1522  N1546   1.031   .     S
H1526  N1547   1.031   .     S
H1530  N1549   1.026   .     S
H1531  O1572   0.978   .     S
H1535  O1573   0.980   .     S
H1536  N1552   1.030   .     S
N1537  Zn1581  2.031   .     S
N1548  Zn1582  2.031   .     S
N1550  Zn1583  2.031   .     S
N1550  C1766   1.377   1_545 S
N1551  Zn1584  2.031   .     S
N1551  C1767   1.374   1_545 S
O1557  Zn1581  2.015   .     S
O1558  Zn1584  2.015   .     S
O1559  Zn1583  2.028   .     S
O1560  Zn1936  2.028   .     S
O1561  Zn1936  2.018   .     S
O1562  Zn1583  2.018   .     S
O1563  Zn1584  1.998   .     S
O1564  Zn1935  1.998   .     S
O1565  H1641   0.977   1_455 S
O1567  H1663   0.979   1_455 S
O1568  Zn1758  2.015   .     S
O1574  Zn1757  2.028   .     S
O1575  Zn1582  2.028   .     S
O1576  Zn1758  2.018   .     S
O1577  Zn1581  2.018   .     S
O1578  Zn1582  1.998   .     S
O1579  Zn1757  1.998   .     S
O1580  Zn1935  2.015   .     S
Zn1581 O1755   1.998   1_455 S
Zn1581 O1750   2.028   1_455 S
Zn1582 O1752   2.018   1_455 S
Zn1582 O1744   2.015   1_455 S
Zn1583 O1916   1.998   1_545 S
Zn1583 O1932   2.015   1_545 S
Zn1584 O1913   2.018   1_545 S
Zn1584 O1912   2.028   1_545 S
C1585  O1751   1.303   .     A
C1585  O1733   1.283   .     A
C1585  C1614   1.432   .     S
C1586  N1713   1.379   .     A
C1586  O1742   1.376   .     S
C1586  C179    1.412   1_556 S
C1587  O1743   1.371   .     S
C1587  N1724   1.373   .     A
C1588  N1713   1.374   .     A
C1588  O1745   1.374   .     S
C1588  C232    1.413   1_556 S
C1589  N1727   1.377   .     A
C1589  O1746   1.374   .     S
C1590  O1747   1.376   .     S
C1590  C183    1.411   1_556 S
C1590  N2078   1.377   .     S
C1591  O1748   1.368   .     S
C1591  N2079   1.374   .     S
C1592  O1749   1.373   .     S
C1592  N1726   1.375   .     A
C1592  C181    1.414   1_556 S
C1593  N1728   1.424   .     S
C1593  C1604   1.386   .     A
C1593  C1612   1.410   .     A
C1594  C1611   1.404   .     A
C1594  C1605   1.391   .     A
C1594  N1729   1.425   .     S
C1595  C1602   1.385   .     A
C1595  C1611   1.404   .     A
C1595  N1730   1.430   .     S
C1596  C1613   1.438   .     S
C1596  O1744   1.302   .     A
C1596  O1750   1.287   .     A
C1597  C1612   1.410   .     A
C1597  N1731   1.428   .     S
C1597  C1603   1.392   .     A
C1598  N1732   1.430   .     S
C1598  C1614   1.415   .     A
C1598  C1609   1.388   .     A
C1599  C1613   1.399   .     A
C1599  C1610   1.384   .     A
C1599  N1714   1.428   .     S
C1600  N1715   1.425   .     S
C1600  C1613   1.412   .     A
C1600  C1606   1.389   .     A
C1601  N1716   1.425   .     S
C1601  C1614   1.398   .     A
C1601  C1608   1.381   .     A
C1602  N1717   1.423   .     S
C1602  C1616   1.410   .     A
C1603  C1615   1.405   .     A
C1603  N1718   1.427   .     S
C1604  N1719   1.432   .     S
C1604  C1615   1.406   .     A
C1605  N1720   1.426   .     S
C1605  C1616   1.407   .     A
C1606  C1619   1.408   .     A
C1606  N1721   1.428   .     S
C1607  C1612   1.435   .     S
C1607  O1752   1.291   .     A
C1607  O1755   1.297   .     A
C1608  N1722   1.425   .     S
C1608  C1617   1.415   .     A
C1609  N1723   1.427   .     S
C1609  C1617   1.415   .     A
C1610  N1725   1.415   .     S
C1610  C1619   1.413   .     A
C1611  C1618   1.424   .     S
C1615  C1639   1.425   .     S
C1616  C1638   1.437   .     S
C1617  C1637   1.446   .     S
C1618  O1754   1.287   .     A
C1618  O1753   1.294   .     A
C1619  C1629   1.442   .     S
C1620  H1643   1.108   .     S
C1620  H1642   1.111   .     S
C1620  H1644   1.111   .     S
C1620  N1728   1.451   .     S
C1621  H1647   1.111   .     S
C1621  H1648   1.111   .     S
C1621  N1729   1.448   .     S
C1622  N1730   1.445   .     S
C1622  H1650   1.111   .     S
C1622  H1653   1.107   .     S
C1622  H1651   1.111   .     S
C1623  H1656   1.112   .     S
C1623  H1657   1.110   .     S
C1623  N1731   1.450   .     S
C1623  H1655   1.109   .     S
C1624  N1732   1.446   .     S
C1624  H1660   1.111   .     S
C1624  H1661   1.108   .     S
C1624  H1659   1.111   .     S
C1625  N1714   1.446   .     S
C1625  H1665   1.110   .     S
C1625  H1666   1.110   .     S
C1625  H1664   1.110   .     S
C1626  N1715   1.448   .     S
C1626  H1670   1.111   .     S
C1626  H1668   1.111   .     S
C1626  H1669   1.107   .     S
C1627  H1673   1.111   .     S
C1627  H1672   1.109   .     S
C1627  N1716   1.447   .     S
C1627  H1675   1.112   .     S
C1628  H1677   1.111   .     S
C1628  N1717   1.449   .     S
C1628  H1679   1.111   .     S
C1628  H1678   1.107   .     S
C1629  O1756   1.295   .     A
C1629  O1736   1.296   .     A
C1630  H1683   1.111   .     S
C1630  H1682   1.111   .     S
C1630  N1718   1.448   .     S
C1630  H1681   1.110   .     S
C1631  H1686   1.111   .     S
C1631  H1688   1.106   .     S
C1631  N1719   1.444   .     S
C1631  H2039   1.111   1_545 S
C1632  H1691   1.112   .     S
C1632  H1690   1.108   .     S
C1632  N1720   1.449   .     S
C1632  H1692   1.110   .     S
C1633  N1721   1.450   .     S
C1633  H1697   1.112   .     S
C1633  H1694   1.111   .     S
C1633  H2047   1.110   .     S
C1634  H1701   1.110   .     S
C1634  H1699   1.106   .     S
C1634  H1700   1.111   .     S
C1634  N1722   1.449   .     S
C1635  H1703   1.110   .     S
C1635  H1704   1.108   .     S
C1635  H1705   1.110   .     S
C1635  N1723   1.449   .     S
C1636  H1710   1.112   .     S
C1636  N1725   1.445   .     S
C1636  H1709   1.109   .     S
C1636  H1708   1.108   .     S
C1637  O1734   1.295   .     A
C1637  O1735   1.299   .     A
C1638  O1737   1.291   .     A
C1638  O1740   1.298   .     A
C1639  O1738   1.295   .     A
C1639  O1739   1.287   .     A
C1640  N1724   1.380   .     A
C1640  O1741   1.376   .     S
H1641  O1565   0.977   1_655 S
H1645  N1729   1.029   .     S
H1646  C1445   1.106   1_655 S
H1649  N1730   1.030   .     S
H1652  O1742   0.977   .     S
H1654  N1731   1.031   .     S
H1658  N1732   1.030   .     S
H1662  N1714   1.031   .     S
H1663  O1567   0.979   1_655 S
H1667  N1715   1.029   .     S
H1671  N1716   1.029   .     S
H1674  O1745   0.979   .     S
H1676  N1717   1.029   .     S
H1680  N1718   1.029   .     S
H1684  N1719   1.029   .     S
H1685  O1746   0.980   .     S
H1687  C1983   1.111   .     S
H1689  N1720   1.031   .     S
H1693  N1721   1.031   .     S
H1695  C1985   1.110   1_545 S
H1696  O1747   0.978   .     S
H1698  N1722   1.031   .     S
H1702  N1723   1.031   .     S
H1706  N1725   1.026   .     S
H1707  O1748   0.978   .     S
H1711  O1749   0.980   .     S
H1712  N1728   1.030   .     S
N1713  Zn1757  2.031   .     S
N1724  Zn1758  2.031   .     S
N1726  Zn1759  2.031   .     S
N1726  C1942   1.377   1_545 S
N1727  Zn1760  2.031   .     S
N1727  C1943   1.374   1_545 S
O1733  Zn1757  2.015   .     S
O1734  Zn1760  2.015   .     S
O1735  Zn1759  2.028   .     S
O1736  Zn2112  2.028   .     S
O1737  Zn2112  2.018   .     S
O1738  Zn1759  2.018   .     S
O1739  Zn1760  1.998   .     S
O1740  Zn2111  1.998   .     S
O1744  Zn1582  2.015   1_655 S
O1750  Zn1581  2.028   1_655 S
O1751  Zn1758  2.028   .     S
O1752  Zn1582  2.018   1_655 S
O1753  Zn1757  2.018   .     S
O1754  Zn1758  1.998   .     S
O1755  Zn1581  1.998   1_655 S
O1756  Zn2111  2.015   .     S
Zn1759 O2092   1.998   1_545 S
Zn1759 O2108   2.015   1_545 S
Zn1760 O2089   2.018   1_545 S
Zn1760 O2088   2.028   1_545 S
C1761  O1927   1.303   .     A
C1761  O1909   1.283   .     A
C1761  C1790   1.432   .     S
C1762  N1889   1.379   .     A
C1762  O1918   1.376   .     S
C1762  C355    1.412   1_556 S
C1763  O1919   1.371   .     S
C1763  N1900   1.373   .     A
C1764  N1889   1.374   .     A
C1764  O1921   1.374   .     S
C1764  C408    1.413   1_556 S
C1765  N1903   1.377   .     A
C1765  O1922   1.374   .     S
C1766  O1923   1.376   .     S
C1766  C359    1.411   1_556 S
C1766  N1550   1.377   1_565 S
C1767  O1924   1.368   .     S
C1767  N1551   1.374   1_565 S
C1768  O1925   1.373   .     S
C1768  N1902   1.375   .     A
C1768  C357    1.414   1_556 S
C1769  N1904   1.424   .     S
C1769  C1780   1.386   .     A
C1769  C1788   1.410   .     A
C1770  C1787   1.404   .     A
C1770  C1781   1.391   .     A
C1770  N1905   1.425   .     S
C1771  C1778   1.385   .     A
C1771  C1787   1.404   .     A
C1771  N1906   1.430   .     S
C1772  C1789   1.438   .     S
C1772  O1920   1.302   .     A
C1772  O1926   1.287   .     A
C1773  C1788   1.410   .     A
C1773  N1907   1.428   .     S
C1773  C1779   1.392   .     A
C1774  N1908   1.430   .     S
C1774  C1790   1.415   .     A
C1774  C1785   1.388   .     A
C1775  C1789   1.399   .     A
C1775  C1786   1.384   .     A
C1775  N1890   1.428   .     S
C1776  N1891   1.425   .     S
C1776  C1789   1.412   .     A
C1776  C1782   1.389   .     A
C1777  N1892   1.425   .     S
C1777  C1790   1.398   .     A
C1777  C1784   1.381   .     A
C1778  N1893   1.423   .     S
C1778  C1792   1.410   .     A
C1779  C1791   1.405   .     A
C1779  N1894   1.427   .     S
C1780  N1895   1.432   .     S
C1780  C1791   1.406   .     A
C1781  N1896   1.426   .     S
C1781  C1792   1.407   .     A
C1782  C1795   1.408   .     A
C1782  N1897   1.428   .     S
C1783  C1788   1.435   .     S
C1783  O1928   1.291   .     A
C1783  O1931   1.297   .     A
C1784  N1898   1.425   .     S
C1784  C1793   1.415   .     A
C1785  N1899   1.427   .     S
C1785  C1793   1.415   .     A
C1786  N1901   1.415   .     S
C1786  C1795   1.413   .     A
C1787  C1794   1.424   .     S
C1791  C1815   1.425   .     S
C1792  C1814   1.437   .     S
C1793  C1813   1.446   .     S
C1794  O1930   1.287   .     A
C1794  O1929   1.294   .     A
C1795  C1805   1.442   .     S
C1796  H1819   1.108   .     S
C1796  H1818   1.111   .     S
C1796  H1820   1.111   .     S
C1796  N1904   1.451   .     S
C1797  H1823   1.111   .     S
C1797  H1824   1.111   .     S
C1797  N1905   1.448   .     S
C1797  H1998   1.106   1_455 S
C1798  N1906   1.445   .     S
C1798  H1826   1.111   .     S
C1798  H1829   1.107   .     S
C1798  H1827   1.111   .     S
C1799  H1832   1.112   .     S
C1799  H1833   1.110   .     S
C1799  N1907   1.450   .     S
C1799  H1831   1.109   .     S
C1800  N1908   1.446   .     S
C1800  H1836   1.111   .     S
C1800  H1837   1.108   .     S
C1800  H1835   1.111   .     S
C1801  N1890   1.446   .     S
C1801  H1841   1.110   .     S
C1801  H1842   1.110   .     S
C1801  H1840   1.110   .     S
C1802  N1891   1.448   .     S
C1802  H1846   1.111   .     S
C1802  H1844   1.111   .     S
C1802  H1845   1.107   .     S
C1803  H1849   1.111   .     S
C1803  H1848   1.109   .     S
C1803  N1892   1.447   .     S
C1803  H1851   1.112   .     S
C1804  H1853   1.111   .     S
C1804  N1893   1.449   .     S
C1804  H1855   1.111   .     S
C1804  H1854   1.107   .     S
C1805  O1932   1.295   .     A
C1805  O1912   1.296   .     A
C1806  H1859   1.111   .     S
C1806  H1858   1.111   .     S
C1806  N1894   1.448   .     S
C1806  H1857   1.110   .     S
C1807  H1862   1.111   .     S
C1807  H1864   1.106   .     S
C1807  N1895   1.444   .     S
C1808  H1867   1.112   .     S
C1808  H1866   1.108   .     S
C1808  N1896   1.449   .     S
C1808  H1868   1.110   .     S
C1809  N1897   1.450   .     S
C1809  H1873   1.112   .     S
C1809  H1870   1.111   .     S
C1809  H1519   1.110   1_565 S
C1810  H1877   1.110   .     S
C1810  H1875   1.106   .     S
C1810  H1876   1.111   .     S
C1810  N1898   1.449   .     S
C1811  H1879   1.110   .     S
C1811  H1880   1.108   .     S
C1811  H1881   1.110   .     S
C1811  N1899   1.449   .     S
C1812  H1886   1.112   .     S
C1812  N1901   1.445   .     S
C1812  H1885   1.109   .     S
C1812  H1884   1.108   .     S
C1813  O1910   1.295   .     A
C1813  O1911   1.299   .     A
C1814  O1913   1.291   .     A
C1814  O1916   1.298   .     A
C1815  O1914   1.295   .     A
C1815  O1915   1.287   .     A
C1816  N1900   1.380   .     A
C1816  O1917   1.376   .     S
H1817  O2093   0.977   .     S
H1821  N1905   1.029   .     S
H1822  C1973   1.106   .     S
H1825  N1906   1.030   .     S
H1828  O1918   0.977   .     S
H1830  N1907   1.031   .     S
H1834  N1908   1.030   .     S
H1838  N1890   1.031   .     S
H1839  O2095   0.979   .     S
H1843  N1891   1.029   .     S
H1847  N1892   1.029   .     S
H1850  O1921   0.979   .     S
H1852  N1893   1.029   .     S
H1856  N1894   1.029   .     S
H1860  N1895   1.029   .     S
H1861  O1922   0.980   .     S
H1863  C1455   1.111   1_565 S
H1865  N1896   1.031   .     S
H1869  N1897   1.031   .     S
H1872  O1923   0.978   .     S
H1874  N1898   1.031   .     S
H1878  N1899   1.031   .     S
H1882  N1901   1.026   .     S
H1883  O1924   0.978   .     S
H1887  O1925   0.980   .     S
H1888  N1904   1.030   .     S
N1889  Zn1933  2.031   .     S
N1900  Zn1934  2.031   .     S
N1902  Zn1935  2.031   .     S
N1903  Zn1936  2.031   .     S
O1909  Zn1933  2.015   .     S
O1910  Zn1936  2.015   .     S
O1911  Zn1935  2.028   .     S
O1912  Zn1584  2.028   1_565 S
O1913  Zn1584  2.018   1_565 S
O1914  Zn1935  2.018   .     S
O1915  Zn1936  1.998   .     S
O1916  Zn1583  1.998   1_565 S
O1917  H1993   0.977   1_455 S
O1919  H2015   0.979   1_455 S
O1920  Zn2110  2.015   .     S
O1926  Zn2109  2.028   .     S
O1927  Zn1934  2.028   .     S
O1928  Zn2110  2.018   .     S
O1929  Zn1933  2.018   .     S
O1930  Zn1934  1.998   .     S
O1931  Zn2109  1.998   .     S
O1932  Zn1583  2.015   1_565 S
Zn1933 O2107   1.998   1_455 S
Zn1933 O2102   2.028   1_455 S
Zn1934 O2104   2.018   1_455 S
Zn1934 O2096   2.015   1_455 S
C1937  O2103   1.303   .     A
C1937  O2085   1.283   .     A
C1937  C1966   1.432   .     S
C1938  N2065   1.379   .     A
C1938  O2094   1.376   .     S
C1938  C531    1.412   1_556 S
C1939  O2095   1.371   .     S
C1939  N2076   1.373   .     A
C1940  N2065   1.374   .     A
C1940  O2097   1.374   .     S
C1940  C584    1.413   1_556 S
C1941  N2079   1.377   .     A
C1941  O2098   1.374   .     S
C1942  O2099   1.376   .     S
C1942  C535    1.411   1_556 S
C1942  N1726   1.377   1_565 S
C1943  O2100   1.368   .     S
C1943  N1727   1.374   1_565 S
C1944  O2101   1.373   .     S
C1944  N2078   1.375   .     A
C1944  C533    1.414   1_556 S
C1945  N2080   1.424   .     S
C1945  C1956   1.386   .     A
C1945  C1964   1.410   .     A
C1946  C1963   1.404   .     A
C1946  C1957   1.391   .     A
C1946  N2081   1.425   .     S
C1947  C1954   1.385   .     A
C1947  C1963   1.404   .     A
C1947  N2082   1.430   .     S
C1948  C1965   1.438   .     S
C1948  O2096   1.302   .     A
C1948  O2102   1.287   .     A
C1949  C1964   1.410   .     A
C1949  N2083   1.428   .     S
C1949  C1955   1.392   .     A
C1950  N2084   1.430   .     S
C1950  C1966   1.415   .     A
C1950  C1961   1.388   .     A
C1951  C1965   1.399   .     A
C1951  C1962   1.384   .     A
C1951  N2066   1.428   .     S
C1952  N2067   1.425   .     S
C1952  C1965   1.412   .     A
C1952  C1958   1.389   .     A
C1953  N2068   1.425   .     S
C1953  C1966   1.398   .     A
C1953  C1960   1.381   .     A
C1954  N2069   1.423   .     S
C1954  C1968   1.410   .     A
C1955  C1967   1.405   .     A
C1955  N2070   1.427   .     S
C1956  N2071   1.432   .     S
C1956  C1967   1.406   .     A
C1957  N2072   1.426   .     S
C1957  C1968   1.407   .     A
C1958  C1971   1.408   .     A
C1958  N2073   1.428   .     S
C1959  C1964   1.435   .     S
C1959  O2104   1.291   .     A
C1959  O2107   1.297   .     A
C1960  N2074   1.425   .     S
C1960  C1969   1.415   .     A
C1961  N2075   1.427   .     S
C1961  C1969   1.415   .     A
C1962  N2077   1.415   .     S
C1962  C1971   1.413   .     A
C1963  C1970   1.424   .     S
C1967  C1991   1.425   .     S
C1968  C1990   1.437   .     S
C1969  C1989   1.446   .     S
C1970  O2106   1.287   .     A
C1970  O2105   1.294   .     A
C1971  C1981   1.442   .     S
C1972  H1995   1.108   .     S
C1972  H1994   1.111   .     S
C1972  H1996   1.111   .     S
C1972  N2080   1.451   .     S
C1973  H1999   1.111   .     S
C1973  H2000   1.111   .     S
C1973  N2081   1.448   .     S
C1974  N2082   1.445   .     S
C1974  H2002   1.111   .     S
C1974  H2005   1.107   .     S
C1974  H2003   1.111   .     S
C1975  H2008   1.112   .     S
C1975  H2009   1.110   .     S
C1975  N2083   1.450   .     S
C1975  H2007   1.109   .     S
C1976  N2084   1.446   .     S
C1976  H2012   1.111   .     S
C1976  H2013   1.108   .     S
C1976  H2011   1.111   .     S
C1977  N2066   1.446   .     S
C1977  H2017   1.110   .     S
C1977  H2018   1.110   .     S
C1977  H2016   1.110   .     S
C1978  N2067   1.448   .     S
C1978  H2022   1.111   .     S
C1978  H2020   1.111   .     S
C1978  H2021   1.107   .     S
C1979  H2025   1.111   .     S
C1979  H2024   1.109   .     S
C1979  N2068   1.447   .     S
C1979  H2027   1.112   .     S
C1980  H2029   1.111   .     S
C1980  N2069   1.449   .     S
C1980  H2031   1.111   .     S
C1980  H2030   1.107   .     S
C1981  O2108   1.295   .     A
C1981  O2088   1.296   .     A
C1982  H2035   1.111   .     S
C1982  H2034   1.111   .     S
C1982  N2070   1.448   .     S
C1982  H2033   1.110   .     S
C1983  H2038   1.111   .     S
C1983  H2040   1.106   .     S
C1983  N2071   1.444   .     S
C1984  H2043   1.112   .     S
C1984  H2042   1.108   .     S
C1984  N2072   1.449   .     S
C1984  H2044   1.110   .     S
C1985  N2073   1.450   .     S
C1985  H2049   1.112   .     S
C1985  H2046   1.111   .     S
C1985  H1695   1.110   1_565 S
C1986  H2053   1.110   .     S
C1986  H2051   1.106   .     S
C1986  H2052   1.111   .     S
C1986  N2074   1.449   .     S
C1987  H2055   1.110   .     S
C1987  H2056   1.108   .     S
C1987  H2057   1.110   .     S
C1987  N2075   1.449   .     S
C1988  H2062   1.112   .     S
C1988  N2077   1.445   .     S
C1988  H2061   1.109   .     S
C1988  H2060   1.108   .     S
C1989  O2086   1.295   .     A
C1989  O2087   1.299   .     A
C1990  O2089   1.291   .     A
C1990  O2092   1.298   .     A
C1991  O2090   1.295   .     A
C1991  O2091   1.287   .     A
C1992  N2076   1.380   .     A
C1992  O2093   1.376   .     S
H1993  O1917   0.977   1_655 S
H1997  N2081   1.029   .     S
H1998  C1797   1.106   1_655 S
H2001  N2082   1.030   .     S
H2004  O2094   0.977   .     S
H2006  N2083   1.031   .     S
H2010  N2084   1.030   .     S
H2014  N2066   1.031   .     S
H2015  O1919   0.979   1_655 S
H2019  N2067   1.029   .     S
H2023  N2068   1.029   .     S
H2026  O2097   0.979   .     S
H2028  N2069   1.029   .     S
H2032  N2070   1.029   .     S
H2036  N2071   1.029   .     S
H2037  O2098   0.980   .     S
H2039  C1631   1.111   1_565 S
H2041  N2072   1.031   .     S
H2045  N2073   1.031   .     S
H2048  O2099   0.978   .     S
H2050  N2074   1.031   .     S
H2054  N2075   1.031   .     S
H2058  N2077   1.026   .     S
H2059  O2100   0.978   .     S
H2063  O2101   0.980   .     S
H2064  N2080   1.030   .     S
N2065  Zn2109  2.031   .     S
N2076  Zn2110  2.031   .     S
N2078  Zn2111  2.031   .     S
N2079  Zn2112  2.031   .     S
O2085  Zn2109  2.015   .     S
O2086  Zn2112  2.015   .     S
O2087  Zn2111  2.028   .     S
O2088  Zn1760  2.028   1_565 S
O2089  Zn1760  2.018   1_565 S
O2090  Zn2111  2.018   .     S
O2091  Zn2112  1.998   .     S
O2092  Zn1759  1.998   1_565 S
O2096  Zn1934  2.015   1_655 S
O2102  Zn1933  2.028   1_655 S
O2103  Zn2110  2.028   .     S
O2104  Zn1934  2.018   1_655 S
O2105  Zn2109  2.018   .     S
O2106  Zn2110  1.998   .     S
O2107  Zn1933  1.998   1_655 S
O2108  Zn1759  2.015   1_565 S
