data_str_m3_o1_o18_pcu_sym.39
_audit_creation_date              2020-01-03
_audit_creation_method            'Materials Studio'
_symmetry_space_group_name_H-M    'P1'
_symmetry_Int_Tables_number       1
_symmetry_cell_setting            triclinic
loop_
_symmetry_equiv_pos_as_xyz
  x,y,z
_cell_length_a                    29.6565
_cell_length_b                    31.8686
_cell_length_c                    30.8975
_cell_angle_alpha                 90.2892
_cell_angle_beta                  67.2193
_cell_angle_gamma                 89.9979
loop_
_atom_site_label
_atom_site_type_symbol
_atom_site_fract_x
_atom_site_fract_y
_atom_site_fract_z
_atom_site_U_iso_or_equiv
_atom_site_adp_type
_atom_site_occupancy
C1     C     0.16700   0.24654   0.24918   0.00000  Uiso   1.00
C2     C     0.15871   0.31215   0.21339   0.00000  Uiso   1.00
C3     C     0.16627   0.04268   0.25098   0.00000  Uiso   1.00
C4     C     0.16706   0.29065   0.24902   0.00000  Uiso   1.00
C5     C     0.31944   0.13720   0.22510   0.00000  Uiso   1.00
C6     C     0.01390   0.19614   0.27489   0.00000  Uiso   1.00
C7     C     0.03400   0.13728   0.22498   0.00000  Uiso   1.00
C8     C     0.29933   0.19606   0.27502   0.00000  Uiso   1.00
C9     C     0.13593   0.16655   0.33805   0.00000  Uiso   1.00
C10    C     0.19740   0.16677   0.16195   0.00000  Uiso   1.00
C11    C     0.11631   0.16198   0.38875   0.00000  Uiso   1.00
C12    C     0.16634   0.08679   0.25082   0.00000  Uiso   1.00
C13    C     0.21702   0.17128   0.11125   0.00000  Uiso   1.00
C14    C     0.06491   0.12440   0.45836   0.00000  Uiso   1.00
C15    C     0.26848   0.20878   0.04159   0.00000  Uiso   1.00
C16    C     0.07806   0.13436   0.41108   0.00000  Uiso   1.00
C17    C     0.25534   0.19883   0.08887   0.00000  Uiso   1.00
C18    C     0.14238   0.17938   0.41298   0.00000  Uiso   1.00
C19    C     0.19090   0.15392   0.08704   0.00000  Uiso   1.00
C20    C     0.13612   0.16416   0.45739   0.00000  Uiso   1.00
C21    C     0.19717   0.16911   0.04262   0.00000  Uiso   1.00
C22    C     0.09293   0.14080   0.48314   0.00000  Uiso   1.00
C23    C     0.11361   0.14823   0.05145   0.00000  Uiso   1.00
C24    C     0.24040   0.19242   0.01684   0.00000  Uiso   1.00
C25    C     0.17202   0.17142   0.47640   0.00000  Uiso   1.00
C26    C     0.16126   0.16185   0.02362   0.00000  Uiso   1.00
C27    C     0.21965   0.18505   0.44857   0.00000  Uiso   1.00
C28    C     0.08039   0.13619   0.03195   0.00000  Uiso   1.00
C29    C     0.25291   0.19705   0.46804   0.00000  Uiso   1.00
C30    C     0.17508   0.31135   0.28533   0.00000  Uiso   1.00
C31    C     0.15825   0.02198   0.21467   0.00000  Uiso   1.00
C32    C     0.17463   0.02118   0.28661   0.00000  Uiso   1.00
F33    F     0.16065   0.12114   0.10686   0.00000  Uiso   1.00
F34    F     0.17252   0.21222   0.39323   0.00000  Uiso   1.00
F35    F     0.18199   0.28943   0.31991   0.00000  Uiso   1.00
F36    F     0.15135   0.04391   0.18008   0.00000  Uiso   1.00
F37    F     0.30688   0.10741   0.20042   0.00000  Uiso   1.00
F38    F     0.02646   0.22596   0.29955   0.00000  Uiso   1.00
F39    F     0.06667   0.10787   0.19961   0.00000  Uiso   1.00
F40    F     0.26666   0.22547   0.30038   0.00000  Uiso   1.00
H41    H     0.27401   0.21377   0.10881   0.00000  Uiso   1.00
H42    H     0.05944   0.11938   0.39111   0.00000  Uiso   1.00
H43    H     0.10058   0.14823   0.08925   0.00000  Uiso   1.00
H44    H     0.23265   0.18511   0.41077   0.00000  Uiso   1.00
I45    I     0.01041   0.12092   0.08347   0.00000  Uiso   1.00
I46    I     0.32287   0.21232   0.41647   0.00000  Uiso   1.00
I47    I     0.01154   0.07589   0.48067   0.00000  Uiso   1.00
I48    I     0.32200   0.25719   0.01925   0.00000  Uiso   1.00
I49    I     0.18381   0.05188   0.34413   0.00000  Uiso   1.00
I50    I     0.14954   0.28145   0.15586   0.00000  Uiso   1.00
N51    N     0.04759   0.16668   0.25001   0.00000  Uiso   1.00
N52    N     0.28574   0.16666   0.24999   0.00000  Uiso   1.00
O53    O     0.12846   0.22775   0.25000   0.00000  Uiso   1.00
O54    O     0.20488   0.10558   0.24999   0.00000  Uiso   1.00
O55    O     0.20490   0.22774   0.25000   0.00000  Uiso   1.00
O56    O     0.12843   0.10559   0.25000   0.00000  Uiso   1.00
O57    O     0.10661   0.16667   0.31612   0.00000  Uiso   1.00
O58    O     0.22672   0.16666   0.18387   0.00000  Uiso   1.00
O59    O     0.18305   0.16666   0.31612   0.00000  Uiso   1.00
O60    O     0.15028   0.16667   0.18388   0.00000  Uiso   1.00
Zn61   Zn    0.11562   0.16667   0.25000   0.00000  Uiso   1.00
Zn62   Zn    0.21771   0.16666   0.25000   0.00000  Uiso   1.00
C63    C     0.50033   0.24654   0.24918   0.00000  Uiso   1.00
C64    C     0.49204   0.31215   0.21339   0.00000  Uiso   1.00
C65    C     0.49961   0.04268   0.25098   0.00000  Uiso   1.00
C66    C     0.50039   0.29065   0.24902   0.00000  Uiso   1.00
C67    C     0.65277   0.13720   0.22510   0.00000  Uiso   1.00
C68    C     0.34723   0.19614   0.27489   0.00000  Uiso   1.00
C69    C     0.36733   0.13728   0.22498   0.00000  Uiso   1.00
C70    C     0.63267   0.19606   0.27502   0.00000  Uiso   1.00
C71    C     0.46926   0.16655   0.33805   0.00000  Uiso   1.00
C72    C     0.53074   0.16677   0.16195   0.00000  Uiso   1.00
C73    C     0.44964   0.16198   0.38875   0.00000  Uiso   1.00
C74    C     0.49967   0.08679   0.25082   0.00000  Uiso   1.00
C75    C     0.55036   0.17128   0.11125   0.00000  Uiso   1.00
C76    C     0.39824   0.12440   0.45836   0.00000  Uiso   1.00
C77    C     0.60181   0.20878   0.04159   0.00000  Uiso   1.00
C78    C     0.41139   0.13436   0.41108   0.00000  Uiso   1.00
C79    C     0.58867   0.19883   0.08887   0.00000  Uiso   1.00
C80    C     0.47571   0.17938   0.41298   0.00000  Uiso   1.00
C81    C     0.52423   0.15392   0.08704   0.00000  Uiso   1.00
C82    C     0.46945   0.16416   0.45739   0.00000  Uiso   1.00
C83    C     0.53051   0.16911   0.04262   0.00000  Uiso   1.00
C84    C     0.42627   0.14080   0.48314   0.00000  Uiso   1.00
C85    C     0.44695   0.14823   0.05145   0.00000  Uiso   1.00
C86    C     0.57374   0.19242   0.01684   0.00000  Uiso   1.00
C87    C     0.50535   0.17142   0.47640   0.00000  Uiso   1.00
C88    C     0.49460   0.16185   0.02362   0.00000  Uiso   1.00
C89    C     0.55299   0.18505   0.44857   0.00000  Uiso   1.00
C90    C     0.41372   0.13619   0.03195   0.00000  Uiso   1.00
C91    C     0.58625   0.19705   0.46804   0.00000  Uiso   1.00
C92    C     0.50841   0.31135   0.28533   0.00000  Uiso   1.00
C93    C     0.49159   0.02198   0.21467   0.00000  Uiso   1.00
C94    C     0.50796   0.02118   0.28661   0.00000  Uiso   1.00
F95    F     0.49399   0.12114   0.10686   0.00000  Uiso   1.00
F96    F     0.50586   0.21222   0.39323   0.00000  Uiso   1.00
F97    F     0.51532   0.28943   0.31991   0.00000  Uiso   1.00
F98    F     0.48468   0.04391   0.18008   0.00000  Uiso   1.00
F99    F     0.64022   0.10741   0.20042   0.00000  Uiso   1.00
F100   F     0.35979   0.22596   0.29955   0.00000  Uiso   1.00
F101   F     0.40001   0.10787   0.19961   0.00000  Uiso   1.00
F102   F     0.59999   0.22547   0.30038   0.00000  Uiso   1.00
H103   H     0.60735   0.21377   0.10881   0.00000  Uiso   1.00
H104   H     0.39277   0.11938   0.39111   0.00000  Uiso   1.00
H105   H     0.43391   0.14823   0.08925   0.00000  Uiso   1.00
H106   H     0.56598   0.18511   0.41077   0.00000  Uiso   1.00
I107   I     0.34375   0.12092   0.08347   0.00000  Uiso   1.00
I108   I     0.65620   0.21232   0.41647   0.00000  Uiso   1.00
I109   I     0.34487   0.07589   0.48067   0.00000  Uiso   1.00
I110   I     0.65533   0.25719   0.01925   0.00000  Uiso   1.00
I111   I     0.51714   0.05188   0.34413   0.00000  Uiso   1.00
I112   I     0.48287   0.28145   0.15586   0.00000  Uiso   1.00
N113   N     0.38093   0.16668   0.25001   0.00000  Uiso   1.00
N114   N     0.61907   0.16666   0.24999   0.00000  Uiso   1.00
O115   O     0.46179   0.22775   0.25000   0.00000  Uiso   1.00
O116   O     0.53821   0.10558   0.24999   0.00000  Uiso   1.00
O117   O     0.53823   0.22774   0.25000   0.00000  Uiso   1.00
O118   O     0.46177   0.10559   0.25000   0.00000  Uiso   1.00
O119   O     0.43994   0.16667   0.31612   0.00000  Uiso   1.00
O120   O     0.56006   0.16666   0.18387   0.00000  Uiso   1.00
O121   O     0.51639   0.16666   0.31612   0.00000  Uiso   1.00
O122   O     0.48361   0.16667   0.18388   0.00000  Uiso   1.00
Zn123  Zn    0.44896   0.16667   0.25000   0.00000  Uiso   1.00
Zn124  Zn    0.55104   0.16666   0.25000   0.00000  Uiso   1.00
C125   C     0.83366   0.24654   0.24918   0.00000  Uiso   1.00
C126   C     0.82537   0.31215   0.21339   0.00000  Uiso   1.00
C127   C     0.83294   0.04268   0.25098   0.00000  Uiso   1.00
C128   C     0.83373   0.29065   0.24902   0.00000  Uiso   1.00
C129   C     0.98611   0.13720   0.22510   0.00000  Uiso   1.00
C130   C     0.68056   0.19614   0.27489   0.00000  Uiso   1.00
C131   C     0.70067   0.13728   0.22498   0.00000  Uiso   1.00
C132   C     0.96600   0.19606   0.27502   0.00000  Uiso   1.00
C133   C     0.80259   0.16655   0.33805   0.00000  Uiso   1.00
C134   C     0.86407   0.16677   0.16195   0.00000  Uiso   1.00
C135   C     0.78297   0.16198   0.38875   0.00000  Uiso   1.00
C136   C     0.83300   0.08679   0.25082   0.00000  Uiso   1.00
C137   C     0.88369   0.17128   0.11125   0.00000  Uiso   1.00
C138   C     0.73158   0.12440   0.45836   0.00000  Uiso   1.00
C139   C     0.93515   0.20878   0.04159   0.00000  Uiso   1.00
C140   C     0.74473   0.13436   0.41108   0.00000  Uiso   1.00
C141   C     0.92200   0.19883   0.08887   0.00000  Uiso   1.00
C142   C     0.80904   0.17938   0.41298   0.00000  Uiso   1.00
C143   C     0.85756   0.15392   0.08704   0.00000  Uiso   1.00
C144   C     0.80279   0.16416   0.45739   0.00000  Uiso   1.00
C145   C     0.86384   0.16911   0.04262   0.00000  Uiso   1.00
C146   C     0.75960   0.14080   0.48314   0.00000  Uiso   1.00
C147   C     0.78028   0.14823   0.05145   0.00000  Uiso   1.00
C148   C     0.90707   0.19242   0.01684   0.00000  Uiso   1.00
C149   C     0.83869   0.17142   0.47640   0.00000  Uiso   1.00
C150   C     0.82793   0.16185   0.02362   0.00000  Uiso   1.00
C151   C     0.88632   0.18505   0.44857   0.00000  Uiso   1.00
C152   C     0.74705   0.13619   0.03195   0.00000  Uiso   1.00
C153   C     0.91958   0.19705   0.46804   0.00000  Uiso   1.00
C154   C     0.84175   0.31135   0.28533   0.00000  Uiso   1.00
C155   C     0.82492   0.02198   0.21467   0.00000  Uiso   1.00
C156   C     0.84130   0.02118   0.28661   0.00000  Uiso   1.00
F157   F     0.82732   0.12114   0.10686   0.00000  Uiso   1.00
F158   F     0.83919   0.21222   0.39323   0.00000  Uiso   1.00
F159   F     0.84866   0.28943   0.31991   0.00000  Uiso   1.00
F160   F     0.81801   0.04391   0.18008   0.00000  Uiso   1.00
F161   F     0.97355   0.10741   0.20042   0.00000  Uiso   1.00
F162   F     0.69313   0.22596   0.29955   0.00000  Uiso   1.00
F163   F     0.73334   0.10787   0.19961   0.00000  Uiso   1.00
F164   F     0.93333   0.22547   0.30038   0.00000  Uiso   1.00
H165   H     0.94068   0.21377   0.10881   0.00000  Uiso   1.00
H166   H     0.72611   0.11938   0.39111   0.00000  Uiso   1.00
H167   H     0.76725   0.14823   0.08925   0.00000  Uiso   1.00
H168   H     0.89931   0.18511   0.41077   0.00000  Uiso   1.00
I169   I     0.67708   0.12092   0.08347   0.00000  Uiso   1.00
I170   I     0.98953   0.21232   0.41647   0.00000  Uiso   1.00
I171   I     0.67821   0.07589   0.48067   0.00000  Uiso   1.00
I172   I     0.98867   0.25719   0.01925   0.00000  Uiso   1.00
I173   I     0.85047   0.05188   0.34413   0.00000  Uiso   1.00
I174   I     0.81621   0.28145   0.15586   0.00000  Uiso   1.00
N175   N     0.71426   0.16668   0.25001   0.00000  Uiso   1.00
N176   N     0.95241   0.16666   0.24999   0.00000  Uiso   1.00
O177   O     0.79512   0.22775   0.25000   0.00000  Uiso   1.00
O178   O     0.87154   0.10558   0.24999   0.00000  Uiso   1.00
O179   O     0.87157   0.22774   0.25000   0.00000  Uiso   1.00
O180   O     0.79510   0.10559   0.25000   0.00000  Uiso   1.00
O181   O     0.77328   0.16667   0.31612   0.00000  Uiso   1.00
O182   O     0.89339   0.16666   0.18387   0.00000  Uiso   1.00
O183   O     0.84972   0.16666   0.31612   0.00000  Uiso   1.00
O184   O     0.81695   0.16667   0.18388   0.00000  Uiso   1.00
Zn185  Zn    0.78229   0.16667   0.25000   0.00000  Uiso   1.00
Zn186  Zn    0.88438   0.16666   0.25000   0.00000  Uiso   1.00
C187   C     0.16700   0.57988   0.24918   0.00000  Uiso   1.00
C188   C     0.15871   0.64548   0.21339   0.00000  Uiso   1.00
C189   C     0.16627   0.37601   0.25098   0.00000  Uiso   1.00
C190   C     0.16706   0.62399   0.24902   0.00000  Uiso   1.00
C191   C     0.31944   0.47054   0.22510   0.00000  Uiso   1.00
C192   C     0.01390   0.52947   0.27489   0.00000  Uiso   1.00
C193   C     0.03400   0.47061   0.22498   0.00000  Uiso   1.00
C194   C     0.29933   0.52939   0.27502   0.00000  Uiso   1.00
C195   C     0.13593   0.49988   0.33805   0.00000  Uiso   1.00
C196   C     0.19740   0.50010   0.16195   0.00000  Uiso   1.00
C197   C     0.11631   0.49532   0.38875   0.00000  Uiso   1.00
C198   C     0.16634   0.42012   0.25082   0.00000  Uiso   1.00
C199   C     0.21702   0.50461   0.11125   0.00000  Uiso   1.00
C200   C     0.06491   0.45774   0.45836   0.00000  Uiso   1.00
C201   C     0.26848   0.54211   0.04159   0.00000  Uiso   1.00
C202   C     0.07806   0.46770   0.41108   0.00000  Uiso   1.00
C203   C     0.25534   0.53216   0.08887   0.00000  Uiso   1.00
C204   C     0.14238   0.51271   0.41298   0.00000  Uiso   1.00
C205   C     0.19090   0.48725   0.08704   0.00000  Uiso   1.00
C206   C     0.13612   0.49749   0.45739   0.00000  Uiso   1.00
C207   C     0.19717   0.50244   0.04262   0.00000  Uiso   1.00
C208   C     0.09293   0.47414   0.48314   0.00000  Uiso   1.00
C209   C     0.11361   0.48157   0.05145   0.00000  Uiso   1.00
C210   C     0.24040   0.52575   0.01684   0.00000  Uiso   1.00
C211   C     0.17202   0.50475   0.47640   0.00000  Uiso   1.00
C212   C     0.16126   0.49519   0.02362   0.00000  Uiso   1.00
C213   C     0.21965   0.51839   0.44857   0.00000  Uiso   1.00
C214   C     0.08039   0.46953   0.03195   0.00000  Uiso   1.00
C215   C     0.25291   0.53039   0.46804   0.00000  Uiso   1.00
C216   C     0.17508   0.64468   0.28533   0.00000  Uiso   1.00
C217   C     0.15825   0.35532   0.21467   0.00000  Uiso   1.00
C218   C     0.17463   0.35452   0.28661   0.00000  Uiso   1.00
F219   F     0.16065   0.45447   0.10686   0.00000  Uiso   1.00
F220   F     0.17252   0.54556   0.39323   0.00000  Uiso   1.00
F221   F     0.18199   0.62276   0.31991   0.00000  Uiso   1.00
F222   F     0.15135   0.37724   0.18008   0.00000  Uiso   1.00
F223   F     0.30688   0.44074   0.20042   0.00000  Uiso   1.00
F224   F     0.02646   0.55929   0.29955   0.00000  Uiso   1.00
F225   F     0.06667   0.44121   0.19961   0.00000  Uiso   1.00
F226   F     0.26666   0.55880   0.30038   0.00000  Uiso   1.00
H227   H     0.27401   0.54711   0.10881   0.00000  Uiso   1.00
H228   H     0.05944   0.45271   0.39111   0.00000  Uiso   1.00
H229   H     0.10058   0.48157   0.08925   0.00000  Uiso   1.00
H230   H     0.23265   0.51844   0.41077   0.00000  Uiso   1.00
I231   I     0.01041   0.45425   0.08347   0.00000  Uiso   1.00
I232   I     0.32287   0.54565   0.41647   0.00000  Uiso   1.00
I233   I     0.01154   0.40922   0.48067   0.00000  Uiso   1.00
I234   I     0.32200   0.59052   0.01925   0.00000  Uiso   1.00
I235   I     0.18381   0.38521   0.34413   0.00000  Uiso   1.00
I236   I     0.14954   0.61479   0.15586   0.00000  Uiso   1.00
N237   N     0.04759   0.50001   0.25001   0.00000  Uiso   1.00
N238   N     0.28574   0.49999   0.24999   0.00000  Uiso   1.00
O239   O     0.12846   0.56108   0.25000   0.00000  Uiso   1.00
O240   O     0.20488   0.43892   0.24999   0.00000  Uiso   1.00
O241   O     0.20490   0.56107   0.25000   0.00000  Uiso   1.00
O242   O     0.12843   0.43893   0.25000   0.00000  Uiso   1.00
O243   O     0.10661   0.50001   0.31612   0.00000  Uiso   1.00
O244   O     0.22672   0.49999   0.18387   0.00000  Uiso   1.00
O245   O     0.18305   0.50000   0.31612   0.00000  Uiso   1.00
O246   O     0.15028   0.50000   0.18388   0.00000  Uiso   1.00
Zn247  Zn    0.11562   0.50001   0.25000   0.00000  Uiso   1.00
Zn248  Zn    0.21771   0.49999   0.25000   0.00000  Uiso   1.00
C249   C     0.50033   0.57988   0.24918   0.00000  Uiso   1.00
C250   C     0.49204   0.64548   0.21339   0.00000  Uiso   1.00
C251   C     0.49961   0.37601   0.25098   0.00000  Uiso   1.00
C252   C     0.50039   0.62399   0.24902   0.00000  Uiso   1.00
C253   C     0.65277   0.47054   0.22510   0.00000  Uiso   1.00
C254   C     0.34723   0.52947   0.27489   0.00000  Uiso   1.00
C255   C     0.36733   0.47061   0.22498   0.00000  Uiso   1.00
C256   C     0.63267   0.52939   0.27502   0.00000  Uiso   1.00
C257   C     0.46926   0.49988   0.33805   0.00000  Uiso   1.00
C258   C     0.53074   0.50010   0.16195   0.00000  Uiso   1.00
C259   C     0.44964   0.49532   0.38875   0.00000  Uiso   1.00
C260   C     0.49967   0.42012   0.25082   0.00000  Uiso   1.00
C261   C     0.55036   0.50461   0.11125   0.00000  Uiso   1.00
C262   C     0.39824   0.45774   0.45836   0.00000  Uiso   1.00
C263   C     0.60181   0.54211   0.04159   0.00000  Uiso   1.00
C264   C     0.41139   0.46770   0.41108   0.00000  Uiso   1.00
C265   C     0.58867   0.53216   0.08887   0.00000  Uiso   1.00
C266   C     0.47571   0.51271   0.41298   0.00000  Uiso   1.00
C267   C     0.52423   0.48725   0.08704   0.00000  Uiso   1.00
C268   C     0.46945   0.49749   0.45739   0.00000  Uiso   1.00
C269   C     0.53051   0.50244   0.04262   0.00000  Uiso   1.00
C270   C     0.42627   0.47414   0.48314   0.00000  Uiso   1.00
C271   C     0.44695   0.48157   0.05145   0.00000  Uiso   1.00
C272   C     0.57374   0.52575   0.01684   0.00000  Uiso   1.00
C273   C     0.50535   0.50475   0.47640   0.00000  Uiso   1.00
C274   C     0.49460   0.49519   0.02362   0.00000  Uiso   1.00
C275   C     0.55299   0.51839   0.44857   0.00000  Uiso   1.00
C276   C     0.41372   0.46953   0.03195   0.00000  Uiso   1.00
C277   C     0.58625   0.53039   0.46804   0.00000  Uiso   1.00
C278   C     0.50841   0.64468   0.28533   0.00000  Uiso   1.00
C279   C     0.49159   0.35532   0.21467   0.00000  Uiso   1.00
C280   C     0.50796   0.35452   0.28661   0.00000  Uiso   1.00
F281   F     0.49399   0.45447   0.10686   0.00000  Uiso   1.00
F282   F     0.50586   0.54556   0.39323   0.00000  Uiso   1.00
F283   F     0.51532   0.62276   0.31991   0.00000  Uiso   1.00
F284   F     0.48468   0.37724   0.18008   0.00000  Uiso   1.00
F285   F     0.64022   0.44074   0.20042   0.00000  Uiso   1.00
F286   F     0.35979   0.55929   0.29955   0.00000  Uiso   1.00
F287   F     0.40001   0.44121   0.19961   0.00000  Uiso   1.00
F288   F     0.59999   0.55880   0.30038   0.00000  Uiso   1.00
H289   H     0.60735   0.54711   0.10881   0.00000  Uiso   1.00
H290   H     0.39277   0.45271   0.39111   0.00000  Uiso   1.00
H291   H     0.43391   0.48157   0.08925   0.00000  Uiso   1.00
H292   H     0.56598   0.51844   0.41077   0.00000  Uiso   1.00
I293   I     0.34375   0.45425   0.08347   0.00000  Uiso   1.00
I294   I     0.65620   0.54565   0.41647   0.00000  Uiso   1.00
I295   I     0.34487   0.40922   0.48067   0.00000  Uiso   1.00
I296   I     0.65533   0.59052   0.01925   0.00000  Uiso   1.00
I297   I     0.51714   0.38521   0.34413   0.00000  Uiso   1.00
I298   I     0.48287   0.61479   0.15586   0.00000  Uiso   1.00
N299   N     0.38093   0.50001   0.25001   0.00000  Uiso   1.00
N300   N     0.61907   0.49999   0.24999   0.00000  Uiso   1.00
O301   O     0.46179   0.56108   0.25000   0.00000  Uiso   1.00
O302   O     0.53821   0.43892   0.24999   0.00000  Uiso   1.00
O303   O     0.53823   0.56107   0.25000   0.00000  Uiso   1.00
O304   O     0.46177   0.43893   0.25000   0.00000  Uiso   1.00
O305   O     0.43994   0.50001   0.31612   0.00000  Uiso   1.00
O306   O     0.56006   0.49999   0.18387   0.00000  Uiso   1.00
O307   O     0.51639   0.50000   0.31612   0.00000  Uiso   1.00
O308   O     0.48361   0.50000   0.18388   0.00000  Uiso   1.00
Zn309  Zn    0.44896   0.50001   0.25000   0.00000  Uiso   1.00
Zn310  Zn    0.55104   0.49999   0.25000   0.00000  Uiso   1.00
C311   C     0.83366   0.57988   0.24918   0.00000  Uiso   1.00
C312   C     0.82537   0.64548   0.21339   0.00000  Uiso   1.00
C313   C     0.83294   0.37601   0.25098   0.00000  Uiso   1.00
C314   C     0.83373   0.62399   0.24902   0.00000  Uiso   1.00
C315   C     0.98611   0.47054   0.22510   0.00000  Uiso   1.00
C316   C     0.68056   0.52947   0.27489   0.00000  Uiso   1.00
C317   C     0.70067   0.47061   0.22498   0.00000  Uiso   1.00
C318   C     0.96600   0.52939   0.27502   0.00000  Uiso   1.00
C319   C     0.80259   0.49988   0.33805   0.00000  Uiso   1.00
C320   C     0.86407   0.50010   0.16195   0.00000  Uiso   1.00
C321   C     0.78297   0.49532   0.38875   0.00000  Uiso   1.00
C322   C     0.83300   0.42012   0.25082   0.00000  Uiso   1.00
C323   C     0.88369   0.50461   0.11125   0.00000  Uiso   1.00
C324   C     0.73158   0.45774   0.45836   0.00000  Uiso   1.00
C325   C     0.93515   0.54211   0.04159   0.00000  Uiso   1.00
C326   C     0.74473   0.46770   0.41108   0.00000  Uiso   1.00
C327   C     0.92200   0.53216   0.08887   0.00000  Uiso   1.00
C328   C     0.80904   0.51271   0.41298   0.00000  Uiso   1.00
C329   C     0.85756   0.48725   0.08704   0.00000  Uiso   1.00
C330   C     0.80279   0.49749   0.45739   0.00000  Uiso   1.00
C331   C     0.86384   0.50244   0.04262   0.00000  Uiso   1.00
C332   C     0.75960   0.47414   0.48314   0.00000  Uiso   1.00
C333   C     0.78028   0.48157   0.05145   0.00000  Uiso   1.00
C334   C     0.90707   0.52575   0.01684   0.00000  Uiso   1.00
C335   C     0.83869   0.50475   0.47640   0.00000  Uiso   1.00
C336   C     0.82793   0.49519   0.02362   0.00000  Uiso   1.00
C337   C     0.88632   0.51839   0.44857   0.00000  Uiso   1.00
C338   C     0.74705   0.46953   0.03195   0.00000  Uiso   1.00
C339   C     0.91958   0.53039   0.46804   0.00000  Uiso   1.00
C340   C     0.84175   0.64468   0.28533   0.00000  Uiso   1.00
C341   C     0.82492   0.35532   0.21467   0.00000  Uiso   1.00
C342   C     0.84130   0.35452   0.28661   0.00000  Uiso   1.00
F343   F     0.82732   0.45447   0.10686   0.00000  Uiso   1.00
F344   F     0.83919   0.54556   0.39323   0.00000  Uiso   1.00
F345   F     0.84866   0.62276   0.31991   0.00000  Uiso   1.00
F346   F     0.81801   0.37724   0.18008   0.00000  Uiso   1.00
F347   F     0.97355   0.44074   0.20042   0.00000  Uiso   1.00
F348   F     0.69313   0.55929   0.29955   0.00000  Uiso   1.00
F349   F     0.73334   0.44121   0.19961   0.00000  Uiso   1.00
F350   F     0.93333   0.55880   0.30038   0.00000  Uiso   1.00
H351   H     0.94068   0.54711   0.10881   0.00000  Uiso   1.00
H352   H     0.72611   0.45271   0.39111   0.00000  Uiso   1.00
H353   H     0.76725   0.48157   0.08925   0.00000  Uiso   1.00
H354   H     0.89931   0.51844   0.41077   0.00000  Uiso   1.00
I355   I     0.67708   0.45425   0.08347   0.00000  Uiso   1.00
I356   I     0.98953   0.54565   0.41647   0.00000  Uiso   1.00
I357   I     0.67821   0.40922   0.48067   0.00000  Uiso   1.00
I358   I     0.98867   0.59052   0.01925   0.00000  Uiso   1.00
I359   I     0.85047   0.38521   0.34413   0.00000  Uiso   1.00
I360   I     0.81621   0.61479   0.15586   0.00000  Uiso   1.00
N361   N     0.71426   0.50001   0.25001   0.00000  Uiso   1.00
N362   N     0.95241   0.49999   0.24999   0.00000  Uiso   1.00
O363   O     0.79512   0.56108   0.25000   0.00000  Uiso   1.00
O364   O     0.87154   0.43892   0.24999   0.00000  Uiso   1.00
O365   O     0.87157   0.56107   0.25000   0.00000  Uiso   1.00
O366   O     0.79510   0.43893   0.25000   0.00000  Uiso   1.00
O367   O     0.77328   0.50001   0.31612   0.00000  Uiso   1.00
O368   O     0.89339   0.49999   0.18387   0.00000  Uiso   1.00
O369   O     0.84972   0.50000   0.31612   0.00000  Uiso   1.00
O370   O     0.81695   0.50000   0.18388   0.00000  Uiso   1.00
Zn371  Zn    0.78229   0.50001   0.25000   0.00000  Uiso   1.00
Zn372  Zn    0.88438   0.49999   0.25000   0.00000  Uiso   1.00
C373   C     0.16700   0.91321   0.24918   0.00000  Uiso   1.00
C374   C     0.15871   0.97882   0.21339   0.00000  Uiso   1.00
C375   C     0.16627   0.70935   0.25098   0.00000  Uiso   1.00
C376   C     0.16706   0.95732   0.24902   0.00000  Uiso   1.00
C377   C     0.31944   0.80387   0.22510   0.00000  Uiso   1.00
C378   C     0.01390   0.86281   0.27489   0.00000  Uiso   1.00
C379   C     0.03400   0.80394   0.22498   0.00000  Uiso   1.00
C380   C     0.29933   0.86273   0.27502   0.00000  Uiso   1.00
C381   C     0.13593   0.83322   0.33805   0.00000  Uiso   1.00
C382   C     0.19740   0.83343   0.16195   0.00000  Uiso   1.00
C383   C     0.11631   0.82865   0.38875   0.00000  Uiso   1.00
C384   C     0.16634   0.75346   0.25082   0.00000  Uiso   1.00
C385   C     0.21702   0.83795   0.11125   0.00000  Uiso   1.00
C386   C     0.06491   0.79107   0.45836   0.00000  Uiso   1.00
C387   C     0.26848   0.87544   0.04159   0.00000  Uiso   1.00
C388   C     0.07806   0.80103   0.41108   0.00000  Uiso   1.00
C389   C     0.25534   0.86549   0.08887   0.00000  Uiso   1.00
C390   C     0.14238   0.84604   0.41298   0.00000  Uiso   1.00
C391   C     0.19090   0.82058   0.08704   0.00000  Uiso   1.00
C392   C     0.13612   0.83083   0.45739   0.00000  Uiso   1.00
C393   C     0.19717   0.83577   0.04262   0.00000  Uiso   1.00
C394   C     0.09293   0.80747   0.48314   0.00000  Uiso   1.00
C395   C     0.11361   0.81490   0.05145   0.00000  Uiso   1.00
C396   C     0.24040   0.85909   0.01684   0.00000  Uiso   1.00
C397   C     0.17202   0.83808   0.47640   0.00000  Uiso   1.00
C398   C     0.16126   0.82852   0.02362   0.00000  Uiso   1.00
C399   C     0.21965   0.85172   0.44857   0.00000  Uiso   1.00
C400   C     0.08039   0.80286   0.03195   0.00000  Uiso   1.00
C401   C     0.25291   0.86372   0.46804   0.00000  Uiso   1.00
C402   C     0.17508   0.97802   0.28533   0.00000  Uiso   1.00
C403   C     0.15825   0.68865   0.21467   0.00000  Uiso   1.00
C404   C     0.17463   0.68785   0.28661   0.00000  Uiso   1.00
F405   F     0.16065   0.78780   0.10686   0.00000  Uiso   1.00
F406   F     0.17252   0.87889   0.39323   0.00000  Uiso   1.00
F407   F     0.18199   0.95609   0.31991   0.00000  Uiso   1.00
F408   F     0.15135   0.71057   0.18008   0.00000  Uiso   1.00
F409   F     0.30688   0.77408   0.20042   0.00000  Uiso   1.00
F410   F     0.02646   0.89262   0.29955   0.00000  Uiso   1.00
F411   F     0.06667   0.77454   0.19961   0.00000  Uiso   1.00
F412   F     0.26666   0.89214   0.30038   0.00000  Uiso   1.00
H413   H     0.27401   0.88044   0.10881   0.00000  Uiso   1.00
H414   H     0.05944   0.78604   0.39111   0.00000  Uiso   1.00
H415   H     0.10058   0.81490   0.08925   0.00000  Uiso   1.00
H416   H     0.23265   0.85178   0.41077   0.00000  Uiso   1.00
I417   I     0.01041   0.78758   0.08347   0.00000  Uiso   1.00
I418   I     0.32287   0.87899   0.41647   0.00000  Uiso   1.00
I419   I     0.01154   0.74256   0.48067   0.00000  Uiso   1.00
I420   I     0.32200   0.92386   0.01925   0.00000  Uiso   1.00
I421   I     0.18381   0.71854   0.34413   0.00000  Uiso   1.00
I422   I     0.14954   0.94812   0.15586   0.00000  Uiso   1.00
N423   N     0.04759   0.83334   0.25001   0.00000  Uiso   1.00
N424   N     0.28574   0.83332   0.24999   0.00000  Uiso   1.00
O425   O     0.12846   0.89442   0.25000   0.00000  Uiso   1.00
O426   O     0.20488   0.77225   0.24999   0.00000  Uiso   1.00
O427   O     0.20490   0.89441   0.25000   0.00000  Uiso   1.00
O428   O     0.12843   0.77226   0.25000   0.00000  Uiso   1.00
O429   O     0.10661   0.83334   0.31612   0.00000  Uiso   1.00
O430   O     0.22672   0.83333   0.18387   0.00000  Uiso   1.00
O431   O     0.18305   0.83333   0.31612   0.00000  Uiso   1.00
O432   O     0.15028   0.83334   0.18388   0.00000  Uiso   1.00
Zn433  Zn    0.11562   0.83334   0.25000   0.00000  Uiso   1.00
Zn434  Zn    0.21771   0.83333   0.25000   0.00000  Uiso   1.00
C435   C     0.50033   0.91321   0.24918   0.00000  Uiso   1.00
C436   C     0.49204   0.97882   0.21339   0.00000  Uiso   1.00
C437   C     0.49961   0.70935   0.25098   0.00000  Uiso   1.00
C438   C     0.50039   0.95732   0.24902   0.00000  Uiso   1.00
C439   C     0.65277   0.80387   0.22510   0.00000  Uiso   1.00
C440   C     0.34723   0.86281   0.27489   0.00000  Uiso   1.00
C441   C     0.36733   0.80394   0.22498   0.00000  Uiso   1.00
C442   C     0.63267   0.86273   0.27502   0.00000  Uiso   1.00
C443   C     0.46926   0.83322   0.33805   0.00000  Uiso   1.00
C444   C     0.53074   0.83343   0.16195   0.00000  Uiso   1.00
C445   C     0.44964   0.82865   0.38875   0.00000  Uiso   1.00
C446   C     0.49967   0.75346   0.25082   0.00000  Uiso   1.00
C447   C     0.55036   0.83795   0.11125   0.00000  Uiso   1.00
C448   C     0.39824   0.79107   0.45836   0.00000  Uiso   1.00
C449   C     0.60181   0.87544   0.04159   0.00000  Uiso   1.00
C450   C     0.41139   0.80103   0.41108   0.00000  Uiso   1.00
C451   C     0.58867   0.86549   0.08887   0.00000  Uiso   1.00
C452   C     0.47571   0.84604   0.41298   0.00000  Uiso   1.00
C453   C     0.52423   0.82058   0.08704   0.00000  Uiso   1.00
C454   C     0.46945   0.83083   0.45739   0.00000  Uiso   1.00
C455   C     0.53051   0.83577   0.04262   0.00000  Uiso   1.00
C456   C     0.42627   0.80747   0.48314   0.00000  Uiso   1.00
C457   C     0.44695   0.81490   0.05145   0.00000  Uiso   1.00
C458   C     0.57374   0.85909   0.01684   0.00000  Uiso   1.00
C459   C     0.50535   0.83808   0.47640   0.00000  Uiso   1.00
C460   C     0.49460   0.82852   0.02362   0.00000  Uiso   1.00
C461   C     0.55299   0.85172   0.44857   0.00000  Uiso   1.00
C462   C     0.41372   0.80286   0.03195   0.00000  Uiso   1.00
C463   C     0.58625   0.86372   0.46804   0.00000  Uiso   1.00
C464   C     0.50841   0.97802   0.28533   0.00000  Uiso   1.00
C465   C     0.49159   0.68865   0.21467   0.00000  Uiso   1.00
C466   C     0.50796   0.68785   0.28661   0.00000  Uiso   1.00
F467   F     0.49399   0.78780   0.10686   0.00000  Uiso   1.00
F468   F     0.50586   0.87889   0.39323   0.00000  Uiso   1.00
F469   F     0.51532   0.95609   0.31991   0.00000  Uiso   1.00
F470   F     0.48468   0.71057   0.18008   0.00000  Uiso   1.00
F471   F     0.64022   0.77408   0.20042   0.00000  Uiso   1.00
F472   F     0.35979   0.89262   0.29955   0.00000  Uiso   1.00
F473   F     0.40001   0.77454   0.19961   0.00000  Uiso   1.00
F474   F     0.59999   0.89214   0.30038   0.00000  Uiso   1.00
H475   H     0.60735   0.88044   0.10881   0.00000  Uiso   1.00
H476   H     0.39277   0.78604   0.39111   0.00000  Uiso   1.00
H477   H     0.43391   0.81490   0.08925   0.00000  Uiso   1.00
H478   H     0.56598   0.85178   0.41077   0.00000  Uiso   1.00
I479   I     0.34375   0.78758   0.08347   0.00000  Uiso   1.00
I480   I     0.65620   0.87899   0.41647   0.00000  Uiso   1.00
I481   I     0.34487   0.74256   0.48067   0.00000  Uiso   1.00
I482   I     0.65533   0.92386   0.01925   0.00000  Uiso   1.00
I483   I     0.51714   0.71854   0.34413   0.00000  Uiso   1.00
I484   I     0.48287   0.94812   0.15586   0.00000  Uiso   1.00
N485   N     0.38093   0.83334   0.25001   0.00000  Uiso   1.00
N486   N     0.61907   0.83332   0.24999   0.00000  Uiso   1.00
O487   O     0.46179   0.89442   0.25000   0.00000  Uiso   1.00
O488   O     0.53821   0.77225   0.24999   0.00000  Uiso   1.00
O489   O     0.53823   0.89441   0.25000   0.00000  Uiso   1.00
O490   O     0.46177   0.77226   0.25000   0.00000  Uiso   1.00
O491   O     0.43994   0.83334   0.31612   0.00000  Uiso   1.00
O492   O     0.56006   0.83333   0.18387   0.00000  Uiso   1.00
O493   O     0.51639   0.83333   0.31612   0.00000  Uiso   1.00
O494   O     0.48361   0.83334   0.18388   0.00000  Uiso   1.00
Zn495  Zn    0.44896   0.83334   0.25000   0.00000  Uiso   1.00
Zn496  Zn    0.55104   0.83333   0.25000   0.00000  Uiso   1.00
C497   C     0.83366   0.91321   0.24918   0.00000  Uiso   1.00
C498   C     0.82537   0.97882   0.21339   0.00000  Uiso   1.00
C499   C     0.83294   0.70935   0.25098   0.00000  Uiso   1.00
C500   C     0.83373   0.95732   0.24902   0.00000  Uiso   1.00
C501   C     0.98611   0.80387   0.22510   0.00000  Uiso   1.00
C502   C     0.68056   0.86281   0.27489   0.00000  Uiso   1.00
C503   C     0.70067   0.80394   0.22498   0.00000  Uiso   1.00
C504   C     0.96600   0.86273   0.27502   0.00000  Uiso   1.00
C505   C     0.80259   0.83322   0.33805   0.00000  Uiso   1.00
C506   C     0.86407   0.83343   0.16195   0.00000  Uiso   1.00
C507   C     0.78297   0.82865   0.38875   0.00000  Uiso   1.00
C508   C     0.83300   0.75346   0.25082   0.00000  Uiso   1.00
C509   C     0.88369   0.83795   0.11125   0.00000  Uiso   1.00
C510   C     0.73158   0.79107   0.45836   0.00000  Uiso   1.00
C511   C     0.93515   0.87544   0.04159   0.00000  Uiso   1.00
C512   C     0.74473   0.80103   0.41108   0.00000  Uiso   1.00
C513   C     0.92200   0.86549   0.08887   0.00000  Uiso   1.00
C514   C     0.80904   0.84604   0.41298   0.00000  Uiso   1.00
C515   C     0.85756   0.82058   0.08704   0.00000  Uiso   1.00
C516   C     0.80279   0.83083   0.45739   0.00000  Uiso   1.00
C517   C     0.86384   0.83577   0.04262   0.00000  Uiso   1.00
C518   C     0.75960   0.80747   0.48314   0.00000  Uiso   1.00
C519   C     0.78028   0.81490   0.05145   0.00000  Uiso   1.00
C520   C     0.90707   0.85909   0.01684   0.00000  Uiso   1.00
C521   C     0.83869   0.83808   0.47640   0.00000  Uiso   1.00
C522   C     0.82793   0.82852   0.02362   0.00000  Uiso   1.00
C523   C     0.88632   0.85172   0.44857   0.00000  Uiso   1.00
C524   C     0.74705   0.80286   0.03195   0.00000  Uiso   1.00
C525   C     0.91958   0.86372   0.46804   0.00000  Uiso   1.00
C526   C     0.84175   0.97802   0.28533   0.00000  Uiso   1.00
C527   C     0.82492   0.68865   0.21467   0.00000  Uiso   1.00
C528   C     0.84130   0.68785   0.28661   0.00000  Uiso   1.00
F529   F     0.82732   0.78780   0.10686   0.00000  Uiso   1.00
F530   F     0.83919   0.87889   0.39323   0.00000  Uiso   1.00
F531   F     0.84866   0.95609   0.31991   0.00000  Uiso   1.00
F532   F     0.81801   0.71057   0.18008   0.00000  Uiso   1.00
F533   F     0.97355   0.77408   0.20042   0.00000  Uiso   1.00
F534   F     0.69313   0.89262   0.29955   0.00000  Uiso   1.00
F535   F     0.73334   0.77454   0.19961   0.00000  Uiso   1.00
F536   F     0.93333   0.89214   0.30038   0.00000  Uiso   1.00
H537   H     0.94068   0.88044   0.10881   0.00000  Uiso   1.00
H538   H     0.72611   0.78604   0.39111   0.00000  Uiso   1.00
H539   H     0.76725   0.81490   0.08925   0.00000  Uiso   1.00
H540   H     0.89931   0.85178   0.41077   0.00000  Uiso   1.00
I541   I     0.67708   0.78758   0.08347   0.00000  Uiso   1.00
I542   I     0.98953   0.87899   0.41647   0.00000  Uiso   1.00
I543   I     0.67821   0.74256   0.48067   0.00000  Uiso   1.00
I544   I     0.98867   0.92386   0.01925   0.00000  Uiso   1.00
I545   I     0.85047   0.71854   0.34413   0.00000  Uiso   1.00
I546   I     0.81621   0.94812   0.15586   0.00000  Uiso   1.00
N547   N     0.71426   0.83334   0.25001   0.00000  Uiso   1.00
N548   N     0.95241   0.83332   0.24999   0.00000  Uiso   1.00
O549   O     0.79512   0.89442   0.25000   0.00000  Uiso   1.00
O550   O     0.87154   0.77225   0.24999   0.00000  Uiso   1.00
O551   O     0.87157   0.89441   0.25000   0.00000  Uiso   1.00
O552   O     0.79510   0.77226   0.25000   0.00000  Uiso   1.00
O553   O     0.77328   0.83334   0.31612   0.00000  Uiso   1.00
O554   O     0.89339   0.83333   0.18387   0.00000  Uiso   1.00
O555   O     0.84972   0.83333   0.31612   0.00000  Uiso   1.00
O556   O     0.81695   0.83334   0.18388   0.00000  Uiso   1.00
Zn557  Zn    0.78229   0.83334   0.25000   0.00000  Uiso   1.00
Zn558  Zn    0.88438   0.83333   0.25000   0.00000  Uiso   1.00
C559   C     0.16700   0.24654   0.74918   0.00000  Uiso   1.00
C560   C     0.15871   0.31215   0.71339   0.00000  Uiso   1.00
C561   C     0.16627   0.04268   0.75098   0.00000  Uiso   1.00
C562   C     0.16706   0.29065   0.74902   0.00000  Uiso   1.00
C563   C     0.31944   0.13720   0.72510   0.00000  Uiso   1.00
C564   C     0.01390   0.19614   0.77489   0.00000  Uiso   1.00
C565   C     0.03400   0.13728   0.72498   0.00000  Uiso   1.00
C566   C     0.29933   0.19606   0.77502   0.00000  Uiso   1.00
C567   C     0.13593   0.16655   0.83805   0.00000  Uiso   1.00
C568   C     0.19740   0.16677   0.66195   0.00000  Uiso   1.00
C569   C     0.11631   0.16198   0.88875   0.00000  Uiso   1.00
C570   C     0.16634   0.08679   0.75082   0.00000  Uiso   1.00
C571   C     0.21702   0.17128   0.61125   0.00000  Uiso   1.00
C572   C     0.06491   0.12440   0.95836   0.00000  Uiso   1.00
C573   C     0.26848   0.20878   0.54159   0.00000  Uiso   1.00
C574   C     0.07806   0.13436   0.91108   0.00000  Uiso   1.00
C575   C     0.25534   0.19883   0.58887   0.00000  Uiso   1.00
C576   C     0.14238   0.17938   0.91298   0.00000  Uiso   1.00
C577   C     0.19090   0.15392   0.58704   0.00000  Uiso   1.00
C578   C     0.13612   0.16416   0.95739   0.00000  Uiso   1.00
C579   C     0.19717   0.16911   0.54262   0.00000  Uiso   1.00
C580   C     0.09293   0.14080   0.98314   0.00000  Uiso   1.00
C581   C     0.11361   0.14823   0.55145   0.00000  Uiso   1.00
C582   C     0.24040   0.19242   0.51684   0.00000  Uiso   1.00
C583   C     0.17202   0.17142   0.97640   0.00000  Uiso   1.00
C584   C     0.16126   0.16185   0.52362   0.00000  Uiso   1.00
C585   C     0.21965   0.18505   0.94857   0.00000  Uiso   1.00
C586   C     0.08039   0.13619   0.53195   0.00000  Uiso   1.00
C587   C     0.25291   0.19705   0.96804   0.00000  Uiso   1.00
C588   C     0.17508   0.31135   0.78533   0.00000  Uiso   1.00
C589   C     0.15825   0.02198   0.71467   0.00000  Uiso   1.00
C590   C     0.17463   0.02118   0.78661   0.00000  Uiso   1.00
F591   F     0.16065   0.12114   0.60686   0.00000  Uiso   1.00
F592   F     0.17252   0.21222   0.89323   0.00000  Uiso   1.00
F593   F     0.18199   0.28943   0.81991   0.00000  Uiso   1.00
F594   F     0.15135   0.04391   0.68008   0.00000  Uiso   1.00
F595   F     0.30688   0.10741   0.70042   0.00000  Uiso   1.00
F596   F     0.02646   0.22596   0.79955   0.00000  Uiso   1.00
F597   F     0.06667   0.10787   0.69961   0.00000  Uiso   1.00
F598   F     0.26666   0.22547   0.80038   0.00000  Uiso   1.00
H599   H     0.27401   0.21377   0.60881   0.00000  Uiso   1.00
H600   H     0.05944   0.11938   0.89111   0.00000  Uiso   1.00
H601   H     0.10058   0.14823   0.58925   0.00000  Uiso   1.00
H602   H     0.23265   0.18511   0.91077   0.00000  Uiso   1.00
I603   I     0.01041   0.12092   0.58347   0.00000  Uiso   1.00
I604   I     0.32287   0.21232   0.91647   0.00000  Uiso   1.00
I605   I     0.01154   0.07589   0.98067   0.00000  Uiso   1.00
I606   I     0.32200   0.25719   0.51925   0.00000  Uiso   1.00
I607   I     0.18381   0.05188   0.84413   0.00000  Uiso   1.00
I608   I     0.14954   0.28145   0.65586   0.00000  Uiso   1.00
N609   N     0.04759   0.16668   0.75001   0.00000  Uiso   1.00
N610   N     0.28574   0.16666   0.74999   0.00000  Uiso   1.00
O611   O     0.12846   0.22775   0.75000   0.00000  Uiso   1.00
O612   O     0.20488   0.10558   0.74999   0.00000  Uiso   1.00
O613   O     0.20490   0.22774   0.75000   0.00000  Uiso   1.00
O614   O     0.12843   0.10559   0.75000   0.00000  Uiso   1.00
O615   O     0.10661   0.16667   0.81612   0.00000  Uiso   1.00
O616   O     0.22672   0.16666   0.68387   0.00000  Uiso   1.00
O617   O     0.18305   0.16666   0.81612   0.00000  Uiso   1.00
O618   O     0.15028   0.16667   0.68388   0.00000  Uiso   1.00
Zn619  Zn    0.11562   0.16667   0.75000   0.00000  Uiso   1.00
Zn620  Zn    0.21771   0.16666   0.75000   0.00000  Uiso   1.00
C621   C     0.50033   0.24654   0.74918   0.00000  Uiso   1.00
C622   C     0.49204   0.31215   0.71339   0.00000  Uiso   1.00
C623   C     0.49961   0.04268   0.75098   0.00000  Uiso   1.00
C624   C     0.50039   0.29065   0.74902   0.00000  Uiso   1.00
C625   C     0.65277   0.13720   0.72510   0.00000  Uiso   1.00
C626   C     0.34723   0.19614   0.77489   0.00000  Uiso   1.00
C627   C     0.36733   0.13728   0.72498   0.00000  Uiso   1.00
C628   C     0.63267   0.19606   0.77502   0.00000  Uiso   1.00
C629   C     0.46926   0.16655   0.83805   0.00000  Uiso   1.00
C630   C     0.53074   0.16677   0.66195   0.00000  Uiso   1.00
C631   C     0.44964   0.16198   0.88875   0.00000  Uiso   1.00
C632   C     0.49967   0.08679   0.75082   0.00000  Uiso   1.00
C633   C     0.55036   0.17128   0.61125   0.00000  Uiso   1.00
C634   C     0.39824   0.12440   0.95836   0.00000  Uiso   1.00
C635   C     0.60181   0.20878   0.54159   0.00000  Uiso   1.00
C636   C     0.41139   0.13436   0.91108   0.00000  Uiso   1.00
C637   C     0.58867   0.19883   0.58887   0.00000  Uiso   1.00
C638   C     0.47571   0.17938   0.91298   0.00000  Uiso   1.00
C639   C     0.52423   0.15392   0.58704   0.00000  Uiso   1.00
C640   C     0.46945   0.16416   0.95739   0.00000  Uiso   1.00
C641   C     0.53051   0.16911   0.54262   0.00000  Uiso   1.00
C642   C     0.42627   0.14080   0.98314   0.00000  Uiso   1.00
C643   C     0.44695   0.14823   0.55145   0.00000  Uiso   1.00
C644   C     0.57374   0.19242   0.51684   0.00000  Uiso   1.00
C645   C     0.50535   0.17142   0.97640   0.00000  Uiso   1.00
C646   C     0.49460   0.16185   0.52362   0.00000  Uiso   1.00
C647   C     0.55299   0.18505   0.94857   0.00000  Uiso   1.00
C648   C     0.41372   0.13619   0.53195   0.00000  Uiso   1.00
C649   C     0.58625   0.19705   0.96804   0.00000  Uiso   1.00
C650   C     0.50841   0.31135   0.78533   0.00000  Uiso   1.00
C651   C     0.49159   0.02198   0.71467   0.00000  Uiso   1.00
C652   C     0.50796   0.02118   0.78661   0.00000  Uiso   1.00
F653   F     0.49399   0.12114   0.60686   0.00000  Uiso   1.00
F654   F     0.50586   0.21222   0.89323   0.00000  Uiso   1.00
F655   F     0.51532   0.28943   0.81991   0.00000  Uiso   1.00
F656   F     0.48468   0.04391   0.68008   0.00000  Uiso   1.00
F657   F     0.64022   0.10741   0.70042   0.00000  Uiso   1.00
F658   F     0.35979   0.22596   0.79955   0.00000  Uiso   1.00
F659   F     0.40001   0.10787   0.69961   0.00000  Uiso   1.00
F660   F     0.59999   0.22547   0.80038   0.00000  Uiso   1.00
H661   H     0.60735   0.21377   0.60881   0.00000  Uiso   1.00
H662   H     0.39277   0.11938   0.89111   0.00000  Uiso   1.00
H663   H     0.43391   0.14823   0.58925   0.00000  Uiso   1.00
H664   H     0.56598   0.18511   0.91077   0.00000  Uiso   1.00
I665   I     0.34375   0.12092   0.58347   0.00000  Uiso   1.00
I666   I     0.65620   0.21232   0.91647   0.00000  Uiso   1.00
I667   I     0.34487   0.07589   0.98067   0.00000  Uiso   1.00
I668   I     0.65533   0.25719   0.51925   0.00000  Uiso   1.00
I669   I     0.51714   0.05188   0.84413   0.00000  Uiso   1.00
I670   I     0.48287   0.28145   0.65586   0.00000  Uiso   1.00
N671   N     0.38093   0.16668   0.75001   0.00000  Uiso   1.00
N672   N     0.61907   0.16666   0.74999   0.00000  Uiso   1.00
O673   O     0.46179   0.22775   0.75000   0.00000  Uiso   1.00
O674   O     0.53821   0.10558   0.74999   0.00000  Uiso   1.00
O675   O     0.53823   0.22774   0.75000   0.00000  Uiso   1.00
O676   O     0.46177   0.10559   0.75000   0.00000  Uiso   1.00
O677   O     0.43994   0.16667   0.81612   0.00000  Uiso   1.00
O678   O     0.56006   0.16666   0.68387   0.00000  Uiso   1.00
O679   O     0.51639   0.16666   0.81612   0.00000  Uiso   1.00
O680   O     0.48361   0.16667   0.68388   0.00000  Uiso   1.00
Zn681  Zn    0.44896   0.16667   0.75000   0.00000  Uiso   1.00
Zn682  Zn    0.55104   0.16666   0.75000   0.00000  Uiso   1.00
C683   C     0.83366   0.24654   0.74918   0.00000  Uiso   1.00
C684   C     0.82537   0.31215   0.71339   0.00000  Uiso   1.00
C685   C     0.83294   0.04268   0.75098   0.00000  Uiso   1.00
C686   C     0.83373   0.29065   0.74902   0.00000  Uiso   1.00
C687   C     0.98611   0.13720   0.72510   0.00000  Uiso   1.00
C688   C     0.68056   0.19614   0.77489   0.00000  Uiso   1.00
C689   C     0.70067   0.13728   0.72498   0.00000  Uiso   1.00
C690   C     0.96600   0.19606   0.77502   0.00000  Uiso   1.00
C691   C     0.80259   0.16655   0.83805   0.00000  Uiso   1.00
C692   C     0.86407   0.16677   0.66195   0.00000  Uiso   1.00
C693   C     0.78297   0.16198   0.88875   0.00000  Uiso   1.00
C694   C     0.83300   0.08679   0.75082   0.00000  Uiso   1.00
C695   C     0.88369   0.17128   0.61125   0.00000  Uiso   1.00
C696   C     0.73158   0.12440   0.95836   0.00000  Uiso   1.00
C697   C     0.93515   0.20878   0.54159   0.00000  Uiso   1.00
C698   C     0.74473   0.13436   0.91108   0.00000  Uiso   1.00
C699   C     0.92200   0.19883   0.58887   0.00000  Uiso   1.00
C700   C     0.80904   0.17938   0.91298   0.00000  Uiso   1.00
C701   C     0.85756   0.15392   0.58704   0.00000  Uiso   1.00
C702   C     0.80279   0.16416   0.95739   0.00000  Uiso   1.00
C703   C     0.86384   0.16911   0.54262   0.00000  Uiso   1.00
C704   C     0.75960   0.14080   0.98314   0.00000  Uiso   1.00
C705   C     0.78028   0.14823   0.55145   0.00000  Uiso   1.00
C706   C     0.90707   0.19242   0.51684   0.00000  Uiso   1.00
C707   C     0.83869   0.17142   0.97640   0.00000  Uiso   1.00
C708   C     0.82793   0.16185   0.52362   0.00000  Uiso   1.00
C709   C     0.88632   0.18505   0.94857   0.00000  Uiso   1.00
C710   C     0.74705   0.13619   0.53195   0.00000  Uiso   1.00
C711   C     0.91958   0.19705   0.96804   0.00000  Uiso   1.00
C712   C     0.84175   0.31135   0.78533   0.00000  Uiso   1.00
C713   C     0.82492   0.02198   0.71467   0.00000  Uiso   1.00
C714   C     0.84130   0.02118   0.78661   0.00000  Uiso   1.00
F715   F     0.82732   0.12114   0.60686   0.00000  Uiso   1.00
F716   F     0.83919   0.21222   0.89323   0.00000  Uiso   1.00
F717   F     0.84866   0.28943   0.81991   0.00000  Uiso   1.00
F718   F     0.81801   0.04391   0.68008   0.00000  Uiso   1.00
F719   F     0.97355   0.10741   0.70042   0.00000  Uiso   1.00
F720   F     0.69313   0.22596   0.79955   0.00000  Uiso   1.00
F721   F     0.73334   0.10787   0.69961   0.00000  Uiso   1.00
F722   F     0.93333   0.22547   0.80038   0.00000  Uiso   1.00
H723   H     0.94068   0.21377   0.60881   0.00000  Uiso   1.00
H724   H     0.72611   0.11938   0.89111   0.00000  Uiso   1.00
H725   H     0.76725   0.14823   0.58925   0.00000  Uiso   1.00
H726   H     0.89931   0.18511   0.91077   0.00000  Uiso   1.00
I727   I     0.67708   0.12092   0.58347   0.00000  Uiso   1.00
I728   I     0.98953   0.21232   0.91647   0.00000  Uiso   1.00
I729   I     0.67821   0.07589   0.98067   0.00000  Uiso   1.00
I730   I     0.98867   0.25719   0.51925   0.00000  Uiso   1.00
I731   I     0.85047   0.05188   0.84413   0.00000  Uiso   1.00
I732   I     0.81621   0.28145   0.65586   0.00000  Uiso   1.00
N733   N     0.71426   0.16668   0.75001   0.00000  Uiso   1.00
N734   N     0.95241   0.16666   0.74999   0.00000  Uiso   1.00
O735   O     0.79512   0.22775   0.75000   0.00000  Uiso   1.00
O736   O     0.87154   0.10558   0.74999   0.00000  Uiso   1.00
O737   O     0.87157   0.22774   0.75000   0.00000  Uiso   1.00
O738   O     0.79510   0.10559   0.75000   0.00000  Uiso   1.00
O739   O     0.77328   0.16667   0.81612   0.00000  Uiso   1.00
O740   O     0.89339   0.16666   0.68387   0.00000  Uiso   1.00
O741   O     0.84972   0.16666   0.81612   0.00000  Uiso   1.00
O742   O     0.81695   0.16667   0.68388   0.00000  Uiso   1.00
Zn743  Zn    0.78229   0.16667   0.75000   0.00000  Uiso   1.00
Zn744  Zn    0.88438   0.16666   0.75000   0.00000  Uiso   1.00
C745   C     0.16700   0.57988   0.74918   0.00000  Uiso   1.00
C746   C     0.15871   0.64548   0.71339   0.00000  Uiso   1.00
C747   C     0.16627   0.37601   0.75098   0.00000  Uiso   1.00
C748   C     0.16706   0.62399   0.74902   0.00000  Uiso   1.00
C749   C     0.31944   0.47054   0.72510   0.00000  Uiso   1.00
C750   C     0.01390   0.52947   0.77489   0.00000  Uiso   1.00
C751   C     0.03400   0.47061   0.72498   0.00000  Uiso   1.00
C752   C     0.29933   0.52939   0.77502   0.00000  Uiso   1.00
C753   C     0.13593   0.49988   0.83805   0.00000  Uiso   1.00
C754   C     0.19740   0.50010   0.66195   0.00000  Uiso   1.00
C755   C     0.11631   0.49532   0.88875   0.00000  Uiso   1.00
C756   C     0.16634   0.42012   0.75082   0.00000  Uiso   1.00
C757   C     0.21702   0.50461   0.61125   0.00000  Uiso   1.00
C758   C     0.06491   0.45774   0.95836   0.00000  Uiso   1.00
C759   C     0.26848   0.54211   0.54159   0.00000  Uiso   1.00
C760   C     0.07806   0.46770   0.91108   0.00000  Uiso   1.00
C761   C     0.25534   0.53216   0.58887   0.00000  Uiso   1.00
C762   C     0.14238   0.51271   0.91298   0.00000  Uiso   1.00
C763   C     0.19090   0.48725   0.58704   0.00000  Uiso   1.00
C764   C     0.13612   0.49749   0.95739   0.00000  Uiso   1.00
C765   C     0.19717   0.50244   0.54262   0.00000  Uiso   1.00
C766   C     0.09293   0.47414   0.98314   0.00000  Uiso   1.00
C767   C     0.11361   0.48157   0.55145   0.00000  Uiso   1.00
C768   C     0.24040   0.52575   0.51684   0.00000  Uiso   1.00
C769   C     0.17202   0.50475   0.97640   0.00000  Uiso   1.00
C770   C     0.16126   0.49519   0.52362   0.00000  Uiso   1.00
C771   C     0.21965   0.51839   0.94857   0.00000  Uiso   1.00
C772   C     0.08039   0.46953   0.53195   0.00000  Uiso   1.00
C773   C     0.25291   0.53039   0.96804   0.00000  Uiso   1.00
C774   C     0.17508   0.64468   0.78533   0.00000  Uiso   1.00
C775   C     0.15825   0.35532   0.71467   0.00000  Uiso   1.00
C776   C     0.17463   0.35452   0.78661   0.00000  Uiso   1.00
F777   F     0.16065   0.45447   0.60686   0.00000  Uiso   1.00
F778   F     0.17252   0.54556   0.89323   0.00000  Uiso   1.00
F779   F     0.18199   0.62276   0.81991   0.00000  Uiso   1.00
F780   F     0.15135   0.37724   0.68008   0.00000  Uiso   1.00
F781   F     0.30688   0.44074   0.70042   0.00000  Uiso   1.00
F782   F     0.02646   0.55929   0.79955   0.00000  Uiso   1.00
F783   F     0.06667   0.44121   0.69961   0.00000  Uiso   1.00
F784   F     0.26666   0.55880   0.80038   0.00000  Uiso   1.00
H785   H     0.27401   0.54711   0.60881   0.00000  Uiso   1.00
H786   H     0.05944   0.45271   0.89111   0.00000  Uiso   1.00
H787   H     0.10058   0.48157   0.58925   0.00000  Uiso   1.00
H788   H     0.23265   0.51844   0.91077   0.00000  Uiso   1.00
I789   I     0.01041   0.45425   0.58347   0.00000  Uiso   1.00
I790   I     0.32287   0.54565   0.91647   0.00000  Uiso   1.00
I791   I     0.01154   0.40922   0.98067   0.00000  Uiso   1.00
I792   I     0.32200   0.59052   0.51925   0.00000  Uiso   1.00
I793   I     0.18381   0.38521   0.84413   0.00000  Uiso   1.00
I794   I     0.14954   0.61479   0.65586   0.00000  Uiso   1.00
N795   N     0.04759   0.50001   0.75001   0.00000  Uiso   1.00
N796   N     0.28574   0.49999   0.74999   0.00000  Uiso   1.00
O797   O     0.12846   0.56108   0.75000   0.00000  Uiso   1.00
O798   O     0.20488   0.43892   0.74999   0.00000  Uiso   1.00
O799   O     0.20490   0.56107   0.75000   0.00000  Uiso   1.00
O800   O     0.12843   0.43893   0.75000   0.00000  Uiso   1.00
O801   O     0.10661   0.50001   0.81612   0.00000  Uiso   1.00
O802   O     0.22672   0.49999   0.68387   0.00000  Uiso   1.00
O803   O     0.18305   0.50000   0.81612   0.00000  Uiso   1.00
O804   O     0.15028   0.50000   0.68388   0.00000  Uiso   1.00
Zn805  Zn    0.11562   0.50001   0.75000   0.00000  Uiso   1.00
Zn806  Zn    0.21771   0.49999   0.75000   0.00000  Uiso   1.00
C807   C     0.50033   0.57988   0.74918   0.00000  Uiso   1.00
C808   C     0.49204   0.64548   0.71339   0.00000  Uiso   1.00
C809   C     0.49961   0.37601   0.75098   0.00000  Uiso   1.00
C810   C     0.50039   0.62399   0.74902   0.00000  Uiso   1.00
C811   C     0.65277   0.47054   0.72510   0.00000  Uiso   1.00
C812   C     0.34723   0.52947   0.77489   0.00000  Uiso   1.00
C813   C     0.36733   0.47061   0.72498   0.00000  Uiso   1.00
C814   C     0.63267   0.52939   0.77502   0.00000  Uiso   1.00
C815   C     0.46926   0.49988   0.83805   0.00000  Uiso   1.00
C816   C     0.53074   0.50010   0.66195   0.00000  Uiso   1.00
C817   C     0.44964   0.49532   0.88875   0.00000  Uiso   1.00
C818   C     0.49967   0.42012   0.75082   0.00000  Uiso   1.00
C819   C     0.55036   0.50461   0.61125   0.00000  Uiso   1.00
C820   C     0.39824   0.45774   0.95836   0.00000  Uiso   1.00
C821   C     0.60181   0.54211   0.54159   0.00000  Uiso   1.00
C822   C     0.41139   0.46770   0.91108   0.00000  Uiso   1.00
C823   C     0.58867   0.53216   0.58887   0.00000  Uiso   1.00
C824   C     0.47571   0.51271   0.91298   0.00000  Uiso   1.00
C825   C     0.52423   0.48725   0.58704   0.00000  Uiso   1.00
C826   C     0.46945   0.49749   0.95739   0.00000  Uiso   1.00
C827   C     0.53051   0.50244   0.54262   0.00000  Uiso   1.00
C828   C     0.42627   0.47414   0.98314   0.00000  Uiso   1.00
C829   C     0.44695   0.48157   0.55145   0.00000  Uiso   1.00
C830   C     0.57374   0.52575   0.51684   0.00000  Uiso   1.00
C831   C     0.50535   0.50475   0.97640   0.00000  Uiso   1.00
C832   C     0.49460   0.49519   0.52362   0.00000  Uiso   1.00
C833   C     0.55299   0.51839   0.94857   0.00000  Uiso   1.00
C834   C     0.41372   0.46953   0.53195   0.00000  Uiso   1.00
C835   C     0.58625   0.53039   0.96804   0.00000  Uiso   1.00
C836   C     0.50841   0.64468   0.78533   0.00000  Uiso   1.00
C837   C     0.49159   0.35532   0.71467   0.00000  Uiso   1.00
C838   C     0.50796   0.35452   0.78661   0.00000  Uiso   1.00
F839   F     0.49399   0.45447   0.60686   0.00000  Uiso   1.00
F840   F     0.50586   0.54556   0.89323   0.00000  Uiso   1.00
F841   F     0.51532   0.62276   0.81991   0.00000  Uiso   1.00
F842   F     0.48468   0.37724   0.68008   0.00000  Uiso   1.00
F843   F     0.64022   0.44074   0.70042   0.00000  Uiso   1.00
F844   F     0.35979   0.55929   0.79955   0.00000  Uiso   1.00
F845   F     0.40001   0.44121   0.69961   0.00000  Uiso   1.00
F846   F     0.59999   0.55880   0.80038   0.00000  Uiso   1.00
H847   H     0.60735   0.54711   0.60881   0.00000  Uiso   1.00
H848   H     0.39277   0.45271   0.89111   0.00000  Uiso   1.00
H849   H     0.43391   0.48157   0.58925   0.00000  Uiso   1.00
H850   H     0.56598   0.51844   0.91077   0.00000  Uiso   1.00
I851   I     0.34375   0.45425   0.58347   0.00000  Uiso   1.00
I852   I     0.65620   0.54565   0.91647   0.00000  Uiso   1.00
I853   I     0.34487   0.40922   0.98067   0.00000  Uiso   1.00
I854   I     0.65533   0.59052   0.51925   0.00000  Uiso   1.00
I855   I     0.51714   0.38521   0.84413   0.00000  Uiso   1.00
I856   I     0.48287   0.61479   0.65586   0.00000  Uiso   1.00
N857   N     0.38093   0.50001   0.75001   0.00000  Uiso   1.00
N858   N     0.61907   0.49999   0.74999   0.00000  Uiso   1.00
O859   O     0.46179   0.56108   0.75000   0.00000  Uiso   1.00
O860   O     0.53821   0.43892   0.74999   0.00000  Uiso   1.00
O861   O     0.53823   0.56107   0.75000   0.00000  Uiso   1.00
O862   O     0.46177   0.43893   0.75000   0.00000  Uiso   1.00
O863   O     0.43994   0.50001   0.81612   0.00000  Uiso   1.00
O864   O     0.56006   0.49999   0.68387   0.00000  Uiso   1.00
O865   O     0.51639   0.50000   0.81612   0.00000  Uiso   1.00
O866   O     0.48361   0.50000   0.68388   0.00000  Uiso   1.00
Zn867  Zn    0.44896   0.50001   0.75000   0.00000  Uiso   1.00
Zn868  Zn    0.55104   0.49999   0.75000   0.00000  Uiso   1.00
C869   C     0.83366   0.57988   0.74918   0.00000  Uiso   1.00
C870   C     0.82537   0.64548   0.71339   0.00000  Uiso   1.00
C871   C     0.83294   0.37601   0.75098   0.00000  Uiso   1.00
C872   C     0.83373   0.62399   0.74902   0.00000  Uiso   1.00
C873   C     0.98611   0.47054   0.72510   0.00000  Uiso   1.00
C874   C     0.68056   0.52947   0.77489   0.00000  Uiso   1.00
C875   C     0.70067   0.47061   0.72498   0.00000  Uiso   1.00
C876   C     0.96600   0.52939   0.77502   0.00000  Uiso   1.00
C877   C     0.80259   0.49988   0.83805   0.00000  Uiso   1.00
C878   C     0.86407   0.50010   0.66195   0.00000  Uiso   1.00
C879   C     0.78297   0.49532   0.88875   0.00000  Uiso   1.00
C880   C     0.83300   0.42012   0.75082   0.00000  Uiso   1.00
C881   C     0.88369   0.50461   0.61125   0.00000  Uiso   1.00
C882   C     0.73158   0.45774   0.95836   0.00000  Uiso   1.00
C883   C     0.93515   0.54211   0.54159   0.00000  Uiso   1.00
C884   C     0.74473   0.46770   0.91108   0.00000  Uiso   1.00
C885   C     0.92200   0.53216   0.58887   0.00000  Uiso   1.00
C886   C     0.80904   0.51271   0.91298   0.00000  Uiso   1.00
C887   C     0.85756   0.48725   0.58704   0.00000  Uiso   1.00
C888   C     0.80279   0.49749   0.95739   0.00000  Uiso   1.00
C889   C     0.86384   0.50244   0.54262   0.00000  Uiso   1.00
C890   C     0.75960   0.47414   0.98314   0.00000  Uiso   1.00
C891   C     0.78028   0.48157   0.55145   0.00000  Uiso   1.00
C892   C     0.90707   0.52575   0.51684   0.00000  Uiso   1.00
C893   C     0.83869   0.50475   0.97640   0.00000  Uiso   1.00
C894   C     0.82793   0.49519   0.52362   0.00000  Uiso   1.00
C895   C     0.88632   0.51839   0.94857   0.00000  Uiso   1.00
C896   C     0.74705   0.46953   0.53195   0.00000  Uiso   1.00
C897   C     0.91958   0.53039   0.96804   0.00000  Uiso   1.00
C898   C     0.84175   0.64468   0.78533   0.00000  Uiso   1.00
C899   C     0.82492   0.35532   0.71467   0.00000  Uiso   1.00
C900   C     0.84130   0.35452   0.78661   0.00000  Uiso   1.00
F901   F     0.82732   0.45447   0.60686   0.00000  Uiso   1.00
F902   F     0.83919   0.54556   0.89323   0.00000  Uiso   1.00
F903   F     0.84866   0.62276   0.81991   0.00000  Uiso   1.00
F904   F     0.81801   0.37724   0.68008   0.00000  Uiso   1.00
F905   F     0.97355   0.44074   0.70042   0.00000  Uiso   1.00
F906   F     0.69313   0.55929   0.79955   0.00000  Uiso   1.00
F907   F     0.73334   0.44121   0.69961   0.00000  Uiso   1.00
F908   F     0.93333   0.55880   0.80038   0.00000  Uiso   1.00
H909   H     0.94068   0.54711   0.60881   0.00000  Uiso   1.00
H910   H     0.72611   0.45271   0.89111   0.00000  Uiso   1.00
H911   H     0.76725   0.48157   0.58925   0.00000  Uiso   1.00
H912   H     0.89931   0.51844   0.91077   0.00000  Uiso   1.00
I913   I     0.67708   0.45425   0.58347   0.00000  Uiso   1.00
I914   I     0.98953   0.54565   0.91647   0.00000  Uiso   1.00
I915   I     0.67821   0.40922   0.98067   0.00000  Uiso   1.00
I916   I     0.98867   0.59052   0.51925   0.00000  Uiso   1.00
I917   I     0.85047   0.38521   0.84413   0.00000  Uiso   1.00
I918   I     0.81621   0.61479   0.65586   0.00000  Uiso   1.00
N919   N     0.71426   0.50001   0.75001   0.00000  Uiso   1.00
N920   N     0.95241   0.49999   0.74999   0.00000  Uiso   1.00
O921   O     0.79512   0.56108   0.75000   0.00000  Uiso   1.00
O922   O     0.87154   0.43892   0.74999   0.00000  Uiso   1.00
O923   O     0.87157   0.56107   0.75000   0.00000  Uiso   1.00
O924   O     0.79510   0.43893   0.75000   0.00000  Uiso   1.00
O925   O     0.77328   0.50001   0.81612   0.00000  Uiso   1.00
O926   O     0.89339   0.49999   0.68387   0.00000  Uiso   1.00
O927   O     0.84972   0.50000   0.81612   0.00000  Uiso   1.00
O928   O     0.81695   0.50000   0.68388   0.00000  Uiso   1.00
Zn929  Zn    0.78229   0.50001   0.75000   0.00000  Uiso   1.00
Zn930  Zn    0.88438   0.49999   0.75000   0.00000  Uiso   1.00
C931   C     0.16700   0.91321   0.74918   0.00000  Uiso   1.00
C932   C     0.15871   0.97882   0.71339   0.00000  Uiso   1.00
C933   C     0.16627   0.70935   0.75098   0.00000  Uiso   1.00
C934   C     0.16706   0.95732   0.74902   0.00000  Uiso   1.00
C935   C     0.31944   0.80387   0.72510   0.00000  Uiso   1.00
C936   C     0.01390   0.86281   0.77489   0.00000  Uiso   1.00
C937   C     0.03400   0.80394   0.72498   0.00000  Uiso   1.00
C938   C     0.29933   0.86273   0.77502   0.00000  Uiso   1.00
C939   C     0.13593   0.83322   0.83805   0.00000  Uiso   1.00
C940   C     0.19740   0.83343   0.66195   0.00000  Uiso   1.00
C941   C     0.11631   0.82865   0.88875   0.00000  Uiso   1.00
C942   C     0.16634   0.75346   0.75082   0.00000  Uiso   1.00
C943   C     0.21702   0.83795   0.61125   0.00000  Uiso   1.00
C944   C     0.06491   0.79107   0.95836   0.00000  Uiso   1.00
C945   C     0.26848   0.87544   0.54159   0.00000  Uiso   1.00
C946   C     0.07806   0.80103   0.91108   0.00000  Uiso   1.00
C947   C     0.25534   0.86549   0.58887   0.00000  Uiso   1.00
C948   C     0.14238   0.84604   0.91298   0.00000  Uiso   1.00
C949   C     0.19090   0.82058   0.58704   0.00000  Uiso   1.00
C950   C     0.13612   0.83083   0.95739   0.00000  Uiso   1.00
C951   C     0.19717   0.83577   0.54262   0.00000  Uiso   1.00
C952   C     0.09293   0.80747   0.98314   0.00000  Uiso   1.00
C953   C     0.11361   0.81490   0.55145   0.00000  Uiso   1.00
C954   C     0.24040   0.85909   0.51684   0.00000  Uiso   1.00
C955   C     0.17202   0.83808   0.97640   0.00000  Uiso   1.00
C956   C     0.16126   0.82852   0.52362   0.00000  Uiso   1.00
C957   C     0.21965   0.85172   0.94857   0.00000  Uiso   1.00
C958   C     0.08039   0.80286   0.53195   0.00000  Uiso   1.00
C959   C     0.25291   0.86372   0.96804   0.00000  Uiso   1.00
C960   C     0.17508   0.97802   0.78533   0.00000  Uiso   1.00
C961   C     0.15825   0.68865   0.71467   0.00000  Uiso   1.00
C962   C     0.17463   0.68785   0.78661   0.00000  Uiso   1.00
F963   F     0.16065   0.78780   0.60686   0.00000  Uiso   1.00
F964   F     0.17252   0.87889   0.89323   0.00000  Uiso   1.00
F965   F     0.18199   0.95609   0.81991   0.00000  Uiso   1.00
F966   F     0.15135   0.71057   0.68008   0.00000  Uiso   1.00
F967   F     0.30688   0.77408   0.70042   0.00000  Uiso   1.00
F968   F     0.02646   0.89262   0.79955   0.00000  Uiso   1.00
F969   F     0.06667   0.77454   0.69961   0.00000  Uiso   1.00
F970   F     0.26666   0.89214   0.80038   0.00000  Uiso   1.00
H971   H     0.27401   0.88044   0.60881   0.00000  Uiso   1.00
H972   H     0.05944   0.78604   0.89111   0.00000  Uiso   1.00
H973   H     0.10058   0.81490   0.58925   0.00000  Uiso   1.00
H974   H     0.23265   0.85178   0.91077   0.00000  Uiso   1.00
I975   I     0.01041   0.78758   0.58347   0.00000  Uiso   1.00
I976   I     0.32287   0.87899   0.91647   0.00000  Uiso   1.00
I977   I     0.01154   0.74256   0.98067   0.00000  Uiso   1.00
I978   I     0.32200   0.92386   0.51925   0.00000  Uiso   1.00
I979   I     0.18381   0.71854   0.84413   0.00000  Uiso   1.00
I980   I     0.14954   0.94812   0.65586   0.00000  Uiso   1.00
N981   N     0.04759   0.83334   0.75001   0.00000  Uiso   1.00
N982   N     0.28574   0.83332   0.74999   0.00000  Uiso   1.00
O983   O     0.12846   0.89442   0.75000   0.00000  Uiso   1.00
O984   O     0.20488   0.77225   0.74999   0.00000  Uiso   1.00
O985   O     0.20490   0.89441   0.75000   0.00000  Uiso   1.00
O986   O     0.12843   0.77226   0.75000   0.00000  Uiso   1.00
O987   O     0.10661   0.83334   0.81612   0.00000  Uiso   1.00
O988   O     0.22672   0.83333   0.68387   0.00000  Uiso   1.00
O989   O     0.18305   0.83333   0.81612   0.00000  Uiso   1.00
O990   O     0.15028   0.83334   0.68388   0.00000  Uiso   1.00
Zn991  Zn    0.11562   0.83334   0.75000   0.00000  Uiso   1.00
Zn992  Zn    0.21771   0.83333   0.75000   0.00000  Uiso   1.00
C993   C     0.50033   0.91321   0.74918   0.00000  Uiso   1.00
C994   C     0.49204   0.97882   0.71339   0.00000  Uiso   1.00
C995   C     0.49961   0.70935   0.75098   0.00000  Uiso   1.00
C996   C     0.50039   0.95732   0.74902   0.00000  Uiso   1.00
C997   C     0.65277   0.80387   0.72510   0.00000  Uiso   1.00
C998   C     0.34723   0.86281   0.77489   0.00000  Uiso   1.00
C999   C     0.36733   0.80394   0.72498   0.00000  Uiso   1.00
C1000  C     0.63267   0.86273   0.77502   0.00000  Uiso   1.00
C1001  C     0.46926   0.83322   0.83805   0.00000  Uiso   1.00
C1002  C     0.53074   0.83343   0.66195   0.00000  Uiso   1.00
C1003  C     0.44964   0.82865   0.88875   0.00000  Uiso   1.00
C1004  C     0.49967   0.75346   0.75082   0.00000  Uiso   1.00
C1005  C     0.55036   0.83795   0.61125   0.00000  Uiso   1.00
C1006  C     0.39824   0.79107   0.95836   0.00000  Uiso   1.00
C1007  C     0.60181   0.87544   0.54159   0.00000  Uiso   1.00
C1008  C     0.41139   0.80103   0.91108   0.00000  Uiso   1.00
C1009  C     0.58867   0.86549   0.58887   0.00000  Uiso   1.00
C1010  C     0.47571   0.84604   0.91298   0.00000  Uiso   1.00
C1011  C     0.52423   0.82058   0.58704   0.00000  Uiso   1.00
C1012  C     0.46945   0.83083   0.95739   0.00000  Uiso   1.00
C1013  C     0.53051   0.83577   0.54262   0.00000  Uiso   1.00
C1014  C     0.42627   0.80747   0.98314   0.00000  Uiso   1.00
C1015  C     0.44695   0.81490   0.55145   0.00000  Uiso   1.00
C1016  C     0.57374   0.85909   0.51684   0.00000  Uiso   1.00
C1017  C     0.50535   0.83808   0.97640   0.00000  Uiso   1.00
C1018  C     0.49460   0.82852   0.52362   0.00000  Uiso   1.00
C1019  C     0.55299   0.85172   0.94857   0.00000  Uiso   1.00
C1020  C     0.41372   0.80286   0.53195   0.00000  Uiso   1.00
C1021  C     0.58625   0.86372   0.96804   0.00000  Uiso   1.00
C1022  C     0.50841   0.97802   0.78533   0.00000  Uiso   1.00
C1023  C     0.49159   0.68865   0.71467   0.00000  Uiso   1.00
C1024  C     0.50796   0.68785   0.78661   0.00000  Uiso   1.00
F1025  F     0.49399   0.78780   0.60686   0.00000  Uiso   1.00
F1026  F     0.50586   0.87889   0.89323   0.00000  Uiso   1.00
F1027  F     0.51532   0.95609   0.81991   0.00000  Uiso   1.00
F1028  F     0.48468   0.71057   0.68008   0.00000  Uiso   1.00
F1029  F     0.64022   0.77408   0.70042   0.00000  Uiso   1.00
F1030  F     0.35979   0.89262   0.79955   0.00000  Uiso   1.00
F1031  F     0.40001   0.77454   0.69961   0.00000  Uiso   1.00
F1032  F     0.59999   0.89214   0.80038   0.00000  Uiso   1.00
H1033  H     0.60735   0.88044   0.60881   0.00000  Uiso   1.00
H1034  H     0.39277   0.78604   0.89111   0.00000  Uiso   1.00
H1035  H     0.43391   0.81490   0.58925   0.00000  Uiso   1.00
H1036  H     0.56598   0.85178   0.91077   0.00000  Uiso   1.00
I1037  I     0.34375   0.78758   0.58347   0.00000  Uiso   1.00
I1038  I     0.65620   0.87899   0.91647   0.00000  Uiso   1.00
I1039  I     0.34487   0.74256   0.98067   0.00000  Uiso   1.00
I1040  I     0.65533   0.92386   0.51925   0.00000  Uiso   1.00
I1041  I     0.51714   0.71854   0.84413   0.00000  Uiso   1.00
I1042  I     0.48287   0.94812   0.65586   0.00000  Uiso   1.00
N1043  N     0.38093   0.83334   0.75001   0.00000  Uiso   1.00
N1044  N     0.61907   0.83332   0.74999   0.00000  Uiso   1.00
O1045  O     0.46179   0.89442   0.75000   0.00000  Uiso   1.00
O1046  O     0.53821   0.77225   0.74999   0.00000  Uiso   1.00
O1047  O     0.53823   0.89441   0.75000   0.00000  Uiso   1.00
O1048  O     0.46177   0.77226   0.75000   0.00000  Uiso   1.00
O1049  O     0.43994   0.83334   0.81612   0.00000  Uiso   1.00
O1050  O     0.56006   0.83333   0.68387   0.00000  Uiso   1.00
O1051  O     0.51639   0.83333   0.81612   0.00000  Uiso   1.00
O1052  O     0.48361   0.83334   0.68388   0.00000  Uiso   1.00
Zn1053 Zn    0.44896   0.83334   0.75000   0.00000  Uiso   1.00
Zn1054 Zn    0.55104   0.83333   0.75000   0.00000  Uiso   1.00
C1055  C     0.83366   0.91321   0.74918   0.00000  Uiso   1.00
C1056  C     0.82537   0.97882   0.71339   0.00000  Uiso   1.00
C1057  C     0.83294   0.70935   0.75098   0.00000  Uiso   1.00
C1058  C     0.83373   0.95732   0.74902   0.00000  Uiso   1.00
C1059  C     0.98611   0.80387   0.72510   0.00000  Uiso   1.00
C1060  C     0.68056   0.86281   0.77489   0.00000  Uiso   1.00
C1061  C     0.70067   0.80394   0.72498   0.00000  Uiso   1.00
C1062  C     0.96600   0.86273   0.77502   0.00000  Uiso   1.00
C1063  C     0.80259   0.83322   0.83805   0.00000  Uiso   1.00
C1064  C     0.86407   0.83343   0.66195   0.00000  Uiso   1.00
C1065  C     0.78297   0.82865   0.88875   0.00000  Uiso   1.00
C1066  C     0.83300   0.75346   0.75082   0.00000  Uiso   1.00
C1067  C     0.88369   0.83795   0.61125   0.00000  Uiso   1.00
C1068  C     0.73158   0.79107   0.95836   0.00000  Uiso   1.00
C1069  C     0.93515   0.87544   0.54159   0.00000  Uiso   1.00
C1070  C     0.74473   0.80103   0.91108   0.00000  Uiso   1.00
C1071  C     0.92200   0.86549   0.58887   0.00000  Uiso   1.00
C1072  C     0.80904   0.84604   0.91298   0.00000  Uiso   1.00
C1073  C     0.85756   0.82058   0.58704   0.00000  Uiso   1.00
C1074  C     0.80279   0.83083   0.95739   0.00000  Uiso   1.00
C1075  C     0.86384   0.83577   0.54262   0.00000  Uiso   1.00
C1076  C     0.75960   0.80747   0.98314   0.00000  Uiso   1.00
C1077  C     0.78028   0.81490   0.55145   0.00000  Uiso   1.00
C1078  C     0.90707   0.85909   0.51684   0.00000  Uiso   1.00
C1079  C     0.83869   0.83808   0.97640   0.00000  Uiso   1.00
C1080  C     0.82793   0.82852   0.52362   0.00000  Uiso   1.00
C1081  C     0.88632   0.85172   0.94857   0.00000  Uiso   1.00
C1082  C     0.74705   0.80286   0.53195   0.00000  Uiso   1.00
C1083  C     0.91958   0.86372   0.96804   0.00000  Uiso   1.00
C1084  C     0.84175   0.97802   0.78533   0.00000  Uiso   1.00
C1085  C     0.82492   0.68865   0.71467   0.00000  Uiso   1.00
C1086  C     0.84130   0.68785   0.78661   0.00000  Uiso   1.00
F1087  F     0.82732   0.78780   0.60686   0.00000  Uiso   1.00
F1088  F     0.83919   0.87889   0.89323   0.00000  Uiso   1.00
F1089  F     0.84866   0.95609   0.81991   0.00000  Uiso   1.00
F1090  F     0.81801   0.71057   0.68008   0.00000  Uiso   1.00
F1091  F     0.97355   0.77408   0.70042   0.00000  Uiso   1.00
F1092  F     0.69313   0.89262   0.79955   0.00000  Uiso   1.00
F1093  F     0.73334   0.77454   0.69961   0.00000  Uiso   1.00
F1094  F     0.93333   0.89214   0.80038   0.00000  Uiso   1.00
H1095  H     0.94068   0.88044   0.60881   0.00000  Uiso   1.00
H1096  H     0.72611   0.78604   0.89111   0.00000  Uiso   1.00
H1097  H     0.76725   0.81490   0.58925   0.00000  Uiso   1.00
H1098  H     0.89931   0.85178   0.91077   0.00000  Uiso   1.00
I1099  I     0.67708   0.78758   0.58347   0.00000  Uiso   1.00
I1100  I     0.98953   0.87899   0.91647   0.00000  Uiso   1.00
I1101  I     0.67821   0.74256   0.98067   0.00000  Uiso   1.00
I1102  I     0.98867   0.92386   0.51925   0.00000  Uiso   1.00
I1103  I     0.85047   0.71854   0.84413   0.00000  Uiso   1.00
I1104  I     0.81621   0.94812   0.65586   0.00000  Uiso   1.00
N1105  N     0.71426   0.83334   0.75001   0.00000  Uiso   1.00
N1106  N     0.95241   0.83332   0.74999   0.00000  Uiso   1.00
O1107  O     0.79512   0.89442   0.75000   0.00000  Uiso   1.00
O1108  O     0.87154   0.77225   0.74999   0.00000  Uiso   1.00
O1109  O     0.87157   0.89441   0.75000   0.00000  Uiso   1.00
O1110  O     0.79510   0.77226   0.75000   0.00000  Uiso   1.00
O1111  O     0.77328   0.83334   0.81612   0.00000  Uiso   1.00
O1112  O     0.89339   0.83333   0.68387   0.00000  Uiso   1.00
O1113  O     0.84972   0.83333   0.81612   0.00000  Uiso   1.00
O1114  O     0.81695   0.83334   0.68388   0.00000  Uiso   1.00
Zn1115 Zn    0.78229   0.83334   0.75000   0.00000  Uiso   1.00
Zn1116 Zn    0.88438   0.83333   0.75000   0.00000  Uiso   1.00
loop_
_geom_bond_atom_site_label_1
_geom_bond_atom_site_label_2
_geom_bond_distance
_geom_bond_site_symmetry_2
_ccdc_geom_bond_type
C1     C4      1.406   .     S
C1     O55     1.283   .     A
C1     O53     1.282   .     A
C2     C4      1.400   .     A
C2     I50     2.132   .     S
C2     C217    1.376   .     S
C3     C31     1.396   .     A
C3     C32     1.400   .     A
C3     C12     1.406   .     S
C4     C30     1.396   .     A
C5     F37     1.354   .     S
C5     N52     1.367   .     A
C5     C69     1.419   .     S
C6     F38     1.354   .     S
C6     N51     1.367   .     A
C6     C132    1.419   1_455 S
C7     N51     1.368   .     A
C7     F39     1.355   .     S
C7     C129    1.419   1_455 S
C8     N52     1.368   .     A
C8     F40     1.355   .     S
C8     C68     1.419   .     S
C9     C11     1.452   .     S
C9     O57     1.293   .     A
C9     O59     1.296   .     A
C10    O60     1.296   .     A
C10    O58     1.293   .     A
C10    C13     1.452   .     S
C11    C18     1.382   .     A
C11    C16     1.392   .     A
C12    O56     1.283   .     A
C12    O54     1.282   .     A
C13    C17     1.392   .     A
C13    C19     1.382   .     A
C14    I47     2.130   .     S
C14    C22     1.428   .     A
C14    C16     1.396   .     A
C15    I48     2.130   .     S
C15    C24     1.428   .     A
C15    C17     1.396   .     A
C16    H42     1.084   .     S
C17    H41     1.084   .     S
C18    F34     1.361   .     S
C18    C20     1.401   .     A
C19    F33     1.361   .     S
C19    C21     1.400   .     A
C20    C22     1.430   .     A
C20    C25     1.419   .     A
C21    C26     1.420   .     A
C21    C24     1.430   .     A
C22    C586    1.415   .     S
C23    C28     1.392   .     A
C23    H43     1.079   .     S
C23    C26     1.410   .     A
C24    C587    1.415   1_554 S
C25    C27     1.410   .     A
C25    C584    1.403   .     S
C26    C583    1.403   1_554 S
C27    C29     1.392   .     A
C27    H44     1.079   .     S
C28    I45     2.128   .     S
C28    C580    1.415   1_554 S
C29    I46     2.128   .     S
C29    C582    1.415   .     S
C30    F35     1.360   .     S
C30    C218    1.376   .     S
C31    F36     1.360   .     S
C31    C374    1.376   1_545 S
C32    I49     2.132   .     S
C32    C402    1.376   1_545 S
N51    Zn61    2.017   .     S
N52    Zn62    2.017   .     S
O53    Zn61    1.983   .     S
O54    Zn62    1.983   .     S
O55    Zn62    1.983   .     S
O56    Zn61    1.983   .     S
O57    Zn61    1.955   .     S
O58    Zn62    1.955   .     S
O59    Zn62    1.898   .     S
O60    Zn61    1.898   .     S
C63    C66     1.406   .     S
C63    O117    1.283   .     A
C63    O115    1.282   .     A
C64    C66     1.400   .     A
C64    I112    2.132   .     S
C64    C279    1.376   .     S
C65    C93     1.396   .     A
C65    C94     1.400   .     A
C65    C74     1.406   .     S
C66    C92     1.396   .     A
C67    F99     1.354   .     S
C67    N114    1.367   .     A
C67    C131    1.419   .     S
C68    F100    1.354   .     S
C68    N113    1.367   .     A
C69    N113    1.368   .     A
C69    F101    1.355   .     S
C70    N114    1.368   .     A
C70    F102    1.355   .     S
C70    C130    1.419   .     S
C71    C73     1.452   .     S
C71    O119    1.293   .     A
C71    O121    1.296   .     A
C72    O122    1.296   .     A
C72    O120    1.293   .     A
C72    C75     1.452   .     S
C73    C80     1.382   .     A
C73    C78     1.392   .     A
C74    O118    1.283   .     A
C74    O116    1.282   .     A
C75    C79     1.392   .     A
C75    C81     1.382   .     A
C76    I109    2.130   .     S
C76    C84     1.428   .     A
C76    C78     1.396   .     A
C77    I110    2.130   .     S
C77    C86     1.428   .     A
C77    C79     1.396   .     A
C78    H104    1.084   .     S
C79    H103    1.084   .     S
C80    F96     1.361   .     S
C80    C82     1.401   .     A
C81    F95     1.361   .     S
C81    C83     1.400   .     A
C82    C84     1.430   .     A
C82    C87     1.419   .     A
C83    C88     1.420   .     A
C83    C86     1.430   .     A
C84    C648    1.415   .     S
C85    C90     1.392   .     A
C85    H105    1.079   .     S
C85    C88     1.410   .     A
C86    C649    1.415   1_554 S
C87    C89     1.410   .     A
C87    C646    1.403   .     S
C88    C645    1.403   1_554 S
C89    C91     1.392   .     A
C89    H106    1.079   .     S
C90    I107    2.128   .     S
C90    C642    1.415   1_554 S
C91    I108    2.128   .     S
C91    C644    1.415   .     S
C92    F97     1.360   .     S
C92    C280    1.376   .     S
C93    F98     1.360   .     S
C93    C436    1.376   1_545 S
C94    I111    2.132   .     S
C94    C464    1.376   1_545 S
N113   Zn123   2.017   .     S
N114   Zn124   2.017   .     S
O115   Zn123   1.983   .     S
O116   Zn124   1.983   .     S
O117   Zn124   1.983   .     S
O118   Zn123   1.983   .     S
O119   Zn123   1.955   .     S
O120   Zn124   1.955   .     S
O121   Zn124   1.898   .     S
O122   Zn123   1.898   .     S
C125   C128    1.406   .     S
C125   O179    1.283   .     A
C125   O177    1.282   .     A
C126   C128    1.400   .     A
C126   I174    2.132   .     S
C126   C341    1.376   .     S
C127   C155    1.396   .     A
C127   C156    1.400   .     A
C127   C136    1.406   .     S
C128   C154    1.396   .     A
C129   F161    1.354   .     S
C129   N176    1.367   .     A
C129   C7      1.419   1_655 S
C130   F162    1.354   .     S
C130   N175    1.367   .     A
C131   N175    1.368   .     A
C131   F163    1.355   .     S
C132   N176    1.368   .     A
C132   F164    1.355   .     S
C132   C6      1.419   1_655 S
C133   C135    1.452   .     S
C133   O181    1.293   .     A
C133   O183    1.296   .     A
C134   O184    1.296   .     A
C134   O182    1.293   .     A
C134   C137    1.452   .     S
C135   C142    1.382   .     A
C135   C140    1.392   .     A
C136   O180    1.283   .     A
C136   O178    1.282   .     A
C137   C141    1.392   .     A
C137   C143    1.382   .     A
C138   I171    2.130   .     S
C138   C146    1.428   .     A
C138   C140    1.396   .     A
C139   I172    2.130   .     S
C139   C148    1.428   .     A
C139   C141    1.396   .     A
C140   H166    1.084   .     S
C141   H165    1.084   .     S
C142   F158    1.361   .     S
C142   C144    1.401   .     A
C143   F157    1.361   .     S
C143   C145    1.400   .     A
C144   C146    1.430   .     A
C144   C149    1.419   .     A
C145   C150    1.420   .     A
C145   C148    1.430   .     A
C146   C710    1.415   .     S
C147   C152    1.392   .     A
C147   H167    1.079   .     S
C147   C150    1.410   .     A
C148   C711    1.415   1_554 S
C149   C151    1.410   .     A
C149   C708    1.403   .     S
C150   C707    1.403   1_554 S
C151   C153    1.392   .     A
C151   H168    1.079   .     S
C152   I169    2.128   .     S
C152   C704    1.415   1_554 S
C153   I170    2.128   .     S
C153   C706    1.415   .     S
C154   F159    1.360   .     S
C154   C342    1.376   .     S
C155   F160    1.360   .     S
C155   C498    1.376   1_545 S
C156   I173    2.132   .     S
C156   C526    1.376   1_545 S
N175   Zn185   2.017   .     S
N176   Zn186   2.017   .     S
O177   Zn185   1.983   .     S
O178   Zn186   1.983   .     S
O179   Zn186   1.983   .     S
O180   Zn185   1.983   .     S
O181   Zn185   1.955   .     S
O182   Zn186   1.955   .     S
O183   Zn186   1.898   .     S
O184   Zn185   1.898   .     S
C187   C190    1.406   .     S
C187   O241    1.283   .     A
C187   O239    1.282   .     A
C188   C190    1.400   .     A
C188   I236    2.132   .     S
C188   C403    1.376   .     S
C189   C217    1.396   .     A
C189   C218    1.400   .     A
C189   C198    1.406   .     S
C190   C216    1.396   .     A
C191   F223    1.354   .     S
C191   N238    1.367   .     A
C191   C255    1.419   .     S
C192   F224    1.354   .     S
C192   N237    1.367   .     A
C192   C318    1.419   1_455 S
C193   N237    1.368   .     A
C193   F225    1.355   .     S
C193   C315    1.419   1_455 S
C194   N238    1.368   .     A
C194   F226    1.355   .     S
C194   C254    1.419   .     S
C195   C197    1.452   .     S
C195   O243    1.293   .     A
C195   O245    1.296   .     A
C196   O246    1.296   .     A
C196   O244    1.293   .     A
C196   C199    1.452   .     S
C197   C204    1.382   .     A
C197   C202    1.392   .     A
C198   O242    1.283   .     A
C198   O240    1.282   .     A
C199   C203    1.392   .     A
C199   C205    1.382   .     A
C200   I233    2.130   .     S
C200   C208    1.428   .     A
C200   C202    1.396   .     A
C201   I234    2.130   .     S
C201   C210    1.428   .     A
C201   C203    1.396   .     A
C202   H228    1.084   .     S
C203   H227    1.084   .     S
C204   F220    1.361   .     S
C204   C206    1.401   .     A
C205   F219    1.361   .     S
C205   C207    1.400   .     A
C206   C208    1.430   .     A
C206   C211    1.419   .     A
C207   C212    1.420   .     A
C207   C210    1.430   .     A
C208   C772    1.415   .     S
C209   C214    1.392   .     A
C209   H229    1.079   .     S
C209   C212    1.410   .     A
C210   C773    1.415   1_554 S
C211   C213    1.410   .     A
C211   C770    1.403   .     S
C212   C769    1.403   1_554 S
C213   C215    1.392   .     A
C213   H230    1.079   .     S
C214   I231    2.128   .     S
C214   C766    1.415   1_554 S
C215   I232    2.128   .     S
C215   C768    1.415   .     S
C216   F221    1.360   .     S
C216   C404    1.376   .     S
C217   F222    1.360   .     S
C218   I235    2.132   .     S
N237   Zn247   2.017   .     S
N238   Zn248   2.017   .     S
O239   Zn247   1.983   .     S
O240   Zn248   1.983   .     S
O241   Zn248   1.983   .     S
O242   Zn247   1.983   .     S
O243   Zn247   1.955   .     S
O244   Zn248   1.955   .     S
O245   Zn248   1.898   .     S
O246   Zn247   1.898   .     S
C249   C252    1.406   .     S
C249   O303    1.283   .     A
C249   O301    1.282   .     A
C250   C252    1.400   .     A
C250   I298    2.132   .     S
C250   C465    1.376   .     S
C251   C279    1.396   .     A
C251   C280    1.400   .     A
C251   C260    1.406   .     S
C252   C278    1.396   .     A
C253   F285    1.354   .     S
C253   N300    1.367   .     A
C253   C317    1.419   .     S
C254   F286    1.354   .     S
C254   N299    1.367   .     A
C255   N299    1.368   .     A
C255   F287    1.355   .     S
C256   N300    1.368   .     A
C256   F288    1.355   .     S
C256   C316    1.419   .     S
C257   C259    1.452   .     S
C257   O305    1.293   .     A
C257   O307    1.296   .     A
C258   O308    1.296   .     A
C258   O306    1.293   .     A
C258   C261    1.452   .     S
C259   C266    1.382   .     A
C259   C264    1.392   .     A
C260   O304    1.283   .     A
C260   O302    1.282   .     A
C261   C265    1.392   .     A
C261   C267    1.382   .     A
C262   I295    2.130   .     S
C262   C270    1.428   .     A
C262   C264    1.396   .     A
C263   I296    2.130   .     S
C263   C272    1.428   .     A
C263   C265    1.396   .     A
C264   H290    1.084   .     S
C265   H289    1.084   .     S
C266   F282    1.361   .     S
C266   C268    1.401   .     A
C267   F281    1.361   .     S
C267   C269    1.400   .     A
C268   C270    1.430   .     A
C268   C273    1.419   .     A
C269   C274    1.420   .     A
C269   C272    1.430   .     A
C270   C834    1.415   .     S
C271   C276    1.392   .     A
C271   H291    1.079   .     S
C271   C274    1.410   .     A
C272   C835    1.415   1_554 S
C273   C275    1.410   .     A
C273   C832    1.403   .     S
C274   C831    1.403   1_554 S
C275   C277    1.392   .     A
C275   H292    1.079   .     S
C276   I293    2.128   .     S
C276   C828    1.415   1_554 S
C277   I294    2.128   .     S
C277   C830    1.415   .     S
C278   F283    1.360   .     S
C278   C466    1.376   .     S
C279   F284    1.360   .     S
C280   I297    2.132   .     S
N299   Zn309   2.017   .     S
N300   Zn310   2.017   .     S
O301   Zn309   1.983   .     S
O302   Zn310   1.983   .     S
O303   Zn310   1.983   .     S
O304   Zn309   1.983   .     S
O305   Zn309   1.955   .     S
O306   Zn310   1.955   .     S
O307   Zn310   1.898   .     S
O308   Zn309   1.898   .     S
C311   C314    1.406   .     S
C311   O365    1.283   .     A
C311   O363    1.282   .     A
C312   C314    1.400   .     A
C312   I360    2.132   .     S
C312   C527    1.376   .     S
C313   C341    1.396   .     A
C313   C342    1.400   .     A
C313   C322    1.406   .     S
C314   C340    1.396   .     A
C315   F347    1.354   .     S
C315   N362    1.367   .     A
C315   C193    1.419   1_655 S
C316   F348    1.354   .     S
C316   N361    1.367   .     A
C317   N361    1.368   .     A
C317   F349    1.355   .     S
C318   N362    1.368   .     A
C318   F350    1.355   .     S
C318   C192    1.419   1_655 S
C319   C321    1.452   .     S
C319   O367    1.293   .     A
C319   O369    1.296   .     A
C320   O370    1.296   .     A
C320   O368    1.293   .     A
C320   C323    1.452   .     S
C321   C328    1.382   .     A
C321   C326    1.392   .     A
C322   O366    1.283   .     A
C322   O364    1.282   .     A
C323   C327    1.392   .     A
C323   C329    1.382   .     A
C324   I357    2.130   .     S
C324   C332    1.428   .     A
C324   C326    1.396   .     A
C325   I358    2.130   .     S
C325   C334    1.428   .     A
C325   C327    1.396   .     A
C326   H352    1.084   .     S
C327   H351    1.084   .     S
C328   F344    1.361   .     S
C328   C330    1.401   .     A
C329   F343    1.361   .     S
C329   C331    1.400   .     A
C330   C332    1.430   .     A
C330   C335    1.419   .     A
C331   C336    1.420   .     A
C331   C334    1.430   .     A
C332   C896    1.415   .     S
C333   C338    1.392   .     A
C333   H353    1.079   .     S
C333   C336    1.410   .     A
C334   C897    1.415   1_554 S
C335   C337    1.410   .     A
C335   C894    1.403   .     S
C336   C893    1.403   1_554 S
C337   C339    1.392   .     A
C337   H354    1.079   .     S
C338   I355    2.128   .     S
C338   C890    1.415   1_554 S
C339   I356    2.128   .     S
C339   C892    1.415   .     S
C340   F345    1.360   .     S
C340   C528    1.376   .     S
C341   F346    1.360   .     S
C342   I359    2.132   .     S
N361   Zn371   2.017   .     S
N362   Zn372   2.017   .     S
O363   Zn371   1.983   .     S
O364   Zn372   1.983   .     S
O365   Zn372   1.983   .     S
O366   Zn371   1.983   .     S
O367   Zn371   1.955   .     S
O368   Zn372   1.955   .     S
O369   Zn372   1.898   .     S
O370   Zn371   1.898   .     S
C373   C376    1.406   .     S
C373   O427    1.283   .     A
C373   O425    1.282   .     A
C374   C376    1.400   .     A
C374   I422    2.132   .     S
C374   C31     1.376   1_565 S
C375   C403    1.396   .     A
C375   C404    1.400   .     A
C375   C384    1.406   .     S
C376   C402    1.396   .     A
C377   F409    1.354   .     S
C377   N424    1.367   .     A
C377   C441    1.419   .     S
C378   F410    1.354   .     S
C378   N423    1.367   .     A
C378   C504    1.419   1_455 S
C379   N423    1.368   .     A
C379   F411    1.355   .     S
C379   C501    1.419   1_455 S
C380   N424    1.368   .     A
C380   F412    1.355   .     S
C380   C440    1.419   .     S
C381   C383    1.452   .     S
C381   O429    1.293   .     A
C381   O431    1.296   .     A
C382   O432    1.296   .     A
C382   O430    1.293   .     A
C382   C385    1.452   .     S
C383   C390    1.382   .     A
C383   C388    1.392   .     A
C384   O428    1.283   .     A
C384   O426    1.282   .     A
C385   C389    1.392   .     A
C385   C391    1.382   .     A
C386   I419    2.130   .     S
C386   C394    1.428   .     A
C386   C388    1.396   .     A
C387   I420    2.130   .     S
C387   C396    1.428   .     A
C387   C389    1.396   .     A
C388   H414    1.084   .     S
C389   H413    1.084   .     S
C390   F406    1.361   .     S
C390   C392    1.401   .     A
C391   F405    1.361   .     S
C391   C393    1.400   .     A
C392   C394    1.430   .     A
C392   C397    1.419   .     A
C393   C398    1.420   .     A
C393   C396    1.430   .     A
C394   C958    1.415   .     S
C395   C400    1.392   .     A
C395   H415    1.079   .     S
C395   C398    1.410   .     A
C396   C959    1.415   1_554 S
C397   C399    1.410   .     A
C397   C956    1.403   .     S
C398   C955    1.403   1_554 S
C399   C401    1.392   .     A
C399   H416    1.079   .     S
C400   I417    2.128   .     S
C400   C952    1.415   1_554 S
C401   I418    2.128   .     S
C401   C954    1.415   .     S
C402   F407    1.360   .     S
C402   C32     1.376   1_565 S
C403   F408    1.360   .     S
C404   I421    2.132   .     S
N423   Zn433   2.017   .     S
N424   Zn434   2.017   .     S
O425   Zn433   1.983   .     S
O426   Zn434   1.983   .     S
O427   Zn434   1.983   .     S
O428   Zn433   1.983   .     S
O429   Zn433   1.955   .     S
O430   Zn434   1.955   .     S
O431   Zn434   1.898   .     S
O432   Zn433   1.898   .     S
C435   C438    1.406   .     S
C435   O489    1.283   .     A
C435   O487    1.282   .     A
C436   C438    1.400   .     A
C436   I484    2.132   .     S
C436   C93     1.376   1_565 S
C437   C465    1.396   .     A
C437   C466    1.400   .     A
C437   C446    1.406   .     S
C438   C464    1.396   .     A
C439   F471    1.354   .     S
C439   N486    1.367   .     A
C439   C503    1.419   .     S
C440   F472    1.354   .     S
C440   N485    1.367   .     A
C441   N485    1.368   .     A
C441   F473    1.355   .     S
C442   N486    1.368   .     A
C442   F474    1.355   .     S
C442   C502    1.419   .     S
C443   C445    1.452   .     S
C443   O491    1.293   .     A
C443   O493    1.296   .     A
C444   O494    1.296   .     A
C444   O492    1.293   .     A
C444   C447    1.452   .     S
C445   C452    1.382   .     A
C445   C450    1.392   .     A
C446   O490    1.283   .     A
C446   O488    1.282   .     A
C447   C451    1.392   .     A
C447   C453    1.382   .     A
C448   I481    2.130   .     S
C448   C456    1.428   .     A
C448   C450    1.396   .     A
C449   I482    2.130   .     S
C449   C458    1.428   .     A
C449   C451    1.396   .     A
C450   H476    1.084   .     S
C451   H475    1.084   .     S
C452   F468    1.361   .     S
C452   C454    1.401   .     A
C453   F467    1.361   .     S
C453   C455    1.400   .     A
C454   C456    1.430   .     A
C454   C459    1.419   .     A
C455   C460    1.420   .     A
C455   C458    1.430   .     A
C456   C1020   1.415   .     S
C457   C462    1.392   .     A
C457   H477    1.079   .     S
C457   C460    1.410   .     A
C458   C1021   1.415   1_554 S
C459   C461    1.410   .     A
C459   C1018   1.403   .     S
C460   C1017   1.403   1_554 S
C461   C463    1.392   .     A
C461   H478    1.079   .     S
C462   I479    2.128   .     S
C462   C1014   1.415   1_554 S
C463   I480    2.128   .     S
C463   C1016   1.415   .     S
C464   F469    1.360   .     S
C464   C94     1.376   1_565 S
C465   F470    1.360   .     S
C466   I483    2.132   .     S
N485   Zn495   2.017   .     S
N486   Zn496   2.017   .     S
O487   Zn495   1.983   .     S
O488   Zn496   1.983   .     S
O489   Zn496   1.983   .     S
O490   Zn495   1.983   .     S
O491   Zn495   1.955   .     S
O492   Zn496   1.955   .     S
O493   Zn496   1.898   .     S
O494   Zn495   1.898   .     S
C497   C500    1.406   .     S
C497   O551    1.283   .     A
C497   O549    1.282   .     A
C498   C500    1.400   .     A
C498   I546    2.132   .     S
C498   C155    1.376   1_565 S
C499   C527    1.396   .     A
C499   C528    1.400   .     A
C499   C508    1.406   .     S
C500   C526    1.396   .     A
C501   F533    1.354   .     S
C501   N548    1.367   .     A
C501   C379    1.419   1_655 S
C502   F534    1.354   .     S
C502   N547    1.367   .     A
C503   N547    1.368   .     A
C503   F535    1.355   .     S
C504   N548    1.368   .     A
C504   F536    1.355   .     S
C504   C378    1.419   1_655 S
C505   C507    1.452   .     S
C505   O553    1.293   .     A
C505   O555    1.296   .     A
C506   O556    1.296   .     A
C506   O554    1.293   .     A
C506   C509    1.452   .     S
C507   C514    1.382   .     A
C507   C512    1.392   .     A
C508   O552    1.283   .     A
C508   O550    1.282   .     A
C509   C513    1.392   .     A
C509   C515    1.382   .     A
C510   I543    2.130   .     S
C510   C518    1.428   .     A
C510   C512    1.396   .     A
C511   I544    2.130   .     S
C511   C520    1.428   .     A
C511   C513    1.396   .     A
C512   H538    1.084   .     S
C513   H537    1.084   .     S
C514   F530    1.361   .     S
C514   C516    1.401   .     A
C515   F529    1.361   .     S
C515   C517    1.400   .     A
C516   C518    1.430   .     A
C516   C521    1.419   .     A
C517   C522    1.420   .     A
C517   C520    1.430   .     A
C518   C1082   1.415   .     S
C519   C524    1.392   .     A
C519   H539    1.079   .     S
C519   C522    1.410   .     A
C520   C1083   1.415   1_554 S
C521   C523    1.410   .     A
C521   C1080   1.403   .     S
C522   C1079   1.403   1_554 S
C523   C525    1.392   .     A
C523   H540    1.079   .     S
C524   I541    2.128   .     S
C524   C1076   1.415   1_554 S
C525   I542    2.128   .     S
C525   C1078   1.415   .     S
C526   F531    1.360   .     S
C526   C156    1.376   1_565 S
C527   F532    1.360   .     S
C528   I545    2.132   .     S
N547   Zn557   2.017   .     S
N548   Zn558   2.017   .     S
O549   Zn557   1.983   .     S
O550   Zn558   1.983   .     S
O551   Zn558   1.983   .     S
O552   Zn557   1.983   .     S
O553   Zn557   1.955   .     S
O554   Zn558   1.955   .     S
O555   Zn558   1.898   .     S
O556   Zn557   1.898   .     S
C559   C562    1.406   .     S
C559   O613    1.283   .     A
C559   O611    1.282   .     A
C560   C562    1.400   .     A
C560   I608    2.132   .     S
C560   C775    1.376   .     S
C561   C589    1.396   .     A
C561   C590    1.400   .     A
C561   C570    1.406   .     S
C562   C588    1.396   .     A
C563   F595    1.354   .     S
C563   N610    1.367   .     A
C563   C627    1.419   .     S
C564   F596    1.354   .     S
C564   N609    1.367   .     A
C564   C690    1.419   1_455 S
C565   N609    1.368   .     A
C565   F597    1.355   .     S
C565   C687    1.419   1_455 S
C566   N610    1.368   .     A
C566   F598    1.355   .     S
C566   C626    1.419   .     S
C567   C569    1.452   .     S
C567   O615    1.293   .     A
C567   O617    1.296   .     A
C568   O618    1.296   .     A
C568   O616    1.293   .     A
C568   C571    1.452   .     S
C569   C576    1.382   .     A
C569   C574    1.392   .     A
C570   O614    1.283   .     A
C570   O612    1.282   .     A
C571   C575    1.392   .     A
C571   C577    1.382   .     A
C572   I605    2.130   .     S
C572   C580    1.428   .     A
C572   C574    1.396   .     A
C573   I606    2.130   .     S
C573   C582    1.428   .     A
C573   C575    1.396   .     A
C574   H600    1.084   .     S
C575   H599    1.084   .     S
C576   F592    1.361   .     S
C576   C578    1.401   .     A
C577   F591    1.361   .     S
C577   C579    1.400   .     A
C578   C580    1.430   .     A
C578   C583    1.419   .     A
C579   C584    1.420   .     A
C579   C582    1.430   .     A
C580   C28     1.415   1_556 S
C581   C586    1.392   .     A
C581   H601    1.079   .     S
C581   C584    1.410   .     A
C583   C585    1.410   .     A
C583   C26     1.403   1_556 S
C585   C587    1.392   .     A
C585   H602    1.079   .     S
C586   I603    2.128   .     S
C587   I604    2.128   .     S
C587   C24     1.415   1_556 S
C588   F593    1.360   .     S
C588   C776    1.376   .     S
C589   F594    1.360   .     S
C589   C932    1.376   1_545 S
C590   I607    2.132   .     S
C590   C960    1.376   1_545 S
N609   Zn619   2.017   .     S
N610   Zn620   2.017   .     S
O611   Zn619   1.983   .     S
O612   Zn620   1.983   .     S
O613   Zn620   1.983   .     S
O614   Zn619   1.983   .     S
O615   Zn619   1.955   .     S
O616   Zn620   1.955   .     S
O617   Zn620   1.898   .     S
O618   Zn619   1.898   .     S
C621   C624    1.406   .     S
C621   O675    1.283   .     A
C621   O673    1.282   .     A
C622   C624    1.400   .     A
C622   I670    2.132   .     S
C622   C837    1.376   .     S
C623   C651    1.396   .     A
C623   C652    1.400   .     A
C623   C632    1.406   .     S
C624   C650    1.396   .     A
C625   F657    1.354   .     S
C625   N672    1.367   .     A
C625   C689    1.419   .     S
C626   F658    1.354   .     S
C626   N671    1.367   .     A
C627   N671    1.368   .     A
C627   F659    1.355   .     S
C628   N672    1.368   .     A
C628   F660    1.355   .     S
C628   C688    1.419   .     S
C629   C631    1.452   .     S
C629   O677    1.293   .     A
C629   O679    1.296   .     A
C630   O680    1.296   .     A
C630   O678    1.293   .     A
C630   C633    1.452   .     S
C631   C638    1.382   .     A
C631   C636    1.392   .     A
C632   O676    1.283   .     A
C632   O674    1.282   .     A
C633   C637    1.392   .     A
C633   C639    1.382   .     A
C634   I667    2.130   .     S
C634   C642    1.428   .     A
C634   C636    1.396   .     A
C635   I668    2.130   .     S
C635   C644    1.428   .     A
C635   C637    1.396   .     A
C636   H662    1.084   .     S
C637   H661    1.084   .     S
C638   F654    1.361   .     S
C638   C640    1.401   .     A
C639   F653    1.361   .     S
C639   C641    1.400   .     A
C640   C642    1.430   .     A
C640   C645    1.419   .     A
C641   C646    1.420   .     A
C641   C644    1.430   .     A
C642   C90     1.415   1_556 S
C643   C648    1.392   .     A
C643   H663    1.079   .     S
C643   C646    1.410   .     A
C645   C647    1.410   .     A
C645   C88     1.403   1_556 S
C647   C649    1.392   .     A
C647   H664    1.079   .     S
C648   I665    2.128   .     S
C649   I666    2.128   .     S
C649   C86     1.415   1_556 S
C650   F655    1.360   .     S
C650   C838    1.376   .     S
C651   F656    1.360   .     S
C651   C994    1.376   1_545 S
C652   I669    2.132   .     S
C652   C1022   1.376   1_545 S
N671   Zn681   2.017   .     S
N672   Zn682   2.017   .     S
O673   Zn681   1.983   .     S
O674   Zn682   1.983   .     S
O675   Zn682   1.983   .     S
O676   Zn681   1.983   .     S
O677   Zn681   1.955   .     S
O678   Zn682   1.955   .     S
O679   Zn682   1.898   .     S
O680   Zn681   1.898   .     S
C683   C686    1.406   .     S
C683   O737    1.283   .     A
C683   O735    1.282   .     A
C684   C686    1.400   .     A
C684   I732    2.132   .     S
C684   C899    1.376   .     S
C685   C713    1.396   .     A
C685   C714    1.400   .     A
C685   C694    1.406   .     S
C686   C712    1.396   .     A
C687   F719    1.354   .     S
C687   N734    1.367   .     A
C687   C565    1.419   1_655 S
C688   F720    1.354   .     S
C688   N733    1.367   .     A
C689   N733    1.368   .     A
C689   F721    1.355   .     S
C690   N734    1.368   .     A
C690   F722    1.355   .     S
C690   C564    1.419   1_655 S
C691   C693    1.452   .     S
C691   O739    1.293   .     A
C691   O741    1.296   .     A
C692   O742    1.296   .     A
C692   O740    1.293   .     A
C692   C695    1.452   .     S
C693   C700    1.382   .     A
C693   C698    1.392   .     A
C694   O738    1.283   .     A
C694   O736    1.282   .     A
C695   C699    1.392   .     A
C695   C701    1.382   .     A
C696   I729    2.130   .     S
C696   C704    1.428   .     A
C696   C698    1.396   .     A
C697   I730    2.130   .     S
C697   C706    1.428   .     A
C697   C699    1.396   .     A
C698   H724    1.084   .     S
C699   H723    1.084   .     S
C700   F716    1.361   .     S
C700   C702    1.401   .     A
C701   F715    1.361   .     S
C701   C703    1.400   .     A
C702   C704    1.430   .     A
C702   C707    1.419   .     A
C703   C708    1.420   .     A
C703   C706    1.430   .     A
C704   C152    1.415   1_556 S
C705   C710    1.392   .     A
C705   H725    1.079   .     S
C705   C708    1.410   .     A
C707   C709    1.410   .     A
C707   C150    1.403   1_556 S
C709   C711    1.392   .     A
C709   H726    1.079   .     S
C710   I727    2.128   .     S
C711   I728    2.128   .     S
C711   C148    1.415   1_556 S
C712   F717    1.360   .     S
C712   C900    1.376   .     S
C713   F718    1.360   .     S
C713   C1056   1.376   1_545 S
C714   I731    2.132   .     S
C714   C1084   1.376   1_545 S
N733   Zn743   2.017   .     S
N734   Zn744   2.017   .     S
O735   Zn743   1.983   .     S
O736   Zn744   1.983   .     S
O737   Zn744   1.983   .     S
O738   Zn743   1.983   .     S
O739   Zn743   1.955   .     S
O740   Zn744   1.955   .     S
O741   Zn744   1.898   .     S
O742   Zn743   1.898   .     S
C745   C748    1.406   .     S
C745   O799    1.283   .     A
C745   O797    1.282   .     A
C746   C748    1.400   .     A
C746   I794    2.132   .     S
C746   C961    1.376   .     S
C747   C775    1.396   .     A
C747   C776    1.400   .     A
C747   C756    1.406   .     S
C748   C774    1.396   .     A
C749   F781    1.354   .     S
C749   N796    1.367   .     A
C749   C813    1.419   .     S
C750   F782    1.354   .     S
C750   N795    1.367   .     A
C750   C876    1.419   1_455 S
C751   N795    1.368   .     A
C751   F783    1.355   .     S
C751   C873    1.419   1_455 S
C752   N796    1.368   .     A
C752   F784    1.355   .     S
C752   C812    1.419   .     S
C753   C755    1.452   .     S
C753   O801    1.293   .     A
C753   O803    1.296   .     A
C754   O804    1.296   .     A
C754   O802    1.293   .     A
C754   C757    1.452   .     S
C755   C762    1.382   .     A
C755   C760    1.392   .     A
C756   O800    1.283   .     A
C756   O798    1.282   .     A
C757   C761    1.392   .     A
C757   C763    1.382   .     A
C758   I791    2.130   .     S
C758   C766    1.428   .     A
C758   C760    1.396   .     A
C759   I792    2.130   .     S
C759   C768    1.428   .     A
C759   C761    1.396   .     A
C760   H786    1.084   .     S
C761   H785    1.084   .     S
C762   F778    1.361   .     S
C762   C764    1.401   .     A
C763   F777    1.361   .     S
C763   C765    1.400   .     A
C764   C766    1.430   .     A
C764   C769    1.419   .     A
C765   C770    1.420   .     A
C765   C768    1.430   .     A
C766   C214    1.415   1_556 S
C767   C772    1.392   .     A
C767   H787    1.079   .     S
C767   C770    1.410   .     A
C769   C771    1.410   .     A
C769   C212    1.403   1_556 S
C771   C773    1.392   .     A
C771   H788    1.079   .     S
C772   I789    2.128   .     S
C773   I790    2.128   .     S
C773   C210    1.415   1_556 S
C774   F779    1.360   .     S
C774   C962    1.376   .     S
C775   F780    1.360   .     S
C776   I793    2.132   .     S
N795   Zn805   2.017   .     S
N796   Zn806   2.017   .     S
O797   Zn805   1.983   .     S
O798   Zn806   1.983   .     S
O799   Zn806   1.983   .     S
O800   Zn805   1.983   .     S
O801   Zn805   1.955   .     S
O802   Zn806   1.955   .     S
O803   Zn806   1.898   .     S
O804   Zn805   1.898   .     S
C807   C810    1.406   .     S
C807   O861    1.283   .     A
C807   O859    1.282   .     A
C808   C810    1.400   .     A
C808   I856    2.132   .     S
C808   C1023   1.376   .     S
C809   C837    1.396   .     A
C809   C838    1.400   .     A
C809   C818    1.406   .     S
C810   C836    1.396   .     A
C811   F843    1.354   .     S
C811   N858    1.367   .     A
C811   C875    1.419   .     S
C812   F844    1.354   .     S
C812   N857    1.367   .     A
C813   N857    1.368   .     A
C813   F845    1.355   .     S
C814   N858    1.368   .     A
C814   F846    1.355   .     S
C814   C874    1.419   .     S
C815   C817    1.452   .     S
C815   O863    1.293   .     A
C815   O865    1.296   .     A
C816   O866    1.296   .     A
C816   O864    1.293   .     A
C816   C819    1.452   .     S
C817   C824    1.382   .     A
C817   C822    1.392   .     A
C818   O862    1.283   .     A
C818   O860    1.282   .     A
C819   C823    1.392   .     A
C819   C825    1.382   .     A
C820   I853    2.130   .     S
C820   C828    1.428   .     A
C820   C822    1.396   .     A
C821   I854    2.130   .     S
C821   C830    1.428   .     A
C821   C823    1.396   .     A
C822   H848    1.084   .     S
C823   H847    1.084   .     S
C824   F840    1.361   .     S
C824   C826    1.401   .     A
C825   F839    1.361   .     S
C825   C827    1.400   .     A
C826   C828    1.430   .     A
C826   C831    1.419   .     A
C827   C832    1.420   .     A
C827   C830    1.430   .     A
C828   C276    1.415   1_556 S
C829   C834    1.392   .     A
C829   H849    1.079   .     S
C829   C832    1.410   .     A
C831   C833    1.410   .     A
C831   C274    1.403   1_556 S
C833   C835    1.392   .     A
C833   H850    1.079   .     S
C834   I851    2.128   .     S
C835   I852    2.128   .     S
C835   C272    1.415   1_556 S
C836   F841    1.360   .     S
C836   C1024   1.376   .     S
C837   F842    1.360   .     S
C838   I855    2.132   .     S
N857   Zn867   2.017   .     S
N858   Zn868   2.017   .     S
O859   Zn867   1.983   .     S
O860   Zn868   1.983   .     S
O861   Zn868   1.983   .     S
O862   Zn867   1.983   .     S
O863   Zn867   1.955   .     S
O864   Zn868   1.955   .     S
O865   Zn868   1.898   .     S
O866   Zn867   1.898   .     S
C869   C872    1.406   .     S
C869   O923    1.283   .     A
C869   O921    1.282   .     A
C870   C872    1.400   .     A
C870   I918    2.132   .     S
C870   C1085   1.376   .     S
C871   C899    1.396   .     A
C871   C900    1.400   .     A
C871   C880    1.406   .     S
C872   C898    1.396   .     A
C873   F905    1.354   .     S
C873   N920    1.367   .     A
C873   C751    1.419   1_655 S
C874   F906    1.354   .     S
C874   N919    1.367   .     A
C875   N919    1.368   .     A
C875   F907    1.355   .     S
C876   N920    1.368   .     A
C876   F908    1.355   .     S
C876   C750    1.419   1_655 S
C877   C879    1.452   .     S
C877   O925    1.293   .     A
C877   O927    1.296   .     A
C878   O928    1.296   .     A
C878   O926    1.293   .     A
C878   C881    1.452   .     S
C879   C886    1.382   .     A
C879   C884    1.392   .     A
C880   O924    1.283   .     A
C880   O922    1.282   .     A
C881   C885    1.392   .     A
C881   C887    1.382   .     A
C882   I915    2.130   .     S
C882   C890    1.428   .     A
C882   C884    1.396   .     A
C883   I916    2.130   .     S
C883   C892    1.428   .     A
C883   C885    1.396   .     A
C884   H910    1.084   .     S
C885   H909    1.084   .     S
C886   F902    1.361   .     S
C886   C888    1.401   .     A
C887   F901    1.361   .     S
C887   C889    1.400   .     A
C888   C890    1.430   .     A
C888   C893    1.419   .     A
C889   C894    1.420   .     A
C889   C892    1.430   .     A
C890   C338    1.415   1_556 S
C891   C896    1.392   .     A
C891   H911    1.079   .     S
C891   C894    1.410   .     A
C893   C895    1.410   .     A
C893   C336    1.403   1_556 S
C895   C897    1.392   .     A
C895   H912    1.079   .     S
C896   I913    2.128   .     S
C897   I914    2.128   .     S
C897   C334    1.415   1_556 S
C898   F903    1.360   .     S
C898   C1086   1.376   .     S
C899   F904    1.360   .     S
C900   I917    2.132   .     S
N919   Zn929   2.017   .     S
N920   Zn930   2.017   .     S
O921   Zn929   1.983   .     S
O922   Zn930   1.983   .     S
O923   Zn930   1.983   .     S
O924   Zn929   1.983   .     S
O925   Zn929   1.955   .     S
O926   Zn930   1.955   .     S
O927   Zn930   1.898   .     S
O928   Zn929   1.898   .     S
C931   C934    1.406   .     S
C931   O985    1.283   .     A
C931   O983    1.282   .     A
C932   C934    1.400   .     A
C932   I980    2.132   .     S
C932   C589    1.376   1_565 S
C933   C961    1.396   .     A
C933   C962    1.400   .     A
C933   C942    1.406   .     S
C934   C960    1.396   .     A
C935   F967    1.354   .     S
C935   N982    1.367   .     A
C935   C999    1.419   .     S
C936   F968    1.354   .     S
C936   N981    1.367   .     A
C936   C1062   1.419   1_455 S
C937   N981    1.368   .     A
C937   F969    1.355   .     S
C937   C1059   1.419   1_455 S
C938   N982    1.368   .     A
C938   F970    1.355   .     S
C938   C998    1.419   .     S
C939   C941    1.452   .     S
C939   O987    1.293   .     A
C939   O989    1.296   .     A
C940   O990    1.296   .     A
C940   O988    1.293   .     A
C940   C943    1.452   .     S
C941   C948    1.382   .     A
C941   C946    1.392   .     A
C942   O986    1.283   .     A
C942   O984    1.282   .     A
C943   C947    1.392   .     A
C943   C949    1.382   .     A
C944   I977    2.130   .     S
C944   C952    1.428   .     A
C944   C946    1.396   .     A
C945   I978    2.130   .     S
C945   C954    1.428   .     A
C945   C947    1.396   .     A
C946   H972    1.084   .     S
C947   H971    1.084   .     S
C948   F964    1.361   .     S
C948   C950    1.401   .     A
C949   F963    1.361   .     S
C949   C951    1.400   .     A
C950   C952    1.430   .     A
C950   C955    1.419   .     A
C951   C956    1.420   .     A
C951   C954    1.430   .     A
C952   C400    1.415   1_556 S
C953   C958    1.392   .     A
C953   H973    1.079   .     S
C953   C956    1.410   .     A
C955   C957    1.410   .     A
C955   C398    1.403   1_556 S
C957   C959    1.392   .     A
C957   H974    1.079   .     S
C958   I975    2.128   .     S
C959   I976    2.128   .     S
C959   C396    1.415   1_556 S
C960   F965    1.360   .     S
C960   C590    1.376   1_565 S
C961   F966    1.360   .     S
C962   I979    2.132   .     S
N981   Zn991   2.017   .     S
N982   Zn992   2.017   .     S
O983   Zn991   1.983   .     S
O984   Zn992   1.983   .     S
O985   Zn992   1.983   .     S
O986   Zn991   1.983   .     S
O987   Zn991   1.955   .     S
O988   Zn992   1.955   .     S
O989   Zn992   1.898   .     S
O990   Zn991   1.898   .     S
C993   C996    1.406   .     S
C993   O1047   1.283   .     A
C993   O1045   1.282   .     A
C994   C996    1.400   .     A
C994   I1042   2.132   .     S
C994   C651    1.376   1_565 S
C995   C1023   1.396   .     A
C995   C1024   1.400   .     A
C995   C1004   1.406   .     S
C996   C1022   1.396   .     A
C997   F1029   1.354   .     S
C997   N1044   1.367   .     A
C997   C1061   1.419   .     S
C998   F1030   1.354   .     S
C998   N1043   1.367   .     A
C999   N1043   1.368   .     A
C999   F1031   1.355   .     S
C1000  N1044   1.368   .     A
C1000  F1032   1.355   .     S
C1000  C1060   1.419   .     S
C1001  C1003   1.452   .     S
C1001  O1049   1.293   .     A
C1001  O1051   1.296   .     A
C1002  O1052   1.296   .     A
C1002  O1050   1.293   .     A
C1002  C1005   1.452   .     S
C1003  C1010   1.382   .     A
C1003  C1008   1.392   .     A
C1004  O1048   1.283   .     A
C1004  O1046   1.282   .     A
C1005  C1009   1.392   .     A
C1005  C1011   1.382   .     A
C1006  I1039   2.130   .     S
C1006  C1014   1.428   .     A
C1006  C1008   1.396   .     A
C1007  I1040   2.130   .     S
C1007  C1016   1.428   .     A
C1007  C1009   1.396   .     A
C1008  H1034   1.084   .     S
C1009  H1033   1.084   .     S
C1010  F1026   1.361   .     S
C1010  C1012   1.401   .     A
C1011  F1025   1.361   .     S
C1011  C1013   1.400   .     A
C1012  C1014   1.430   .     A
C1012  C1017   1.419   .     A
C1013  C1018   1.420   .     A
C1013  C1016   1.430   .     A
C1014  C462    1.415   1_556 S
C1015  C1020   1.392   .     A
C1015  H1035   1.079   .     S
C1015  C1018   1.410   .     A
C1017  C1019   1.410   .     A
C1017  C460    1.403   1_556 S
C1019  C1021   1.392   .     A
C1019  H1036   1.079   .     S
C1020  I1037   2.128   .     S
C1021  I1038   2.128   .     S
C1021  C458    1.415   1_556 S
C1022  F1027   1.360   .     S
C1022  C652    1.376   1_565 S
C1023  F1028   1.360   .     S
C1024  I1041   2.132   .     S
N1043  Zn1053  2.017   .     S
N1044  Zn1054  2.017   .     S
O1045  Zn1053  1.983   .     S
O1046  Zn1054  1.983   .     S
O1047  Zn1054  1.983   .     S
O1048  Zn1053  1.983   .     S
O1049  Zn1053  1.955   .     S
O1050  Zn1054  1.955   .     S
O1051  Zn1054  1.898   .     S
O1052  Zn1053  1.898   .     S
C1055  C1058   1.406   .     S
C1055  O1109   1.283   .     A
C1055  O1107   1.282   .     A
C1056  C1058   1.400   .     A
C1056  I1104   2.132   .     S
C1056  C713    1.376   1_565 S
C1057  C1085   1.396   .     A
C1057  C1086   1.400   .     A
C1057  C1066   1.406   .     S
C1058  C1084   1.396   .     A
C1059  F1091   1.354   .     S
C1059  N1106   1.367   .     A
C1059  C937    1.419   1_655 S
C1060  F1092   1.354   .     S
C1060  N1105   1.367   .     A
C1061  N1105   1.368   .     A
C1061  F1093   1.355   .     S
C1062  N1106   1.368   .     A
C1062  F1094   1.355   .     S
C1062  C936    1.419   1_655 S
C1063  C1065   1.452   .     S
C1063  O1111   1.293   .     A
C1063  O1113   1.296   .     A
C1064  O1114   1.296   .     A
C1064  O1112   1.293   .     A
C1064  C1067   1.452   .     S
C1065  C1072   1.382   .     A
C1065  C1070   1.392   .     A
C1066  O1110   1.283   .     A
C1066  O1108   1.282   .     A
C1067  C1071   1.392   .     A
C1067  C1073   1.382   .     A
C1068  I1101   2.130   .     S
C1068  C1076   1.428   .     A
C1068  C1070   1.396   .     A
C1069  I1102   2.130   .     S
C1069  C1078   1.428   .     A
C1069  C1071   1.396   .     A
C1070  H1096   1.084   .     S
C1071  H1095   1.084   .     S
C1072  F1088   1.361   .     S
C1072  C1074   1.401   .     A
C1073  F1087   1.361   .     S
C1073  C1075   1.400   .     A
C1074  C1076   1.430   .     A
C1074  C1079   1.419   .     A
C1075  C1080   1.420   .     A
C1075  C1078   1.430   .     A
C1076  C524    1.415   1_556 S
C1077  C1082   1.392   .     A
C1077  H1097   1.079   .     S
C1077  C1080   1.410   .     A
C1079  C1081   1.410   .     A
C1079  C522    1.403   1_556 S
C1081  C1083   1.392   .     A
C1081  H1098   1.079   .     S
C1082  I1099   2.128   .     S
C1083  I1100   2.128   .     S
C1083  C520    1.415   1_556 S
C1084  F1089   1.360   .     S
C1084  C714    1.376   1_565 S
C1085  F1090   1.360   .     S
C1086  I1103   2.132   .     S
N1105  Zn1115  2.017   .     S
N1106  Zn1116  2.017   .     S
O1107  Zn1115  1.983   .     S
O1108  Zn1116  1.983   .     S
O1109  Zn1116  1.983   .     S
O1110  Zn1115  1.983   .     S
O1111  Zn1115  1.955   .     S
O1112  Zn1116  1.955   .     S
O1113  Zn1116  1.898   .     S
O1114  Zn1115  1.898   .     S
