data_str_m3_o1_o1_pcu_sym.50
_audit_creation_date              2020-01-03
_audit_creation_method            'Materials Studio'
_symmetry_space_group_name_H-M    'P1'
_symmetry_Int_Tables_number       1
_symmetry_cell_setting            triclinic
loop_
_symmetry_equiv_pos_as_xyz
  x,y,z
_cell_length_a                    31.0427
_cell_length_b                    29.0772
_cell_length_c                    30.2798
_cell_angle_alpha                 90.0006
_cell_angle_beta                  89.2123
_cell_angle_gamma                 90.0007
loop_
_atom_site_label
_atom_site_type_symbol
_atom_site_fract_x
_atom_site_fract_y
_atom_site_fract_z
_atom_site_U_iso_or_equiv
_atom_site_adp_type
_atom_site_occupancy
C1     C     0.05985   0.19031   0.16642   0.00000  Uiso   1.00
C2     C     0.00508   0.21025   0.31022   0.00000  Uiso   1.00
C3     C     0.49492   0.21025   0.02312   0.00000  Uiso   1.00
C4     C     0.49608   0.29030   0.31000   0.00000  Uiso   1.00
C5     C     0.25392   0.04030   0.02333   0.00000  Uiso   1.00
C6     C     0.25508   0.46025   0.31022   0.00000  Uiso   1.00
C7     C     0.24492   0.46025   0.02312   0.00000  Uiso   1.00
C8     C     0.24608   0.04030   0.31000   0.00000  Uiso   1.00
C9     C     0.37485   0.16064   0.13535   0.00000  Uiso   1.00
C10    C     0.12352   0.34150   0.19967   0.00000  Uiso   1.00
C11    C     0.09275   0.37832   0.13506   0.00000  Uiso   1.00
C12    C     0.44036   0.31002   0.16679   0.00000  Uiso   1.00
C13    C     0.40545   0.12406   0.20022   0.00000  Uiso   1.00
C14    C     0.12515   0.16064   0.19799   0.00000  Uiso   1.00
C15    C     0.37650   0.34153   0.13363   0.00000  Uiso   1.00
C16    C     0.40723   0.37830   0.19829   0.00000  Uiso   1.00
C17    C     0.09456   0.12406   0.13311   0.00000  Uiso   1.00
C18    C     0.12484   0.41065   0.13536   0.00000  Uiso   1.00
C19    C     0.37351   0.09152   0.19969   0.00000  Uiso   1.00
C20    C     0.34276   0.12831   0.13505   0.00000  Uiso   1.00
C21    C     0.15546   0.37404   0.20021   0.00000  Uiso   1.00
C22    C     0.37515   0.41064   0.19799   0.00000  Uiso   1.00
C23    C     0.44015   0.19031   0.16692   0.00000  Uiso   1.00
C24    C     0.12650   0.09153   0.13364   0.00000  Uiso   1.00
C25    C     0.15723   0.12831   0.19829   0.00000  Uiso   1.00
C26    C     0.34457   0.37407   0.13310   0.00000  Uiso   1.00
C27    C     0.09262   0.34353   0.16673   0.00000  Uiso   1.00
C28    C     0.40634   0.15789   0.16756   0.00000  Uiso   1.00
C29    C     0.40738   0.34353   0.16660   0.00000  Uiso   1.00
C30    C     0.09366   0.15789   0.16578   0.00000  Uiso   1.00
C31    C     0.34262   0.09353   0.16674   0.00000  Uiso   1.00
C32    C     0.15634   0.40788   0.16755   0.00000  Uiso   1.00
C33    C     0.15738   0.09353   0.16660   0.00000  Uiso   1.00
C34    C     0.05964   0.31002   0.16654   0.00000  Uiso   1.00
C35    C     0.34366   0.40789   0.16578   0.00000  Uiso   1.00
C36    C     0.02144   0.33459   0.04304   0.00000  Uiso   1.00
C37    C     0.48843   0.36281   0.07044   0.00000  Uiso   1.00
C38    C     0.48999   0.41441   0.06082   0.00000  Uiso   1.00
C39    C     0.03371   0.17116   0.29425   0.00000  Uiso   1.00
C40    C     0.01029   0.13267   0.26947   0.00000  Uiso   1.00
C41    C     0.03938   0.09089   0.26254   0.00000  Uiso   1.00
C42    C     0.46629   0.17116   0.03908   0.00000  Uiso   1.00
C43    C     0.48971   0.13267   0.06386   0.00000  Uiso   1.00
C44    C     0.46062   0.09089   0.07080   0.00000  Uiso   1.00
C45    C     0.30985   0.44031   0.16642   0.00000  Uiso   1.00
C46    C     0.47857   0.33459   0.29029   0.00000  Uiso   1.00
C47    C     0.01157   0.36281   0.26289   0.00000  Uiso   1.00
C48    C     0.01004   0.41441   0.27252   0.00000  Uiso   1.00
C49    C     0.27144   0.08459   0.04304   0.00000  Uiso   1.00
C50    C     0.23843   0.11281   0.07044   0.00000  Uiso   1.00
C51    C     0.23998   0.16441   0.06081   0.00000  Uiso   1.00
C52    C     0.28371   0.42116   0.29425   0.00000  Uiso   1.00
C53    C     0.26029   0.38267   0.26947   0.00000  Uiso   1.00
C54    C     0.28938   0.34089   0.26254   0.00000  Uiso   1.00
C55    C     0.21629   0.42116   0.03908   0.00000  Uiso   1.00
C56    C     0.19036   0.06002   0.16679   0.00000  Uiso   1.00
C57    C     0.23971   0.38267   0.06386   0.00000  Uiso   1.00
C58    C     0.21061   0.34089   0.07081   0.00000  Uiso   1.00
C59    C     0.22856   0.08459   0.29029   0.00000  Uiso   1.00
C60    C     0.26156   0.11281   0.26290   0.00000  Uiso   1.00
C61    C     0.26002   0.16441   0.27252   0.00000  Uiso   1.00
C62    C     0.19015   0.44031   0.16691   0.00000  Uiso   1.00
C63    C     0.30964   0.06002   0.16654   0.00000  Uiso   1.00
C64    C     0.00393   0.29030   0.02333   0.00000  Uiso   1.00
H65    H     0.37498   0.18779   0.11081   0.00000  Uiso   1.00
H66    H     0.37316   0.06465   0.22451   0.00000  Uiso   1.00
H67    H     0.31798   0.13114   0.11077   0.00000  Uiso   1.00
H68    H     0.17961   0.37223   0.22545   0.00000  Uiso   1.00
H69    H     0.37501   0.43777   0.22254   0.00000  Uiso   1.00
H70    H     0.12685   0.06466   0.10881   0.00000  Uiso   1.00
H71    H     0.18201   0.13113   0.22257   0.00000  Uiso   1.00
H72    H     0.32043   0.37228   0.10784   0.00000  Uiso   1.00
H73    H     0.02368   0.42727   0.06065   0.00000  Uiso   1.00
H74    H     0.47486   0.42203   0.02873   0.00000  Uiso   1.00
H75    H     0.47145   0.43316   0.08679   0.00000  Uiso   1.00
H76    H     0.12318   0.31462   0.22449   0.00000  Uiso   1.00
H77    H     0.45508   0.35061   0.06448   0.00000  Uiso   1.00
H78    H     0.49576   0.35918   0.10587   0.00000  Uiso   1.00
H79    H     0.05121   0.32698   0.06075   0.00000  Uiso   1.00
H80    H     0.03476   0.35661   0.01636   0.00000  Uiso   1.00
H81    H     0.06908   0.10065   0.24407   0.00000  Uiso   1.00
H82    H     0.04836   0.07587   0.29487   0.00000  Uiso   1.00
H83    H     0.02205   0.06435   0.24329   0.00000  Uiso   1.00
H84    H     0.48132   0.12116   0.28805   0.00000  Uiso   1.00
H85    H     0.00001   0.14488   0.23684   0.00000  Uiso   1.00
H86    H     0.06147   0.18495   0.27542   0.00000  Uiso   1.00
H87    H     0.06796   0.38116   0.11079   0.00000  Uiso   1.00
H88    H     0.05004   0.15571   0.32300   0.00000  Uiso   1.00
H89    H     0.43092   0.10065   0.08927   0.00000  Uiso   1.00
H90    H     0.45164   0.07587   0.03847   0.00000  Uiso   1.00
H91    H     0.47795   0.06435   0.09004   0.00000  Uiso   1.00
H92    H     0.01868   0.12116   0.04528   0.00000  Uiso   1.00
H93    H    -0.00000   0.14488   0.09649   0.00000  Uiso   1.00
H94    H     0.43853   0.18495   0.05791   0.00000  Uiso   1.00
H95    H     0.44996   0.15571   0.01034   0.00000  Uiso   1.00
H96    H     0.47635   0.42727   0.27272   0.00000  Uiso   1.00
H97    H     0.02518   0.42202   0.30461   0.00000  Uiso   1.00
H98    H     0.42959   0.12226   0.22547   0.00000  Uiso   1.00
H99    H     0.02856   0.43315   0.24655   0.00000  Uiso   1.00
H100   H     0.04492   0.35060   0.26884   0.00000  Uiso   1.00
H101   H     0.00424   0.35919   0.22746   0.00000  Uiso   1.00
H102   H     0.44880   0.32697   0.27259   0.00000  Uiso   1.00
H103   H     0.46525   0.35661   0.31697   0.00000  Uiso   1.00
H104   H     0.27366   0.17727   0.06063   0.00000  Uiso   1.00
H105   H     0.22484   0.17202   0.02872   0.00000  Uiso   1.00
H106   H     0.22145   0.18316   0.08678   0.00000  Uiso   1.00
H107   H     0.20508   0.10061   0.06449   0.00000  Uiso   1.00
H108   H     0.24576   0.10919   0.10587   0.00000  Uiso   1.00
H109   H     0.12502   0.18778   0.22253   0.00000  Uiso   1.00
H110   H     0.30121   0.07697   0.06074   0.00000  Uiso   1.00
H111   H     0.28476   0.10661   0.01636   0.00000  Uiso   1.00
H112   H     0.31908   0.35064   0.24407   0.00000  Uiso   1.00
H113   H     0.29835   0.32587   0.29487   0.00000  Uiso   1.00
H114   H     0.27204   0.31435   0.24330   0.00000  Uiso   1.00
H115   H     0.23132   0.37117   0.28805   0.00000  Uiso   1.00
H116   H     0.25001   0.39488   0.23684   0.00000  Uiso   1.00
H117   H     0.31147   0.43495   0.27542   0.00000  Uiso   1.00
H118   H     0.30004   0.40571   0.32300   0.00000  Uiso   1.00
H119   H     0.18091   0.35066   0.08928   0.00000  Uiso   1.00
H120   H     0.37686   0.31467   0.10880   0.00000  Uiso   1.00
H121   H     0.20162   0.32587   0.03848   0.00000  Uiso   1.00
H122   H     0.22794   0.31436   0.09005   0.00000  Uiso   1.00
H123   H     0.26867   0.37115   0.04527   0.00000  Uiso   1.00
H124   H     0.25000   0.39488   0.09649   0.00000  Uiso   1.00
H125   H     0.18853   0.43495   0.05791   0.00000  Uiso   1.00
H126   H     0.19996   0.40571   0.01034   0.00000  Uiso   1.00
H127   H     0.22633   0.17727   0.27272   0.00000  Uiso   1.00
H128   H     0.27517   0.17202   0.30460   0.00000  Uiso   1.00
H129   H     0.27854   0.18316   0.24654   0.00000  Uiso   1.00
H130   H     0.29492   0.10061   0.26885   0.00000  Uiso   1.00
H131   H     0.43201   0.38112   0.22258   0.00000  Uiso   1.00
H132   H     0.25423   0.10919   0.22746   0.00000  Uiso   1.00
H133   H     0.19879   0.07697   0.27259   0.00000  Uiso   1.00
H134   H     0.21524   0.10661   0.31698   0.00000  Uiso   1.00
H135   H     0.07042   0.12227   0.10785   0.00000  Uiso   1.00
H136   H     0.12496   0.43780   0.11083   0.00000  Uiso   1.00
N137   N     0.00000   0.25000   0.28573   0.00000  Uiso   1.00
N138   N     0.00000   0.25000   0.04760   0.00000  Uiso   1.00
N139   N     0.25000   0.00000   0.28573   0.00000  Uiso   1.00
N140   N     0.25000   0.00000   0.04760   0.00000  Uiso   1.00
O141   O     0.04581   0.20419   0.20487   0.00000  Uiso   1.00
O142   O     0.20420   0.04581   0.12846   0.00000  Uiso   1.00
O143   O     0.20420   0.04581   0.20487   0.00000  Uiso   1.00
O144   O     0.29581   0.45419   0.12846   0.00000  Uiso   1.00
O145   O     0.20420   0.45419   0.12846   0.00000  Uiso   1.00
O146   O     0.29581   0.04581   0.20487   0.00000  Uiso   1.00
O147   O     0.29581   0.04581   0.12846   0.00000  Uiso   1.00
O148   O     0.20420   0.45419   0.20487   0.00000  Uiso   1.00
O149   O     0.45420   0.29581   0.12846   0.00000  Uiso   1.00
O150   O     0.45420   0.29581   0.20487   0.00000  Uiso   1.00
O151   O     0.04581   0.20419   0.12846   0.00000  Uiso   1.00
O152   O     0.45420   0.20419   0.12846   0.00000  Uiso   1.00
O153   O     0.04581   0.29581   0.20487   0.00000  Uiso   1.00
O154   O     0.04581   0.29581   0.12846   0.00000  Uiso   1.00
O155   O     0.45420   0.20419   0.20487   0.00000  Uiso   1.00
O156   O     0.29581   0.45419   0.20487   0.00000  Uiso   1.00
Zn157  Zn    0.00000   0.25000   0.21771   0.00000  Uiso   1.00
Zn158  Zn    0.00000   0.25000   0.11563   0.00000  Uiso   1.00
Zn159  Zn    0.25000   0.00000   0.21771   0.00000  Uiso   1.00
Zn160  Zn    0.25000   0.00000   0.11563   0.00000  Uiso   1.00
C161   C     0.55985   0.19031   0.16642   0.00000  Uiso   1.00
C162   C     0.50508   0.21025   0.31022   0.00000  Uiso   1.00
C163   C     0.99492   0.21025   0.02312   0.00000  Uiso   1.00
C164   C     0.99608   0.29030   0.31000   0.00000  Uiso   1.00
C165   C     0.75392   0.04030   0.02333   0.00000  Uiso   1.00
C166   C     0.75508   0.46025   0.31022   0.00000  Uiso   1.00
C167   C     0.74492   0.46025   0.02312   0.00000  Uiso   1.00
C168   C     0.74608   0.04030   0.31000   0.00000  Uiso   1.00
C169   C     0.87485   0.16064   0.13535   0.00000  Uiso   1.00
C170   C     0.62352   0.34150   0.19967   0.00000  Uiso   1.00
C171   C     0.59275   0.37832   0.13506   0.00000  Uiso   1.00
C172   C     0.94036   0.31002   0.16679   0.00000  Uiso   1.00
C173   C     0.90545   0.12406   0.20022   0.00000  Uiso   1.00
C174   C     0.62515   0.16064   0.19799   0.00000  Uiso   1.00
C175   C     0.87650   0.34153   0.13363   0.00000  Uiso   1.00
C176   C     0.90723   0.37830   0.19829   0.00000  Uiso   1.00
C177   C     0.59456   0.12406   0.13311   0.00000  Uiso   1.00
C178   C     0.62484   0.41065   0.13536   0.00000  Uiso   1.00
C179   C     0.87351   0.09152   0.19969   0.00000  Uiso   1.00
C180   C     0.84276   0.12831   0.13505   0.00000  Uiso   1.00
C181   C     0.65546   0.37404   0.20021   0.00000  Uiso   1.00
C182   C     0.87515   0.41064   0.19799   0.00000  Uiso   1.00
C183   C     0.94015   0.19031   0.16692   0.00000  Uiso   1.00
C184   C     0.62650   0.09153   0.13364   0.00000  Uiso   1.00
C185   C     0.65723   0.12831   0.19829   0.00000  Uiso   1.00
C186   C     0.84457   0.37407   0.13310   0.00000  Uiso   1.00
C187   C     0.59262   0.34353   0.16673   0.00000  Uiso   1.00
C188   C     0.90634   0.15789   0.16756   0.00000  Uiso   1.00
C189   C     0.90738   0.34353   0.16660   0.00000  Uiso   1.00
C190   C     0.59366   0.15789   0.16578   0.00000  Uiso   1.00
C191   C     0.84262   0.09353   0.16674   0.00000  Uiso   1.00
C192   C     0.65634   0.40788   0.16755   0.00000  Uiso   1.00
C193   C     0.65738   0.09353   0.16660   0.00000  Uiso   1.00
C194   C     0.55964   0.31002   0.16654   0.00000  Uiso   1.00
C195   C     0.84366   0.40789   0.16578   0.00000  Uiso   1.00
C196   C     0.52144   0.33459   0.04304   0.00000  Uiso   1.00
C197   C     0.98843   0.36281   0.07044   0.00000  Uiso   1.00
C198   C     0.98999   0.41441   0.06082   0.00000  Uiso   1.00
C199   C     0.53371   0.17116   0.29425   0.00000  Uiso   1.00
C200   C     0.51029   0.13267   0.26947   0.00000  Uiso   1.00
C201   C     0.53938   0.09089   0.26254   0.00000  Uiso   1.00
C202   C     0.96629   0.17116   0.03908   0.00000  Uiso   1.00
C203   C     0.98971   0.13267   0.06386   0.00000  Uiso   1.00
C204   C     0.96062   0.09089   0.07080   0.00000  Uiso   1.00
C205   C     0.80985   0.44031   0.16642   0.00000  Uiso   1.00
C206   C     0.97857   0.33459   0.29029   0.00000  Uiso   1.00
C207   C     0.51157   0.36281   0.26289   0.00000  Uiso   1.00
C208   C     0.51004   0.41441   0.27252   0.00000  Uiso   1.00
C209   C     0.77144   0.08459   0.04304   0.00000  Uiso   1.00
C210   C     0.73843   0.11281   0.07044   0.00000  Uiso   1.00
C211   C     0.73998   0.16441   0.06081   0.00000  Uiso   1.00
C212   C     0.78371   0.42116   0.29425   0.00000  Uiso   1.00
C213   C     0.76029   0.38267   0.26947   0.00000  Uiso   1.00
C214   C     0.78938   0.34089   0.26254   0.00000  Uiso   1.00
C215   C     0.71629   0.42116   0.03908   0.00000  Uiso   1.00
C216   C     0.69036   0.06002   0.16679   0.00000  Uiso   1.00
C217   C     0.73971   0.38267   0.06386   0.00000  Uiso   1.00
C218   C     0.71061   0.34089   0.07081   0.00000  Uiso   1.00
C219   C     0.72856   0.08459   0.29029   0.00000  Uiso   1.00
C220   C     0.76156   0.11281   0.26290   0.00000  Uiso   1.00
C221   C     0.76002   0.16441   0.27252   0.00000  Uiso   1.00
C222   C     0.69015   0.44031   0.16691   0.00000  Uiso   1.00
C223   C     0.80964   0.06002   0.16654   0.00000  Uiso   1.00
C224   C     0.50393   0.29030   0.02333   0.00000  Uiso   1.00
H225   H     0.87498   0.18779   0.11081   0.00000  Uiso   1.00
H226   H     0.87316   0.06465   0.22451   0.00000  Uiso   1.00
H227   H     0.81798   0.13114   0.11077   0.00000  Uiso   1.00
H228   H     0.67961   0.37223   0.22545   0.00000  Uiso   1.00
H229   H     0.87501   0.43777   0.22254   0.00000  Uiso   1.00
H230   H     0.62685   0.06466   0.10881   0.00000  Uiso   1.00
H231   H     0.68201   0.13113   0.22257   0.00000  Uiso   1.00
H232   H     0.82043   0.37228   0.10784   0.00000  Uiso   1.00
H233   H     0.52368   0.42727   0.06065   0.00000  Uiso   1.00
H234   H     0.97486   0.42203   0.02873   0.00000  Uiso   1.00
H235   H     0.97145   0.43316   0.08679   0.00000  Uiso   1.00
H236   H     0.62318   0.31462   0.22449   0.00000  Uiso   1.00
H237   H     0.95508   0.35061   0.06448   0.00000  Uiso   1.00
H238   H     0.99576   0.35918   0.10587   0.00000  Uiso   1.00
H239   H     0.55121   0.32698   0.06075   0.00000  Uiso   1.00
H240   H     0.53476   0.35661   0.01636   0.00000  Uiso   1.00
H241   H     0.56908   0.10065   0.24407   0.00000  Uiso   1.00
H242   H     0.54836   0.07587   0.29487   0.00000  Uiso   1.00
H243   H     0.52205   0.06435   0.24329   0.00000  Uiso   1.00
H244   H     0.98132   0.12116   0.28805   0.00000  Uiso   1.00
H245   H     0.50001   0.14488   0.23684   0.00000  Uiso   1.00
H246   H     0.56147   0.18495   0.27542   0.00000  Uiso   1.00
H247   H     0.56796   0.38116   0.11079   0.00000  Uiso   1.00
H248   H     0.55004   0.15571   0.32300   0.00000  Uiso   1.00
H249   H     0.93092   0.10065   0.08927   0.00000  Uiso   1.00
H250   H     0.95164   0.07587   0.03847   0.00000  Uiso   1.00
H251   H     0.97795   0.06435   0.09004   0.00000  Uiso   1.00
H252   H     0.51868   0.12116   0.04528   0.00000  Uiso   1.00
H253   H     0.50000   0.14488   0.09649   0.00000  Uiso   1.00
H254   H     0.93853   0.18495   0.05791   0.00000  Uiso   1.00
H255   H     0.94996   0.15571   0.01034   0.00000  Uiso   1.00
H256   H     0.97635   0.42727   0.27272   0.00000  Uiso   1.00
H257   H     0.52518   0.42202   0.30461   0.00000  Uiso   1.00
H258   H     0.92959   0.12226   0.22547   0.00000  Uiso   1.00
H259   H     0.52856   0.43315   0.24655   0.00000  Uiso   1.00
H260   H     0.54492   0.35060   0.26884   0.00000  Uiso   1.00
H261   H     0.50424   0.35919   0.22746   0.00000  Uiso   1.00
H262   H     0.94880   0.32697   0.27259   0.00000  Uiso   1.00
H263   H     0.96525   0.35661   0.31697   0.00000  Uiso   1.00
H264   H     0.77366   0.17727   0.06063   0.00000  Uiso   1.00
H265   H     0.72484   0.17202   0.02872   0.00000  Uiso   1.00
H266   H     0.72145   0.18316   0.08678   0.00000  Uiso   1.00
H267   H     0.70508   0.10061   0.06449   0.00000  Uiso   1.00
H268   H     0.74576   0.10919   0.10587   0.00000  Uiso   1.00
H269   H     0.62502   0.18778   0.22253   0.00000  Uiso   1.00
H270   H     0.80121   0.07697   0.06074   0.00000  Uiso   1.00
H271   H     0.78476   0.10661   0.01636   0.00000  Uiso   1.00
H272   H     0.81908   0.35064   0.24407   0.00000  Uiso   1.00
H273   H     0.79835   0.32587   0.29487   0.00000  Uiso   1.00
H274   H     0.77204   0.31435   0.24330   0.00000  Uiso   1.00
H275   H     0.73132   0.37117   0.28805   0.00000  Uiso   1.00
H276   H     0.75001   0.39488   0.23684   0.00000  Uiso   1.00
H277   H     0.81147   0.43495   0.27542   0.00000  Uiso   1.00
H278   H     0.80004   0.40571   0.32300   0.00000  Uiso   1.00
H279   H     0.68091   0.35066   0.08928   0.00000  Uiso   1.00
H280   H     0.87686   0.31467   0.10880   0.00000  Uiso   1.00
H281   H     0.70162   0.32587   0.03848   0.00000  Uiso   1.00
H282   H     0.72794   0.31436   0.09005   0.00000  Uiso   1.00
H283   H     0.76867   0.37115   0.04527   0.00000  Uiso   1.00
H284   H     0.75000   0.39488   0.09649   0.00000  Uiso   1.00
H285   H     0.68853   0.43495   0.05791   0.00000  Uiso   1.00
H286   H     0.69996   0.40571   0.01034   0.00000  Uiso   1.00
H287   H     0.72633   0.17727   0.27272   0.00000  Uiso   1.00
H288   H     0.77517   0.17202   0.30460   0.00000  Uiso   1.00
H289   H     0.77854   0.18316   0.24654   0.00000  Uiso   1.00
H290   H     0.79492   0.10061   0.26885   0.00000  Uiso   1.00
H291   H     0.93201   0.38112   0.22258   0.00000  Uiso   1.00
H292   H     0.75423   0.10919   0.22746   0.00000  Uiso   1.00
H293   H     0.69879   0.07697   0.27259   0.00000  Uiso   1.00
H294   H     0.71524   0.10661   0.31698   0.00000  Uiso   1.00
H295   H     0.57042   0.12227   0.10785   0.00000  Uiso   1.00
H296   H     0.62496   0.43780   0.11083   0.00000  Uiso   1.00
N297   N     0.50000   0.25000   0.28573   0.00000  Uiso   1.00
N298   N     0.50000   0.25000   0.04760   0.00000  Uiso   1.00
N299   N     0.75000   0.00000   0.28573   0.00000  Uiso   1.00
N300   N     0.75000   0.00000   0.04760   0.00000  Uiso   1.00
O301   O     0.54581   0.20419   0.20487   0.00000  Uiso   1.00
O302   O     0.70420   0.04581   0.12846   0.00000  Uiso   1.00
O303   O     0.70420   0.04581   0.20487   0.00000  Uiso   1.00
O304   O     0.79581   0.45419   0.12846   0.00000  Uiso   1.00
O305   O     0.70420   0.45419   0.12846   0.00000  Uiso   1.00
O306   O     0.79581   0.04581   0.20487   0.00000  Uiso   1.00
O307   O     0.79581   0.04581   0.12846   0.00000  Uiso   1.00
O308   O     0.70420   0.45419   0.20487   0.00000  Uiso   1.00
O309   O     0.95420   0.29581   0.12846   0.00000  Uiso   1.00
O310   O     0.95420   0.29581   0.20487   0.00000  Uiso   1.00
O311   O     0.54581   0.20419   0.12846   0.00000  Uiso   1.00
O312   O     0.95420   0.20419   0.12846   0.00000  Uiso   1.00
O313   O     0.54581   0.29581   0.20487   0.00000  Uiso   1.00
O314   O     0.54581   0.29581   0.12846   0.00000  Uiso   1.00
O315   O     0.95420   0.20419   0.20487   0.00000  Uiso   1.00
O316   O     0.79581   0.45419   0.20487   0.00000  Uiso   1.00
Zn317  Zn    0.50000   0.25000   0.21771   0.00000  Uiso   1.00
Zn318  Zn    0.50000   0.25000   0.11563   0.00000  Uiso   1.00
Zn319  Zn    0.75000   0.00000   0.21771   0.00000  Uiso   1.00
Zn320  Zn    0.75000   0.00000   0.11563   0.00000  Uiso   1.00
C321   C     0.05985   0.69031   0.16642   0.00000  Uiso   1.00
C322   C     0.00508   0.71025   0.31022   0.00000  Uiso   1.00
C323   C     0.49492   0.71025   0.02312   0.00000  Uiso   1.00
C324   C     0.49608   0.79030   0.31000   0.00000  Uiso   1.00
C325   C     0.25392   0.54030   0.02333   0.00000  Uiso   1.00
C326   C     0.25508   0.96025   0.31022   0.00000  Uiso   1.00
C327   C     0.24492   0.96025   0.02312   0.00000  Uiso   1.00
C328   C     0.24608   0.54030   0.31000   0.00000  Uiso   1.00
C329   C     0.37485   0.66064   0.13535   0.00000  Uiso   1.00
C330   C     0.12352   0.84150   0.19967   0.00000  Uiso   1.00
C331   C     0.09275   0.87832   0.13506   0.00000  Uiso   1.00
C332   C     0.44036   0.81002   0.16679   0.00000  Uiso   1.00
C333   C     0.40545   0.62406   0.20022   0.00000  Uiso   1.00
C334   C     0.12515   0.66064   0.19799   0.00000  Uiso   1.00
C335   C     0.37650   0.84153   0.13363   0.00000  Uiso   1.00
C336   C     0.40723   0.87830   0.19829   0.00000  Uiso   1.00
C337   C     0.09456   0.62406   0.13311   0.00000  Uiso   1.00
C338   C     0.12484   0.91065   0.13536   0.00000  Uiso   1.00
C339   C     0.37351   0.59152   0.19969   0.00000  Uiso   1.00
C340   C     0.34276   0.62831   0.13505   0.00000  Uiso   1.00
C341   C     0.15546   0.87404   0.20021   0.00000  Uiso   1.00
C342   C     0.37515   0.91064   0.19799   0.00000  Uiso   1.00
C343   C     0.44015   0.69031   0.16692   0.00000  Uiso   1.00
C344   C     0.12650   0.59153   0.13364   0.00000  Uiso   1.00
C345   C     0.15723   0.62831   0.19829   0.00000  Uiso   1.00
C346   C     0.34457   0.87407   0.13310   0.00000  Uiso   1.00
C347   C     0.09262   0.84353   0.16673   0.00000  Uiso   1.00
C348   C     0.40634   0.65789   0.16756   0.00000  Uiso   1.00
C349   C     0.40738   0.84353   0.16660   0.00000  Uiso   1.00
C350   C     0.09366   0.65789   0.16578   0.00000  Uiso   1.00
C351   C     0.34262   0.59353   0.16674   0.00000  Uiso   1.00
C352   C     0.15634   0.90788   0.16755   0.00000  Uiso   1.00
C353   C     0.15738   0.59353   0.16660   0.00000  Uiso   1.00
C354   C     0.05964   0.81002   0.16654   0.00000  Uiso   1.00
C355   C     0.34366   0.90789   0.16578   0.00000  Uiso   1.00
C356   C     0.02144   0.83459   0.04304   0.00000  Uiso   1.00
C357   C     0.48843   0.86281   0.07044   0.00000  Uiso   1.00
C358   C     0.48999   0.91441   0.06082   0.00000  Uiso   1.00
C359   C     0.03371   0.67116   0.29425   0.00000  Uiso   1.00
C360   C     0.01029   0.63267   0.26947   0.00000  Uiso   1.00
C361   C     0.03938   0.59089   0.26254   0.00000  Uiso   1.00
C362   C     0.46629   0.67116   0.03908   0.00000  Uiso   1.00
C363   C     0.48971   0.63267   0.06386   0.00000  Uiso   1.00
C364   C     0.46062   0.59089   0.07080   0.00000  Uiso   1.00
C365   C     0.30985   0.94031   0.16642   0.00000  Uiso   1.00
C366   C     0.47857   0.83459   0.29029   0.00000  Uiso   1.00
C367   C     0.01157   0.86281   0.26289   0.00000  Uiso   1.00
C368   C     0.01004   0.91441   0.27252   0.00000  Uiso   1.00
C369   C     0.27144   0.58459   0.04304   0.00000  Uiso   1.00
C370   C     0.23843   0.61281   0.07044   0.00000  Uiso   1.00
C371   C     0.23998   0.66441   0.06081   0.00000  Uiso   1.00
C372   C     0.28371   0.92116   0.29425   0.00000  Uiso   1.00
C373   C     0.26029   0.88267   0.26947   0.00000  Uiso   1.00
C374   C     0.28938   0.84089   0.26254   0.00000  Uiso   1.00
C375   C     0.21629   0.92116   0.03908   0.00000  Uiso   1.00
C376   C     0.19036   0.56002   0.16679   0.00000  Uiso   1.00
C377   C     0.23971   0.88267   0.06386   0.00000  Uiso   1.00
C378   C     0.21061   0.84089   0.07081   0.00000  Uiso   1.00
C379   C     0.22856   0.58459   0.29029   0.00000  Uiso   1.00
C380   C     0.26156   0.61281   0.26290   0.00000  Uiso   1.00
C381   C     0.26002   0.66441   0.27252   0.00000  Uiso   1.00
C382   C     0.19015   0.94031   0.16691   0.00000  Uiso   1.00
C383   C     0.30964   0.56002   0.16654   0.00000  Uiso   1.00
C384   C     0.00393   0.79030   0.02333   0.00000  Uiso   1.00
H385   H     0.37498   0.68779   0.11081   0.00000  Uiso   1.00
H386   H     0.37316   0.56465   0.22451   0.00000  Uiso   1.00
H387   H     0.31798   0.63114   0.11077   0.00000  Uiso   1.00
H388   H     0.17961   0.87223   0.22545   0.00000  Uiso   1.00
H389   H     0.37501   0.93777   0.22254   0.00000  Uiso   1.00
H390   H     0.12685   0.56466   0.10881   0.00000  Uiso   1.00
H391   H     0.18201   0.63113   0.22257   0.00000  Uiso   1.00
H392   H     0.32043   0.87228   0.10784   0.00000  Uiso   1.00
H393   H     0.02368   0.92727   0.06065   0.00000  Uiso   1.00
H394   H     0.47486   0.92203   0.02873   0.00000  Uiso   1.00
H395   H     0.47145   0.93316   0.08679   0.00000  Uiso   1.00
H396   H     0.12318   0.81462   0.22449   0.00000  Uiso   1.00
H397   H     0.45508   0.85061   0.06448   0.00000  Uiso   1.00
H398   H     0.49576   0.85918   0.10587   0.00000  Uiso   1.00
H399   H     0.05121   0.82698   0.06075   0.00000  Uiso   1.00
H400   H     0.03476   0.85661   0.01636   0.00000  Uiso   1.00
H401   H     0.06908   0.60065   0.24407   0.00000  Uiso   1.00
H402   H     0.04836   0.57587   0.29487   0.00000  Uiso   1.00
H403   H     0.02205   0.56435   0.24329   0.00000  Uiso   1.00
H404   H     0.48132   0.62116   0.28805   0.00000  Uiso   1.00
H405   H     0.00001   0.64488   0.23684   0.00000  Uiso   1.00
H406   H     0.06147   0.68495   0.27542   0.00000  Uiso   1.00
H407   H     0.06796   0.88116   0.11079   0.00000  Uiso   1.00
H408   H     0.05004   0.65571   0.32300   0.00000  Uiso   1.00
H409   H     0.43092   0.60065   0.08927   0.00000  Uiso   1.00
H410   H     0.45164   0.57587   0.03847   0.00000  Uiso   1.00
H411   H     0.47795   0.56435   0.09004   0.00000  Uiso   1.00
H412   H     0.01868   0.62116   0.04528   0.00000  Uiso   1.00
H413   H    -0.00000   0.64488   0.09649   0.00000  Uiso   1.00
H414   H     0.43853   0.68495   0.05791   0.00000  Uiso   1.00
H415   H     0.44996   0.65571   0.01034   0.00000  Uiso   1.00
H416   H     0.47635   0.92727   0.27272   0.00000  Uiso   1.00
H417   H     0.02518   0.92202   0.30461   0.00000  Uiso   1.00
H418   H     0.42959   0.62226   0.22547   0.00000  Uiso   1.00
H419   H     0.02856   0.93315   0.24655   0.00000  Uiso   1.00
H420   H     0.04492   0.85060   0.26884   0.00000  Uiso   1.00
H421   H     0.00424   0.85919   0.22746   0.00000  Uiso   1.00
H422   H     0.44880   0.82697   0.27259   0.00000  Uiso   1.00
H423   H     0.46525   0.85661   0.31697   0.00000  Uiso   1.00
H424   H     0.27366   0.67727   0.06063   0.00000  Uiso   1.00
H425   H     0.22484   0.67202   0.02872   0.00000  Uiso   1.00
H426   H     0.22145   0.68316   0.08678   0.00000  Uiso   1.00
H427   H     0.20508   0.60061   0.06449   0.00000  Uiso   1.00
H428   H     0.24576   0.60919   0.10587   0.00000  Uiso   1.00
H429   H     0.12502   0.68778   0.22253   0.00000  Uiso   1.00
H430   H     0.30121   0.57697   0.06074   0.00000  Uiso   1.00
H431   H     0.28476   0.60661   0.01636   0.00000  Uiso   1.00
H432   H     0.31908   0.85064   0.24407   0.00000  Uiso   1.00
H433   H     0.29835   0.82587   0.29487   0.00000  Uiso   1.00
H434   H     0.27204   0.81435   0.24330   0.00000  Uiso   1.00
H435   H     0.23132   0.87117   0.28805   0.00000  Uiso   1.00
H436   H     0.25001   0.89488   0.23684   0.00000  Uiso   1.00
H437   H     0.31147   0.93495   0.27542   0.00000  Uiso   1.00
H438   H     0.30004   0.90571   0.32300   0.00000  Uiso   1.00
H439   H     0.18091   0.85066   0.08928   0.00000  Uiso   1.00
H440   H     0.37686   0.81467   0.10880   0.00000  Uiso   1.00
H441   H     0.20162   0.82587   0.03848   0.00000  Uiso   1.00
H442   H     0.22794   0.81436   0.09005   0.00000  Uiso   1.00
H443   H     0.26867   0.87115   0.04527   0.00000  Uiso   1.00
H444   H     0.25000   0.89488   0.09649   0.00000  Uiso   1.00
H445   H     0.18853   0.93495   0.05791   0.00000  Uiso   1.00
H446   H     0.19996   0.90571   0.01034   0.00000  Uiso   1.00
H447   H     0.22633   0.67727   0.27272   0.00000  Uiso   1.00
H448   H     0.27517   0.67202   0.30460   0.00000  Uiso   1.00
H449   H     0.27854   0.68316   0.24654   0.00000  Uiso   1.00
H450   H     0.29492   0.60061   0.26885   0.00000  Uiso   1.00
H451   H     0.43201   0.88112   0.22258   0.00000  Uiso   1.00
H452   H     0.25423   0.60919   0.22746   0.00000  Uiso   1.00
H453   H     0.19879   0.57697   0.27259   0.00000  Uiso   1.00
H454   H     0.21524   0.60661   0.31698   0.00000  Uiso   1.00
H455   H     0.07042   0.62227   0.10785   0.00000  Uiso   1.00
H456   H     0.12496   0.93780   0.11083   0.00000  Uiso   1.00
N457   N     0.00000   0.75000   0.28573   0.00000  Uiso   1.00
N458   N     0.00000   0.75000   0.04760   0.00000  Uiso   1.00
N459   N     0.25000   0.50000   0.28573   0.00000  Uiso   1.00
N460   N     0.25000   0.50000   0.04760   0.00000  Uiso   1.00
O461   O     0.04581   0.70419   0.20487   0.00000  Uiso   1.00
O462   O     0.20420   0.54581   0.12846   0.00000  Uiso   1.00
O463   O     0.20420   0.54581   0.20487   0.00000  Uiso   1.00
O464   O     0.29581   0.95419   0.12846   0.00000  Uiso   1.00
O465   O     0.20420   0.95419   0.12846   0.00000  Uiso   1.00
O466   O     0.29581   0.54581   0.20487   0.00000  Uiso   1.00
O467   O     0.29581   0.54581   0.12846   0.00000  Uiso   1.00
O468   O     0.20420   0.95419   0.20487   0.00000  Uiso   1.00
O469   O     0.45420   0.79581   0.12846   0.00000  Uiso   1.00
O470   O     0.45420   0.79581   0.20487   0.00000  Uiso   1.00
O471   O     0.04581   0.70419   0.12846   0.00000  Uiso   1.00
O472   O     0.45420   0.70419   0.12846   0.00000  Uiso   1.00
O473   O     0.04581   0.79581   0.20487   0.00000  Uiso   1.00
O474   O     0.04581   0.79581   0.12846   0.00000  Uiso   1.00
O475   O     0.45420   0.70419   0.20487   0.00000  Uiso   1.00
O476   O     0.29581   0.95419   0.20487   0.00000  Uiso   1.00
Zn477  Zn    0.00000   0.75000   0.21771   0.00000  Uiso   1.00
Zn478  Zn    0.00000   0.75000   0.11563   0.00000  Uiso   1.00
Zn479  Zn    0.25000   0.50000   0.21771   0.00000  Uiso   1.00
Zn480  Zn    0.25000   0.50000   0.11563   0.00000  Uiso   1.00
C481   C     0.55985   0.69031   0.16642   0.00000  Uiso   1.00
C482   C     0.50508   0.71025   0.31022   0.00000  Uiso   1.00
C483   C     0.99492   0.71025   0.02312   0.00000  Uiso   1.00
C484   C     0.99608   0.79030   0.31000   0.00000  Uiso   1.00
C485   C     0.75392   0.54030   0.02333   0.00000  Uiso   1.00
C486   C     0.75508   0.96025   0.31022   0.00000  Uiso   1.00
C487   C     0.74492   0.96025   0.02312   0.00000  Uiso   1.00
C488   C     0.74608   0.54030   0.31000   0.00000  Uiso   1.00
C489   C     0.87485   0.66064   0.13535   0.00000  Uiso   1.00
C490   C     0.62352   0.84150   0.19967   0.00000  Uiso   1.00
C491   C     0.59275   0.87832   0.13506   0.00000  Uiso   1.00
C492   C     0.94036   0.81002   0.16679   0.00000  Uiso   1.00
C493   C     0.90545   0.62406   0.20022   0.00000  Uiso   1.00
C494   C     0.62515   0.66064   0.19799   0.00000  Uiso   1.00
C495   C     0.87650   0.84153   0.13363   0.00000  Uiso   1.00
C496   C     0.90723   0.87830   0.19829   0.00000  Uiso   1.00
C497   C     0.59456   0.62406   0.13311   0.00000  Uiso   1.00
C498   C     0.62484   0.91065   0.13536   0.00000  Uiso   1.00
C499   C     0.87351   0.59152   0.19969   0.00000  Uiso   1.00
C500   C     0.84276   0.62831   0.13505   0.00000  Uiso   1.00
C501   C     0.65546   0.87404   0.20021   0.00000  Uiso   1.00
C502   C     0.87515   0.91064   0.19799   0.00000  Uiso   1.00
C503   C     0.94015   0.69031   0.16692   0.00000  Uiso   1.00
C504   C     0.62650   0.59153   0.13364   0.00000  Uiso   1.00
C505   C     0.65723   0.62831   0.19829   0.00000  Uiso   1.00
C506   C     0.84457   0.87407   0.13310   0.00000  Uiso   1.00
C507   C     0.59262   0.84353   0.16673   0.00000  Uiso   1.00
C508   C     0.90634   0.65789   0.16756   0.00000  Uiso   1.00
C509   C     0.90738   0.84353   0.16660   0.00000  Uiso   1.00
C510   C     0.59366   0.65789   0.16578   0.00000  Uiso   1.00
C511   C     0.84262   0.59353   0.16674   0.00000  Uiso   1.00
C512   C     0.65634   0.90788   0.16755   0.00000  Uiso   1.00
C513   C     0.65738   0.59353   0.16660   0.00000  Uiso   1.00
C514   C     0.55964   0.81002   0.16654   0.00000  Uiso   1.00
C515   C     0.84366   0.90789   0.16578   0.00000  Uiso   1.00
C516   C     0.52144   0.83459   0.04304   0.00000  Uiso   1.00
C517   C     0.98843   0.86281   0.07044   0.00000  Uiso   1.00
C518   C     0.98999   0.91441   0.06082   0.00000  Uiso   1.00
C519   C     0.53371   0.67116   0.29425   0.00000  Uiso   1.00
C520   C     0.51029   0.63267   0.26947   0.00000  Uiso   1.00
C521   C     0.53938   0.59089   0.26254   0.00000  Uiso   1.00
C522   C     0.96629   0.67116   0.03908   0.00000  Uiso   1.00
C523   C     0.98971   0.63267   0.06386   0.00000  Uiso   1.00
C524   C     0.96062   0.59089   0.07080   0.00000  Uiso   1.00
C525   C     0.80985   0.94031   0.16642   0.00000  Uiso   1.00
C526   C     0.97857   0.83459   0.29029   0.00000  Uiso   1.00
C527   C     0.51157   0.86281   0.26289   0.00000  Uiso   1.00
C528   C     0.51004   0.91441   0.27252   0.00000  Uiso   1.00
C529   C     0.77144   0.58459   0.04304   0.00000  Uiso   1.00
C530   C     0.73843   0.61281   0.07044   0.00000  Uiso   1.00
C531   C     0.73998   0.66441   0.06081   0.00000  Uiso   1.00
C532   C     0.78371   0.92116   0.29425   0.00000  Uiso   1.00
C533   C     0.76029   0.88267   0.26947   0.00000  Uiso   1.00
C534   C     0.78938   0.84089   0.26254   0.00000  Uiso   1.00
C535   C     0.71629   0.92116   0.03908   0.00000  Uiso   1.00
C536   C     0.69036   0.56002   0.16679   0.00000  Uiso   1.00
C537   C     0.73971   0.88267   0.06386   0.00000  Uiso   1.00
C538   C     0.71061   0.84089   0.07081   0.00000  Uiso   1.00
C539   C     0.72856   0.58459   0.29029   0.00000  Uiso   1.00
C540   C     0.76156   0.61281   0.26290   0.00000  Uiso   1.00
C541   C     0.76002   0.66441   0.27252   0.00000  Uiso   1.00
C542   C     0.69015   0.94031   0.16691   0.00000  Uiso   1.00
C543   C     0.80964   0.56002   0.16654   0.00000  Uiso   1.00
C544   C     0.50393   0.79030   0.02333   0.00000  Uiso   1.00
H545   H     0.87498   0.68779   0.11081   0.00000  Uiso   1.00
H546   H     0.87316   0.56465   0.22451   0.00000  Uiso   1.00
H547   H     0.81798   0.63114   0.11077   0.00000  Uiso   1.00
H548   H     0.67961   0.87223   0.22545   0.00000  Uiso   1.00
H549   H     0.87501   0.93777   0.22254   0.00000  Uiso   1.00
H550   H     0.62685   0.56466   0.10881   0.00000  Uiso   1.00
H551   H     0.68201   0.63113   0.22257   0.00000  Uiso   1.00
H552   H     0.82043   0.87228   0.10784   0.00000  Uiso   1.00
H553   H     0.52368   0.92727   0.06065   0.00000  Uiso   1.00
H554   H     0.97486   0.92203   0.02873   0.00000  Uiso   1.00
H555   H     0.97145   0.93316   0.08679   0.00000  Uiso   1.00
H556   H     0.62318   0.81462   0.22449   0.00000  Uiso   1.00
H557   H     0.95508   0.85061   0.06448   0.00000  Uiso   1.00
H558   H     0.99576   0.85918   0.10587   0.00000  Uiso   1.00
H559   H     0.55121   0.82698   0.06075   0.00000  Uiso   1.00
H560   H     0.53476   0.85661   0.01636   0.00000  Uiso   1.00
H561   H     0.56908   0.60065   0.24407   0.00000  Uiso   1.00
H562   H     0.54836   0.57587   0.29487   0.00000  Uiso   1.00
H563   H     0.52205   0.56435   0.24329   0.00000  Uiso   1.00
H564   H     0.98132   0.62116   0.28805   0.00000  Uiso   1.00
H565   H     0.50001   0.64488   0.23684   0.00000  Uiso   1.00
H566   H     0.56147   0.68495   0.27542   0.00000  Uiso   1.00
H567   H     0.56796   0.88116   0.11079   0.00000  Uiso   1.00
H568   H     0.55004   0.65571   0.32300   0.00000  Uiso   1.00
H569   H     0.93092   0.60065   0.08927   0.00000  Uiso   1.00
H570   H     0.95164   0.57587   0.03847   0.00000  Uiso   1.00
H571   H     0.97795   0.56435   0.09004   0.00000  Uiso   1.00
H572   H     0.51868   0.62116   0.04528   0.00000  Uiso   1.00
H573   H     0.50000   0.64488   0.09649   0.00000  Uiso   1.00
H574   H     0.93853   0.68495   0.05791   0.00000  Uiso   1.00
H575   H     0.94996   0.65571   0.01034   0.00000  Uiso   1.00
H576   H     0.97635   0.92727   0.27272   0.00000  Uiso   1.00
H577   H     0.52518   0.92202   0.30461   0.00000  Uiso   1.00
H578   H     0.92959   0.62226   0.22547   0.00000  Uiso   1.00
H579   H     0.52856   0.93315   0.24655   0.00000  Uiso   1.00
H580   H     0.54492   0.85060   0.26884   0.00000  Uiso   1.00
H581   H     0.50424   0.85919   0.22746   0.00000  Uiso   1.00
H582   H     0.94880   0.82697   0.27259   0.00000  Uiso   1.00
H583   H     0.96525   0.85661   0.31697   0.00000  Uiso   1.00
H584   H     0.77366   0.67727   0.06063   0.00000  Uiso   1.00
H585   H     0.72484   0.67202   0.02872   0.00000  Uiso   1.00
H586   H     0.72145   0.68316   0.08678   0.00000  Uiso   1.00
H587   H     0.70508   0.60061   0.06449   0.00000  Uiso   1.00
H588   H     0.74576   0.60919   0.10587   0.00000  Uiso   1.00
H589   H     0.62502   0.68778   0.22253   0.00000  Uiso   1.00
H590   H     0.80121   0.57697   0.06074   0.00000  Uiso   1.00
H591   H     0.78476   0.60661   0.01636   0.00000  Uiso   1.00
H592   H     0.81908   0.85064   0.24407   0.00000  Uiso   1.00
H593   H     0.79835   0.82587   0.29487   0.00000  Uiso   1.00
H594   H     0.77204   0.81435   0.24330   0.00000  Uiso   1.00
H595   H     0.73132   0.87117   0.28805   0.00000  Uiso   1.00
H596   H     0.75001   0.89488   0.23684   0.00000  Uiso   1.00
H597   H     0.81147   0.93495   0.27542   0.00000  Uiso   1.00
H598   H     0.80004   0.90571   0.32300   0.00000  Uiso   1.00
H599   H     0.68091   0.85066   0.08928   0.00000  Uiso   1.00
H600   H     0.87686   0.81467   0.10880   0.00000  Uiso   1.00
H601   H     0.70162   0.82587   0.03848   0.00000  Uiso   1.00
H602   H     0.72794   0.81436   0.09005   0.00000  Uiso   1.00
H603   H     0.76867   0.87115   0.04527   0.00000  Uiso   1.00
H604   H     0.75000   0.89488   0.09649   0.00000  Uiso   1.00
H605   H     0.68853   0.93495   0.05791   0.00000  Uiso   1.00
H606   H     0.69996   0.90571   0.01034   0.00000  Uiso   1.00
H607   H     0.72633   0.67727   0.27272   0.00000  Uiso   1.00
H608   H     0.77517   0.67202   0.30460   0.00000  Uiso   1.00
H609   H     0.77854   0.68316   0.24654   0.00000  Uiso   1.00
H610   H     0.79492   0.60061   0.26885   0.00000  Uiso   1.00
H611   H     0.93201   0.88112   0.22258   0.00000  Uiso   1.00
H612   H     0.75423   0.60919   0.22746   0.00000  Uiso   1.00
H613   H     0.69879   0.57697   0.27259   0.00000  Uiso   1.00
H614   H     0.71524   0.60661   0.31698   0.00000  Uiso   1.00
H615   H     0.57042   0.62227   0.10785   0.00000  Uiso   1.00
H616   H     0.62496   0.93780   0.11083   0.00000  Uiso   1.00
N617   N     0.50000   0.75000   0.28573   0.00000  Uiso   1.00
N618   N     0.50000   0.75000   0.04760   0.00000  Uiso   1.00
N619   N     0.75000   0.50000   0.28573   0.00000  Uiso   1.00
N620   N     0.75000   0.50000   0.04760   0.00000  Uiso   1.00
O621   O     0.54581   0.70419   0.20487   0.00000  Uiso   1.00
O622   O     0.70420   0.54581   0.12846   0.00000  Uiso   1.00
O623   O     0.70420   0.54581   0.20487   0.00000  Uiso   1.00
O624   O     0.79581   0.95419   0.12846   0.00000  Uiso   1.00
O625   O     0.70420   0.95419   0.12846   0.00000  Uiso   1.00
O626   O     0.79581   0.54581   0.20487   0.00000  Uiso   1.00
O627   O     0.79581   0.54581   0.12846   0.00000  Uiso   1.00
O628   O     0.70420   0.95419   0.20487   0.00000  Uiso   1.00
O629   O     0.95420   0.79581   0.12846   0.00000  Uiso   1.00
O630   O     0.95420   0.79581   0.20487   0.00000  Uiso   1.00
O631   O     0.54581   0.70419   0.12846   0.00000  Uiso   1.00
O632   O     0.95420   0.70419   0.12846   0.00000  Uiso   1.00
O633   O     0.54581   0.79581   0.20487   0.00000  Uiso   1.00
O634   O     0.54581   0.79581   0.12846   0.00000  Uiso   1.00
O635   O     0.95420   0.70419   0.20487   0.00000  Uiso   1.00
O636   O     0.79581   0.95419   0.20487   0.00000  Uiso   1.00
Zn637  Zn    0.50000   0.75000   0.21771   0.00000  Uiso   1.00
Zn638  Zn    0.50000   0.75000   0.11563   0.00000  Uiso   1.00
Zn639  Zn    0.75000   0.50000   0.21771   0.00000  Uiso   1.00
Zn640  Zn    0.75000   0.50000   0.11563   0.00000  Uiso   1.00
C641   C     0.05985   0.19031   0.49975   0.00000  Uiso   1.00
C642   C     0.00508   0.21025   0.64355   0.00000  Uiso   1.00
C643   C     0.49492   0.21025   0.35645   0.00000  Uiso   1.00
C644   C     0.49608   0.29030   0.64334   0.00000  Uiso   1.00
C645   C     0.25392   0.04030   0.35667   0.00000  Uiso   1.00
C646   C     0.25508   0.46025   0.64355   0.00000  Uiso   1.00
C647   C     0.24492   0.46025   0.35645   0.00000  Uiso   1.00
C648   C     0.24608   0.04030   0.64334   0.00000  Uiso   1.00
C649   C     0.37485   0.16064   0.46868   0.00000  Uiso   1.00
C650   C     0.12352   0.34150   0.53301   0.00000  Uiso   1.00
C651   C     0.09275   0.37832   0.46840   0.00000  Uiso   1.00
C652   C     0.44036   0.31002   0.50012   0.00000  Uiso   1.00
C653   C     0.40545   0.12406   0.53355   0.00000  Uiso   1.00
C654   C     0.12515   0.16064   0.53132   0.00000  Uiso   1.00
C655   C     0.37650   0.34153   0.46697   0.00000  Uiso   1.00
C656   C     0.40723   0.37830   0.53162   0.00000  Uiso   1.00
C657   C     0.09456   0.12406   0.46644   0.00000  Uiso   1.00
C658   C     0.12484   0.41065   0.46869   0.00000  Uiso   1.00
C659   C     0.37351   0.09152   0.53302   0.00000  Uiso   1.00
C660   C     0.34276   0.12831   0.46839   0.00000  Uiso   1.00
C661   C     0.15546   0.37404   0.53354   0.00000  Uiso   1.00
C662   C     0.37515   0.41064   0.53133   0.00000  Uiso   1.00
C663   C     0.44015   0.19031   0.50025   0.00000  Uiso   1.00
C664   C     0.12650   0.09153   0.46697   0.00000  Uiso   1.00
C665   C     0.15723   0.12831   0.53162   0.00000  Uiso   1.00
C666   C     0.34457   0.37407   0.46643   0.00000  Uiso   1.00
C667   C     0.09262   0.34353   0.50007   0.00000  Uiso   1.00
C668   C     0.40634   0.15789   0.50089   0.00000  Uiso   1.00
C669   C     0.40738   0.34353   0.49993   0.00000  Uiso   1.00
C670   C     0.09366   0.15789   0.49911   0.00000  Uiso   1.00
C671   C     0.34262   0.09353   0.50007   0.00000  Uiso   1.00
C672   C     0.15634   0.40788   0.50089   0.00000  Uiso   1.00
C673   C     0.15738   0.09353   0.49993   0.00000  Uiso   1.00
C674   C     0.05964   0.31002   0.49988   0.00000  Uiso   1.00
C675   C     0.34366   0.40789   0.49911   0.00000  Uiso   1.00
C676   C     0.02144   0.33459   0.37638   0.00000  Uiso   1.00
C677   C     0.48843   0.36281   0.40377   0.00000  Uiso   1.00
C678   C     0.48999   0.41441   0.39415   0.00000  Uiso   1.00
C679   C     0.03371   0.17116   0.62758   0.00000  Uiso   1.00
C680   C     0.01029   0.13267   0.60281   0.00000  Uiso   1.00
C681   C     0.03938   0.09089   0.59587   0.00000  Uiso   1.00
C682   C     0.46629   0.17116   0.37242   0.00000  Uiso   1.00
C683   C     0.48971   0.13267   0.39719   0.00000  Uiso   1.00
C684   C     0.46062   0.09089   0.40413   0.00000  Uiso   1.00
C685   C     0.30985   0.44031   0.49975   0.00000  Uiso   1.00
C686   C     0.47857   0.33459   0.62362   0.00000  Uiso   1.00
C687   C     0.01157   0.36281   0.59623   0.00000  Uiso   1.00
C688   C     0.01004   0.41441   0.60586   0.00000  Uiso   1.00
C689   C     0.27144   0.08459   0.37638   0.00000  Uiso   1.00
C690   C     0.23843   0.11281   0.40377   0.00000  Uiso   1.00
C691   C     0.23998   0.16441   0.39415   0.00000  Uiso   1.00
C692   C     0.28371   0.42116   0.62758   0.00000  Uiso   1.00
C693   C     0.26029   0.38267   0.60281   0.00000  Uiso   1.00
C694   C     0.28938   0.34089   0.59588   0.00000  Uiso   1.00
C695   C     0.21629   0.42116   0.37242   0.00000  Uiso   1.00
C696   C     0.19036   0.06002   0.50012   0.00000  Uiso   1.00
C697   C     0.23971   0.38267   0.39719   0.00000  Uiso   1.00
C698   C     0.21061   0.34089   0.40414   0.00000  Uiso   1.00
C699   C     0.22856   0.08459   0.62363   0.00000  Uiso   1.00
C700   C     0.26156   0.11281   0.59623   0.00000  Uiso   1.00
C701   C     0.26002   0.16441   0.60586   0.00000  Uiso   1.00
C702   C     0.19015   0.44031   0.50025   0.00000  Uiso   1.00
C703   C     0.30964   0.06002   0.49988   0.00000  Uiso   1.00
C704   C     0.00393   0.29030   0.35667   0.00000  Uiso   1.00
H705   H     0.37498   0.18779   0.44415   0.00000  Uiso   1.00
H706   H     0.37316   0.06465   0.55784   0.00000  Uiso   1.00
H707   H     0.31798   0.13114   0.44411   0.00000  Uiso   1.00
H708   H     0.17961   0.37223   0.55878   0.00000  Uiso   1.00
H709   H     0.37501   0.43777   0.55587   0.00000  Uiso   1.00
H710   H     0.12685   0.06466   0.44214   0.00000  Uiso   1.00
H711   H     0.18201   0.13113   0.55590   0.00000  Uiso   1.00
H712   H     0.32043   0.37228   0.44117   0.00000  Uiso   1.00
H713   H     0.02368   0.42727   0.39398   0.00000  Uiso   1.00
H714   H     0.47486   0.42203   0.36206   0.00000  Uiso   1.00
H715   H     0.47145   0.43316   0.42012   0.00000  Uiso   1.00
H716   H     0.12318   0.31462   0.55782   0.00000  Uiso   1.00
H717   H     0.45508   0.35061   0.39781   0.00000  Uiso   1.00
H718   H     0.49576   0.35918   0.43920   0.00000  Uiso   1.00
H719   H     0.05121   0.32698   0.39408   0.00000  Uiso   1.00
H720   H     0.03476   0.35661   0.34969   0.00000  Uiso   1.00
H721   H     0.06908   0.10065   0.57740   0.00000  Uiso   1.00
H722   H     0.04836   0.07587   0.62820   0.00000  Uiso   1.00
H723   H     0.02205   0.06435   0.57663   0.00000  Uiso   1.00
H724   H     0.48132   0.12116   0.62139   0.00000  Uiso   1.00
H725   H     0.00001   0.14488   0.57017   0.00000  Uiso   1.00
H726   H     0.06147   0.18495   0.60875   0.00000  Uiso   1.00
H727   H     0.06796   0.38116   0.44413   0.00000  Uiso   1.00
H728   H     0.05004   0.15571   0.65633   0.00000  Uiso   1.00
H729   H     0.43092   0.10065   0.42260   0.00000  Uiso   1.00
H730   H     0.45164   0.07587   0.37180   0.00000  Uiso   1.00
H731   H     0.47795   0.06435   0.42338   0.00000  Uiso   1.00
H732   H     0.01868   0.12116   0.37861   0.00000  Uiso   1.00
H733   H    -0.00000   0.14488   0.42982   0.00000  Uiso   1.00
H734   H     0.43853   0.18495   0.39125   0.00000  Uiso   1.00
H735   H     0.44996   0.15571   0.34367   0.00000  Uiso   1.00
H736   H     0.47635   0.42727   0.60605   0.00000  Uiso   1.00
H737   H     0.02518   0.42202   0.63794   0.00000  Uiso   1.00
H738   H     0.42959   0.12226   0.55881   0.00000  Uiso   1.00
H739   H     0.02856   0.43315   0.57988   0.00000  Uiso   1.00
H740   H     0.04492   0.35060   0.60217   0.00000  Uiso   1.00
H741   H     0.00424   0.35919   0.56080   0.00000  Uiso   1.00
H742   H     0.44880   0.32697   0.60593   0.00000  Uiso   1.00
H743   H     0.46525   0.35661   0.65031   0.00000  Uiso   1.00
H744   H     0.27366   0.17727   0.39396   0.00000  Uiso   1.00
H745   H     0.22484   0.17202   0.36206   0.00000  Uiso   1.00
H746   H     0.22145   0.18316   0.42012   0.00000  Uiso   1.00
H747   H     0.20508   0.10061   0.39782   0.00000  Uiso   1.00
H748   H     0.24576   0.10919   0.43920   0.00000  Uiso   1.00
H749   H     0.12502   0.18778   0.55587   0.00000  Uiso   1.00
H750   H     0.30121   0.07697   0.39408   0.00000  Uiso   1.00
H751   H     0.28476   0.10661   0.34969   0.00000  Uiso   1.00
H752   H     0.31908   0.35064   0.57740   0.00000  Uiso   1.00
H753   H     0.29835   0.32587   0.62821   0.00000  Uiso   1.00
H754   H     0.27204   0.31435   0.57663   0.00000  Uiso   1.00
H755   H     0.23132   0.37117   0.62138   0.00000  Uiso   1.00
H756   H     0.25001   0.39488   0.57017   0.00000  Uiso   1.00
H757   H     0.31147   0.43495   0.60875   0.00000  Uiso   1.00
H758   H     0.30004   0.40571   0.65633   0.00000  Uiso   1.00
H759   H     0.18091   0.35066   0.42262   0.00000  Uiso   1.00
H760   H     0.37686   0.31467   0.44213   0.00000  Uiso   1.00
H761   H     0.20162   0.32587   0.37181   0.00000  Uiso   1.00
H762   H     0.22794   0.31436   0.42339   0.00000  Uiso   1.00
H763   H     0.26867   0.37115   0.37861   0.00000  Uiso   1.00
H764   H     0.25000   0.39488   0.42982   0.00000  Uiso   1.00
H765   H     0.18853   0.43495   0.39125   0.00000  Uiso   1.00
H766   H     0.19996   0.40571   0.34367   0.00000  Uiso   1.00
H767   H     0.22633   0.17727   0.60606   0.00000  Uiso   1.00
H768   H     0.27517   0.17202   0.63794   0.00000  Uiso   1.00
H769   H     0.27854   0.18316   0.57987   0.00000  Uiso   1.00
H770   H     0.29492   0.10061   0.60218   0.00000  Uiso   1.00
H771   H     0.43201   0.38112   0.55591   0.00000  Uiso   1.00
H772   H     0.25423   0.10919   0.56080   0.00000  Uiso   1.00
H773   H     0.19879   0.07697   0.60593   0.00000  Uiso   1.00
H774   H     0.21524   0.10661   0.65031   0.00000  Uiso   1.00
H775   H     0.07042   0.12227   0.44118   0.00000  Uiso   1.00
H776   H     0.12496   0.43780   0.44416   0.00000  Uiso   1.00
N777   N     0.00000   0.25000   0.61907   0.00000  Uiso   1.00
N778   N     0.00000   0.25000   0.38093   0.00000  Uiso   1.00
N779   N     0.25000   0.00000   0.61907   0.00000  Uiso   1.00
N780   N     0.25000   0.00000   0.38093   0.00000  Uiso   1.00
O781   O     0.04581   0.20419   0.53821   0.00000  Uiso   1.00
O782   O     0.20420   0.04581   0.46179   0.00000  Uiso   1.00
O783   O     0.20420   0.04581   0.53821   0.00000  Uiso   1.00
O784   O     0.29581   0.45419   0.46179   0.00000  Uiso   1.00
O785   O     0.20420   0.45419   0.46179   0.00000  Uiso   1.00
O786   O     0.29581   0.04581   0.53821   0.00000  Uiso   1.00
O787   O     0.29581   0.04581   0.46179   0.00000  Uiso   1.00
O788   O     0.20420   0.45419   0.53821   0.00000  Uiso   1.00
O789   O     0.45420   0.29581   0.46179   0.00000  Uiso   1.00
O790   O     0.45420   0.29581   0.53821   0.00000  Uiso   1.00
O791   O     0.04581   0.20419   0.46179   0.00000  Uiso   1.00
O792   O     0.45420   0.20419   0.46179   0.00000  Uiso   1.00
O793   O     0.04581   0.29581   0.53821   0.00000  Uiso   1.00
O794   O     0.04581   0.29581   0.46179   0.00000  Uiso   1.00
O795   O     0.45420   0.20419   0.53821   0.00000  Uiso   1.00
O796   O     0.29581   0.45419   0.53821   0.00000  Uiso   1.00
Zn797  Zn    0.00000   0.25000   0.55104   0.00000  Uiso   1.00
Zn798  Zn    0.00000   0.25000   0.44896   0.00000  Uiso   1.00
Zn799  Zn    0.25000   0.00000   0.55104   0.00000  Uiso   1.00
Zn800  Zn    0.25000   0.00000   0.44896   0.00000  Uiso   1.00
C801   C     0.55985   0.19031   0.49975   0.00000  Uiso   1.00
C802   C     0.50508   0.21025   0.64355   0.00000  Uiso   1.00
C803   C     0.99492   0.21025   0.35645   0.00000  Uiso   1.00
C804   C     0.99608   0.29030   0.64334   0.00000  Uiso   1.00
C805   C     0.75392   0.04030   0.35667   0.00000  Uiso   1.00
C806   C     0.75508   0.46025   0.64355   0.00000  Uiso   1.00
C807   C     0.74492   0.46025   0.35645   0.00000  Uiso   1.00
C808   C     0.74608   0.04030   0.64334   0.00000  Uiso   1.00
C809   C     0.87485   0.16064   0.46868   0.00000  Uiso   1.00
C810   C     0.62352   0.34150   0.53301   0.00000  Uiso   1.00
C811   C     0.59275   0.37832   0.46840   0.00000  Uiso   1.00
C812   C     0.94036   0.31002   0.50012   0.00000  Uiso   1.00
C813   C     0.90545   0.12406   0.53355   0.00000  Uiso   1.00
C814   C     0.62515   0.16064   0.53132   0.00000  Uiso   1.00
C815   C     0.87650   0.34153   0.46697   0.00000  Uiso   1.00
C816   C     0.90723   0.37830   0.53162   0.00000  Uiso   1.00
C817   C     0.59456   0.12406   0.46644   0.00000  Uiso   1.00
C818   C     0.62484   0.41065   0.46869   0.00000  Uiso   1.00
C819   C     0.87351   0.09152   0.53302   0.00000  Uiso   1.00
C820   C     0.84276   0.12831   0.46839   0.00000  Uiso   1.00
C821   C     0.65546   0.37404   0.53354   0.00000  Uiso   1.00
C822   C     0.87515   0.41064   0.53133   0.00000  Uiso   1.00
C823   C     0.94015   0.19031   0.50025   0.00000  Uiso   1.00
C824   C     0.62650   0.09153   0.46697   0.00000  Uiso   1.00
C825   C     0.65723   0.12831   0.53162   0.00000  Uiso   1.00
C826   C     0.84457   0.37407   0.46643   0.00000  Uiso   1.00
C827   C     0.59262   0.34353   0.50007   0.00000  Uiso   1.00
C828   C     0.90634   0.15789   0.50089   0.00000  Uiso   1.00
C829   C     0.90738   0.34353   0.49993   0.00000  Uiso   1.00
C830   C     0.59366   0.15789   0.49911   0.00000  Uiso   1.00
C831   C     0.84262   0.09353   0.50007   0.00000  Uiso   1.00
C832   C     0.65634   0.40788   0.50089   0.00000  Uiso   1.00
C833   C     0.65738   0.09353   0.49993   0.00000  Uiso   1.00
C834   C     0.55964   0.31002   0.49988   0.00000  Uiso   1.00
C835   C     0.84366   0.40789   0.49911   0.00000  Uiso   1.00
C836   C     0.52144   0.33459   0.37638   0.00000  Uiso   1.00
C837   C     0.98843   0.36281   0.40377   0.00000  Uiso   1.00
C838   C     0.98999   0.41441   0.39415   0.00000  Uiso   1.00
C839   C     0.53371   0.17116   0.62758   0.00000  Uiso   1.00
C840   C     0.51029   0.13267   0.60281   0.00000  Uiso   1.00
C841   C     0.53938   0.09089   0.59587   0.00000  Uiso   1.00
C842   C     0.96629   0.17116   0.37242   0.00000  Uiso   1.00
C843   C     0.98971   0.13267   0.39719   0.00000  Uiso   1.00
C844   C     0.96062   0.09089   0.40413   0.00000  Uiso   1.00
C845   C     0.80985   0.44031   0.49975   0.00000  Uiso   1.00
C846   C     0.97857   0.33459   0.62362   0.00000  Uiso   1.00
C847   C     0.51157   0.36281   0.59623   0.00000  Uiso   1.00
C848   C     0.51004   0.41441   0.60586   0.00000  Uiso   1.00
C849   C     0.77144   0.08459   0.37638   0.00000  Uiso   1.00
C850   C     0.73843   0.11281   0.40377   0.00000  Uiso   1.00
C851   C     0.73998   0.16441   0.39415   0.00000  Uiso   1.00
C852   C     0.78371   0.42116   0.62758   0.00000  Uiso   1.00
C853   C     0.76029   0.38267   0.60281   0.00000  Uiso   1.00
C854   C     0.78938   0.34089   0.59588   0.00000  Uiso   1.00
C855   C     0.71629   0.42116   0.37242   0.00000  Uiso   1.00
C856   C     0.69036   0.06002   0.50012   0.00000  Uiso   1.00
C857   C     0.73971   0.38267   0.39719   0.00000  Uiso   1.00
C858   C     0.71061   0.34089   0.40414   0.00000  Uiso   1.00
C859   C     0.72856   0.08459   0.62363   0.00000  Uiso   1.00
C860   C     0.76156   0.11281   0.59623   0.00000  Uiso   1.00
C861   C     0.76002   0.16441   0.60586   0.00000  Uiso   1.00
C862   C     0.69015   0.44031   0.50025   0.00000  Uiso   1.00
C863   C     0.80964   0.06002   0.49988   0.00000  Uiso   1.00
C864   C     0.50393   0.29030   0.35667   0.00000  Uiso   1.00
H865   H     0.87498   0.18779   0.44415   0.00000  Uiso   1.00
H866   H     0.87316   0.06465   0.55784   0.00000  Uiso   1.00
H867   H     0.81798   0.13114   0.44411   0.00000  Uiso   1.00
H868   H     0.67961   0.37223   0.55878   0.00000  Uiso   1.00
H869   H     0.87501   0.43777   0.55587   0.00000  Uiso   1.00
H870   H     0.62685   0.06466   0.44214   0.00000  Uiso   1.00
H871   H     0.68201   0.13113   0.55590   0.00000  Uiso   1.00
H872   H     0.82043   0.37228   0.44117   0.00000  Uiso   1.00
H873   H     0.52368   0.42727   0.39398   0.00000  Uiso   1.00
H874   H     0.97486   0.42203   0.36206   0.00000  Uiso   1.00
H875   H     0.97145   0.43316   0.42012   0.00000  Uiso   1.00
H876   H     0.62318   0.31462   0.55782   0.00000  Uiso   1.00
H877   H     0.95508   0.35061   0.39781   0.00000  Uiso   1.00
H878   H     0.99576   0.35918   0.43920   0.00000  Uiso   1.00
H879   H     0.55121   0.32698   0.39408   0.00000  Uiso   1.00
H880   H     0.53476   0.35661   0.34969   0.00000  Uiso   1.00
H881   H     0.56908   0.10065   0.57740   0.00000  Uiso   1.00
H882   H     0.54836   0.07587   0.62820   0.00000  Uiso   1.00
H883   H     0.52205   0.06435   0.57663   0.00000  Uiso   1.00
H884   H     0.98132   0.12116   0.62139   0.00000  Uiso   1.00
H885   H     0.50001   0.14488   0.57017   0.00000  Uiso   1.00
H886   H     0.56147   0.18495   0.60875   0.00000  Uiso   1.00
H887   H     0.56796   0.38116   0.44413   0.00000  Uiso   1.00
H888   H     0.55004   0.15571   0.65633   0.00000  Uiso   1.00
H889   H     0.93092   0.10065   0.42260   0.00000  Uiso   1.00
H890   H     0.95164   0.07587   0.37180   0.00000  Uiso   1.00
H891   H     0.97795   0.06435   0.42338   0.00000  Uiso   1.00
H892   H     0.51868   0.12116   0.37861   0.00000  Uiso   1.00
H893   H     0.50000   0.14488   0.42982   0.00000  Uiso   1.00
H894   H     0.93853   0.18495   0.39125   0.00000  Uiso   1.00
H895   H     0.94996   0.15571   0.34367   0.00000  Uiso   1.00
H896   H     0.97635   0.42727   0.60605   0.00000  Uiso   1.00
H897   H     0.52518   0.42202   0.63794   0.00000  Uiso   1.00
H898   H     0.92959   0.12226   0.55881   0.00000  Uiso   1.00
H899   H     0.52856   0.43315   0.57988   0.00000  Uiso   1.00
H900   H     0.54492   0.35060   0.60217   0.00000  Uiso   1.00
H901   H     0.50424   0.35919   0.56080   0.00000  Uiso   1.00
H902   H     0.94880   0.32697   0.60593   0.00000  Uiso   1.00
H903   H     0.96525   0.35661   0.65031   0.00000  Uiso   1.00
H904   H     0.77366   0.17727   0.39396   0.00000  Uiso   1.00
H905   H     0.72484   0.17202   0.36206   0.00000  Uiso   1.00
H906   H     0.72145   0.18316   0.42012   0.00000  Uiso   1.00
H907   H     0.70508   0.10061   0.39782   0.00000  Uiso   1.00
H908   H     0.74576   0.10919   0.43920   0.00000  Uiso   1.00
H909   H     0.62502   0.18778   0.55587   0.00000  Uiso   1.00
H910   H     0.80121   0.07697   0.39408   0.00000  Uiso   1.00
H911   H     0.78476   0.10661   0.34969   0.00000  Uiso   1.00
H912   H     0.81908   0.35064   0.57740   0.00000  Uiso   1.00
H913   H     0.79835   0.32587   0.62821   0.00000  Uiso   1.00
H914   H     0.77204   0.31435   0.57663   0.00000  Uiso   1.00
H915   H     0.73132   0.37117   0.62138   0.00000  Uiso   1.00
H916   H     0.75001   0.39488   0.57017   0.00000  Uiso   1.00
H917   H     0.81147   0.43495   0.60875   0.00000  Uiso   1.00
H918   H     0.80004   0.40571   0.65633   0.00000  Uiso   1.00
H919   H     0.68091   0.35066   0.42262   0.00000  Uiso   1.00
H920   H     0.87686   0.31467   0.44213   0.00000  Uiso   1.00
H921   H     0.70162   0.32587   0.37181   0.00000  Uiso   1.00
H922   H     0.72794   0.31436   0.42339   0.00000  Uiso   1.00
H923   H     0.76867   0.37115   0.37861   0.00000  Uiso   1.00
H924   H     0.75000   0.39488   0.42982   0.00000  Uiso   1.00
H925   H     0.68853   0.43495   0.39125   0.00000  Uiso   1.00
H926   H     0.69996   0.40571   0.34367   0.00000  Uiso   1.00
H927   H     0.72633   0.17727   0.60606   0.00000  Uiso   1.00
H928   H     0.77517   0.17202   0.63794   0.00000  Uiso   1.00
H929   H     0.77854   0.18316   0.57987   0.00000  Uiso   1.00
H930   H     0.79492   0.10061   0.60218   0.00000  Uiso   1.00
H931   H     0.93201   0.38112   0.55591   0.00000  Uiso   1.00
H932   H     0.75423   0.10919   0.56080   0.00000  Uiso   1.00
H933   H     0.69879   0.07697   0.60593   0.00000  Uiso   1.00
H934   H     0.71524   0.10661   0.65031   0.00000  Uiso   1.00
H935   H     0.57042   0.12227   0.44118   0.00000  Uiso   1.00
H936   H     0.62496   0.43780   0.44416   0.00000  Uiso   1.00
N937   N     0.50000   0.25000   0.61907   0.00000  Uiso   1.00
N938   N     0.50000   0.25000   0.38093   0.00000  Uiso   1.00
N939   N     0.75000   0.00000   0.61907   0.00000  Uiso   1.00
N940   N     0.75000   0.00000   0.38093   0.00000  Uiso   1.00
O941   O     0.54581   0.20419   0.53821   0.00000  Uiso   1.00
O942   O     0.70420   0.04581   0.46179   0.00000  Uiso   1.00
O943   O     0.70420   0.04581   0.53821   0.00000  Uiso   1.00
O944   O     0.79581   0.45419   0.46179   0.00000  Uiso   1.00
O945   O     0.70420   0.45419   0.46179   0.00000  Uiso   1.00
O946   O     0.79581   0.04581   0.53821   0.00000  Uiso   1.00
O947   O     0.79581   0.04581   0.46179   0.00000  Uiso   1.00
O948   O     0.70420   0.45419   0.53821   0.00000  Uiso   1.00
O949   O     0.95420   0.29581   0.46179   0.00000  Uiso   1.00
O950   O     0.95420   0.29581   0.53821   0.00000  Uiso   1.00
O951   O     0.54581   0.20419   0.46179   0.00000  Uiso   1.00
O952   O     0.95420   0.20419   0.46179   0.00000  Uiso   1.00
O953   O     0.54581   0.29581   0.53821   0.00000  Uiso   1.00
O954   O     0.54581   0.29581   0.46179   0.00000  Uiso   1.00
O955   O     0.95420   0.20419   0.53821   0.00000  Uiso   1.00
O956   O     0.79581   0.45419   0.53821   0.00000  Uiso   1.00
Zn957  Zn    0.50000   0.25000   0.55104   0.00000  Uiso   1.00
Zn958  Zn    0.50000   0.25000   0.44896   0.00000  Uiso   1.00
Zn959  Zn    0.75000   0.00000   0.55104   0.00000  Uiso   1.00
Zn960  Zn    0.75000   0.00000   0.44896   0.00000  Uiso   1.00
C961   C     0.05985   0.69031   0.49975   0.00000  Uiso   1.00
C962   C     0.00508   0.71025   0.64355   0.00000  Uiso   1.00
C963   C     0.49492   0.71025   0.35645   0.00000  Uiso   1.00
C964   C     0.49608   0.79030   0.64334   0.00000  Uiso   1.00
C965   C     0.25392   0.54030   0.35667   0.00000  Uiso   1.00
C966   C     0.25508   0.96025   0.64355   0.00000  Uiso   1.00
C967   C     0.24492   0.96025   0.35645   0.00000  Uiso   1.00
C968   C     0.24608   0.54030   0.64334   0.00000  Uiso   1.00
C969   C     0.37485   0.66064   0.46868   0.00000  Uiso   1.00
C970   C     0.12352   0.84150   0.53301   0.00000  Uiso   1.00
C971   C     0.09275   0.87832   0.46840   0.00000  Uiso   1.00
C972   C     0.44036   0.81002   0.50012   0.00000  Uiso   1.00
C973   C     0.40545   0.62406   0.53355   0.00000  Uiso   1.00
C974   C     0.12515   0.66064   0.53132   0.00000  Uiso   1.00
C975   C     0.37650   0.84153   0.46697   0.00000  Uiso   1.00
C976   C     0.40723   0.87830   0.53162   0.00000  Uiso   1.00
C977   C     0.09456   0.62406   0.46644   0.00000  Uiso   1.00
C978   C     0.12484   0.91065   0.46869   0.00000  Uiso   1.00
C979   C     0.37351   0.59152   0.53302   0.00000  Uiso   1.00
C980   C     0.34276   0.62831   0.46839   0.00000  Uiso   1.00
C981   C     0.15546   0.87404   0.53354   0.00000  Uiso   1.00
C982   C     0.37515   0.91064   0.53133   0.00000  Uiso   1.00
C983   C     0.44015   0.69031   0.50025   0.00000  Uiso   1.00
C984   C     0.12650   0.59153   0.46697   0.00000  Uiso   1.00
C985   C     0.15723   0.62831   0.53162   0.00000  Uiso   1.00
C986   C     0.34457   0.87407   0.46643   0.00000  Uiso   1.00
C987   C     0.09262   0.84353   0.50007   0.00000  Uiso   1.00
C988   C     0.40634   0.65789   0.50089   0.00000  Uiso   1.00
C989   C     0.40738   0.84353   0.49993   0.00000  Uiso   1.00
C990   C     0.09366   0.65789   0.49911   0.00000  Uiso   1.00
C991   C     0.34262   0.59353   0.50007   0.00000  Uiso   1.00
C992   C     0.15634   0.90788   0.50089   0.00000  Uiso   1.00
C993   C     0.15738   0.59353   0.49993   0.00000  Uiso   1.00
C994   C     0.05964   0.81002   0.49988   0.00000  Uiso   1.00
C995   C     0.34366   0.90789   0.49911   0.00000  Uiso   1.00
C996   C     0.02144   0.83459   0.37638   0.00000  Uiso   1.00
C997   C     0.48843   0.86281   0.40377   0.00000  Uiso   1.00
C998   C     0.48999   0.91441   0.39415   0.00000  Uiso   1.00
C999   C     0.03371   0.67116   0.62758   0.00000  Uiso   1.00
C1000  C     0.01029   0.63267   0.60281   0.00000  Uiso   1.00
C1001  C     0.03938   0.59089   0.59587   0.00000  Uiso   1.00
C1002  C     0.46629   0.67116   0.37242   0.00000  Uiso   1.00
C1003  C     0.48971   0.63267   0.39719   0.00000  Uiso   1.00
C1004  C     0.46062   0.59089   0.40413   0.00000  Uiso   1.00
C1005  C     0.30985   0.94031   0.49975   0.00000  Uiso   1.00
C1006  C     0.47857   0.83459   0.62362   0.00000  Uiso   1.00
C1007  C     0.01157   0.86281   0.59623   0.00000  Uiso   1.00
C1008  C     0.01004   0.91441   0.60586   0.00000  Uiso   1.00
C1009  C     0.27144   0.58459   0.37638   0.00000  Uiso   1.00
C1010  C     0.23843   0.61281   0.40377   0.00000  Uiso   1.00
C1011  C     0.23998   0.66441   0.39415   0.00000  Uiso   1.00
C1012  C     0.28371   0.92116   0.62758   0.00000  Uiso   1.00
C1013  C     0.26029   0.88267   0.60281   0.00000  Uiso   1.00
C1014  C     0.28938   0.84089   0.59588   0.00000  Uiso   1.00
C1015  C     0.21629   0.92116   0.37242   0.00000  Uiso   1.00
C1016  C     0.19036   0.56002   0.50012   0.00000  Uiso   1.00
C1017  C     0.23971   0.88267   0.39719   0.00000  Uiso   1.00
C1018  C     0.21061   0.84089   0.40414   0.00000  Uiso   1.00
C1019  C     0.22856   0.58459   0.62363   0.00000  Uiso   1.00
C1020  C     0.26156   0.61281   0.59623   0.00000  Uiso   1.00
C1021  C     0.26002   0.66441   0.60586   0.00000  Uiso   1.00
C1022  C     0.19015   0.94031   0.50025   0.00000  Uiso   1.00
C1023  C     0.30964   0.56002   0.49988   0.00000  Uiso   1.00
C1024  C     0.00393   0.79030   0.35667   0.00000  Uiso   1.00
H1025  H     0.37498   0.68779   0.44415   0.00000  Uiso   1.00
H1026  H     0.37316   0.56465   0.55784   0.00000  Uiso   1.00
H1027  H     0.31798   0.63114   0.44411   0.00000  Uiso   1.00
H1028  H     0.17961   0.87223   0.55878   0.00000  Uiso   1.00
H1029  H     0.37501   0.93777   0.55587   0.00000  Uiso   1.00
H1030  H     0.12685   0.56466   0.44214   0.00000  Uiso   1.00
H1031  H     0.18201   0.63113   0.55590   0.00000  Uiso   1.00
H1032  H     0.32043   0.87228   0.44117   0.00000  Uiso   1.00
H1033  H     0.02368   0.92727   0.39398   0.00000  Uiso   1.00
H1034  H     0.47486   0.92203   0.36206   0.00000  Uiso   1.00
H1035  H     0.47145   0.93316   0.42012   0.00000  Uiso   1.00
H1036  H     0.12318   0.81462   0.55782   0.00000  Uiso   1.00
H1037  H     0.45508   0.85061   0.39781   0.00000  Uiso   1.00
H1038  H     0.49576   0.85918   0.43920   0.00000  Uiso   1.00
H1039  H     0.05121   0.82698   0.39408   0.00000  Uiso   1.00
H1040  H     0.03476   0.85661   0.34969   0.00000  Uiso   1.00
H1041  H     0.06908   0.60065   0.57740   0.00000  Uiso   1.00
H1042  H     0.04836   0.57587   0.62820   0.00000  Uiso   1.00
H1043  H     0.02205   0.56435   0.57663   0.00000  Uiso   1.00
H1044  H     0.48132   0.62116   0.62139   0.00000  Uiso   1.00
H1045  H     0.00001   0.64488   0.57017   0.00000  Uiso   1.00
H1046  H     0.06147   0.68495   0.60875   0.00000  Uiso   1.00
H1047  H     0.06796   0.88116   0.44413   0.00000  Uiso   1.00
H1048  H     0.05004   0.65571   0.65633   0.00000  Uiso   1.00
H1049  H     0.43092   0.60065   0.42260   0.00000  Uiso   1.00
H1050  H     0.45164   0.57587   0.37180   0.00000  Uiso   1.00
H1051  H     0.47795   0.56435   0.42338   0.00000  Uiso   1.00
H1052  H     0.01868   0.62116   0.37861   0.00000  Uiso   1.00
H1053  H    -0.00000   0.64488   0.42982   0.00000  Uiso   1.00
H1054  H     0.43853   0.68495   0.39125   0.00000  Uiso   1.00
H1055  H     0.44996   0.65571   0.34367   0.00000  Uiso   1.00
H1056  H     0.47635   0.92727   0.60605   0.00000  Uiso   1.00
H1057  H     0.02518   0.92202   0.63794   0.00000  Uiso   1.00
H1058  H     0.42959   0.62226   0.55881   0.00000  Uiso   1.00
H1059  H     0.02856   0.93315   0.57988   0.00000  Uiso   1.00
H1060  H     0.04492   0.85060   0.60217   0.00000  Uiso   1.00
H1061  H     0.00424   0.85919   0.56080   0.00000  Uiso   1.00
H1062  H     0.44880   0.82697   0.60593   0.00000  Uiso   1.00
H1063  H     0.46525   0.85661   0.65031   0.00000  Uiso   1.00
H1064  H     0.27366   0.67727   0.39396   0.00000  Uiso   1.00
H1065  H     0.22484   0.67202   0.36206   0.00000  Uiso   1.00
H1066  H     0.22145   0.68316   0.42012   0.00000  Uiso   1.00
H1067  H     0.20508   0.60061   0.39782   0.00000  Uiso   1.00
H1068  H     0.24576   0.60919   0.43920   0.00000  Uiso   1.00
H1069  H     0.12502   0.68778   0.55587   0.00000  Uiso   1.00
H1070  H     0.30121   0.57697   0.39408   0.00000  Uiso   1.00
H1071  H     0.28476   0.60661   0.34969   0.00000  Uiso   1.00
H1072  H     0.31908   0.85064   0.57740   0.00000  Uiso   1.00
H1073  H     0.29835   0.82587   0.62821   0.00000  Uiso   1.00
H1074  H     0.27204   0.81435   0.57663   0.00000  Uiso   1.00
H1075  H     0.23132   0.87117   0.62138   0.00000  Uiso   1.00
H1076  H     0.25001   0.89488   0.57017   0.00000  Uiso   1.00
H1077  H     0.31147   0.93495   0.60875   0.00000  Uiso   1.00
H1078  H     0.30004   0.90571   0.65633   0.00000  Uiso   1.00
H1079  H     0.18091   0.85066   0.42262   0.00000  Uiso   1.00
H1080  H     0.37686   0.81467   0.44213   0.00000  Uiso   1.00
H1081  H     0.20162   0.82587   0.37181   0.00000  Uiso   1.00
H1082  H     0.22794   0.81436   0.42339   0.00000  Uiso   1.00
H1083  H     0.26867   0.87115   0.37861   0.00000  Uiso   1.00
H1084  H     0.25000   0.89488   0.42982   0.00000  Uiso   1.00
H1085  H     0.18853   0.93495   0.39125   0.00000  Uiso   1.00
H1086  H     0.19996   0.90571   0.34367   0.00000  Uiso   1.00
H1087  H     0.22633   0.67727   0.60606   0.00000  Uiso   1.00
H1088  H     0.27517   0.67202   0.63794   0.00000  Uiso   1.00
H1089  H     0.27854   0.68316   0.57987   0.00000  Uiso   1.00
H1090  H     0.29492   0.60061   0.60218   0.00000  Uiso   1.00
H1091  H     0.43201   0.88112   0.55591   0.00000  Uiso   1.00
H1092  H     0.25423   0.60919   0.56080   0.00000  Uiso   1.00
H1093  H     0.19879   0.57697   0.60593   0.00000  Uiso   1.00
H1094  H     0.21524   0.60661   0.65031   0.00000  Uiso   1.00
H1095  H     0.07042   0.62227   0.44118   0.00000  Uiso   1.00
H1096  H     0.12496   0.93780   0.44416   0.00000  Uiso   1.00
N1097  N     0.00000   0.75000   0.61907   0.00000  Uiso   1.00
N1098  N     0.00000   0.75000   0.38093   0.00000  Uiso   1.00
N1099  N     0.25000   0.50000   0.61907   0.00000  Uiso   1.00
N1100  N     0.25000   0.50000   0.38093   0.00000  Uiso   1.00
O1101  O     0.04581   0.70419   0.53821   0.00000  Uiso   1.00
O1102  O     0.20420   0.54581   0.46179   0.00000  Uiso   1.00
O1103  O     0.20420   0.54581   0.53821   0.00000  Uiso   1.00
O1104  O     0.29581   0.95419   0.46179   0.00000  Uiso   1.00
O1105  O     0.20420   0.95419   0.46179   0.00000  Uiso   1.00
O1106  O     0.29581   0.54581   0.53821   0.00000  Uiso   1.00
O1107  O     0.29581   0.54581   0.46179   0.00000  Uiso   1.00
O1108  O     0.20420   0.95419   0.53821   0.00000  Uiso   1.00
O1109  O     0.45420   0.79581   0.46179   0.00000  Uiso   1.00
O1110  O     0.45420   0.79581   0.53821   0.00000  Uiso   1.00
O1111  O     0.04581   0.70419   0.46179   0.00000  Uiso   1.00
O1112  O     0.45420   0.70419   0.46179   0.00000  Uiso   1.00
O1113  O     0.04581   0.79581   0.53821   0.00000  Uiso   1.00
O1114  O     0.04581   0.79581   0.46179   0.00000  Uiso   1.00
O1115  O     0.45420   0.70419   0.53821   0.00000  Uiso   1.00
O1116  O     0.29581   0.95419   0.53821   0.00000  Uiso   1.00
Zn1117 Zn    0.00000   0.75000   0.55104   0.00000  Uiso   1.00
Zn1118 Zn    0.00000   0.75000   0.44896   0.00000  Uiso   1.00
Zn1119 Zn    0.25000   0.50000   0.55104   0.00000  Uiso   1.00
Zn1120 Zn    0.25000   0.50000   0.44896   0.00000  Uiso   1.00
C1121  C     0.55985   0.69031   0.49975   0.00000  Uiso   1.00
C1122  C     0.50508   0.71025   0.64355   0.00000  Uiso   1.00
C1123  C     0.99492   0.71025   0.35645   0.00000  Uiso   1.00
C1124  C     0.99608   0.79030   0.64334   0.00000  Uiso   1.00
C1125  C     0.75392   0.54030   0.35667   0.00000  Uiso   1.00
C1126  C     0.75508   0.96025   0.64355   0.00000  Uiso   1.00
C1127  C     0.74492   0.96025   0.35645   0.00000  Uiso   1.00
C1128  C     0.74608   0.54030   0.64334   0.00000  Uiso   1.00
C1129  C     0.87485   0.66064   0.46868   0.00000  Uiso   1.00
C1130  C     0.62352   0.84150   0.53301   0.00000  Uiso   1.00
C1131  C     0.59275   0.87832   0.46840   0.00000  Uiso   1.00
C1132  C     0.94036   0.81002   0.50012   0.00000  Uiso   1.00
C1133  C     0.90545   0.62406   0.53355   0.00000  Uiso   1.00
C1134  C     0.62515   0.66064   0.53132   0.00000  Uiso   1.00
C1135  C     0.87650   0.84153   0.46697   0.00000  Uiso   1.00
C1136  C     0.90723   0.87830   0.53162   0.00000  Uiso   1.00
C1137  C     0.59456   0.62406   0.46644   0.00000  Uiso   1.00
C1138  C     0.62484   0.91065   0.46869   0.00000  Uiso   1.00
C1139  C     0.87351   0.59152   0.53302   0.00000  Uiso   1.00
C1140  C     0.84276   0.62831   0.46839   0.00000  Uiso   1.00
C1141  C     0.65546   0.87404   0.53354   0.00000  Uiso   1.00
C1142  C     0.87515   0.91064   0.53133   0.00000  Uiso   1.00
C1143  C     0.94015   0.69031   0.50025   0.00000  Uiso   1.00
C1144  C     0.62650   0.59153   0.46697   0.00000  Uiso   1.00
C1145  C     0.65723   0.62831   0.53162   0.00000  Uiso   1.00
C1146  C     0.84457   0.87407   0.46643   0.00000  Uiso   1.00
C1147  C     0.59262   0.84353   0.50007   0.00000  Uiso   1.00
C1148  C     0.90634   0.65789   0.50089   0.00000  Uiso   1.00
C1149  C     0.90738   0.84353   0.49993   0.00000  Uiso   1.00
C1150  C     0.59366   0.65789   0.49911   0.00000  Uiso   1.00
C1151  C     0.84262   0.59353   0.50007   0.00000  Uiso   1.00
C1152  C     0.65634   0.90788   0.50089   0.00000  Uiso   1.00
C1153  C     0.65738   0.59353   0.49993   0.00000  Uiso   1.00
C1154  C     0.55964   0.81002   0.49988   0.00000  Uiso   1.00
C1155  C     0.84366   0.90789   0.49911   0.00000  Uiso   1.00
C1156  C     0.52144   0.83459   0.37638   0.00000  Uiso   1.00
C1157  C     0.98843   0.86281   0.40377   0.00000  Uiso   1.00
C1158  C     0.98999   0.91441   0.39415   0.00000  Uiso   1.00
C1159  C     0.53371   0.67116   0.62758   0.00000  Uiso   1.00
C1160  C     0.51029   0.63267   0.60281   0.00000  Uiso   1.00
C1161  C     0.53938   0.59089   0.59587   0.00000  Uiso   1.00
C1162  C     0.96629   0.67116   0.37242   0.00000  Uiso   1.00
C1163  C     0.98971   0.63267   0.39719   0.00000  Uiso   1.00
C1164  C     0.96062   0.59089   0.40413   0.00000  Uiso   1.00
C1165  C     0.80985   0.94031   0.49975   0.00000  Uiso   1.00
C1166  C     0.97857   0.83459   0.62362   0.00000  Uiso   1.00
C1167  C     0.51157   0.86281   0.59623   0.00000  Uiso   1.00
C1168  C     0.51004   0.91441   0.60586   0.00000  Uiso   1.00
C1169  C     0.77144   0.58459   0.37638   0.00000  Uiso   1.00
C1170  C     0.73843   0.61281   0.40377   0.00000  Uiso   1.00
C1171  C     0.73998   0.66441   0.39415   0.00000  Uiso   1.00
C1172  C     0.78371   0.92116   0.62758   0.00000  Uiso   1.00
C1173  C     0.76029   0.88267   0.60281   0.00000  Uiso   1.00
C1174  C     0.78938   0.84089   0.59588   0.00000  Uiso   1.00
C1175  C     0.71629   0.92116   0.37242   0.00000  Uiso   1.00
C1176  C     0.69036   0.56002   0.50012   0.00000  Uiso   1.00
C1177  C     0.73971   0.88267   0.39719   0.00000  Uiso   1.00
C1178  C     0.71061   0.84089   0.40414   0.00000  Uiso   1.00
C1179  C     0.72856   0.58459   0.62363   0.00000  Uiso   1.00
C1180  C     0.76156   0.61281   0.59623   0.00000  Uiso   1.00
C1181  C     0.76002   0.66441   0.60586   0.00000  Uiso   1.00
C1182  C     0.69015   0.94031   0.50025   0.00000  Uiso   1.00
C1183  C     0.80964   0.56002   0.49988   0.00000  Uiso   1.00
C1184  C     0.50393   0.79030   0.35667   0.00000  Uiso   1.00
H1185  H     0.87498   0.68779   0.44415   0.00000  Uiso   1.00
H1186  H     0.87316   0.56465   0.55784   0.00000  Uiso   1.00
H1187  H     0.81798   0.63114   0.44411   0.00000  Uiso   1.00
H1188  H     0.67961   0.87223   0.55878   0.00000  Uiso   1.00
H1189  H     0.87501   0.93777   0.55587   0.00000  Uiso   1.00
H1190  H     0.62685   0.56466   0.44214   0.00000  Uiso   1.00
H1191  H     0.68201   0.63113   0.55590   0.00000  Uiso   1.00
H1192  H     0.82043   0.87228   0.44117   0.00000  Uiso   1.00
H1193  H     0.52368   0.92727   0.39398   0.00000  Uiso   1.00
H1194  H     0.97486   0.92203   0.36206   0.00000  Uiso   1.00
H1195  H     0.97145   0.93316   0.42012   0.00000  Uiso   1.00
H1196  H     0.62318   0.81462   0.55782   0.00000  Uiso   1.00
H1197  H     0.95508   0.85061   0.39781   0.00000  Uiso   1.00
H1198  H     0.99576   0.85918   0.43920   0.00000  Uiso   1.00
H1199  H     0.55121   0.82698   0.39408   0.00000  Uiso   1.00
H1200  H     0.53476   0.85661   0.34969   0.00000  Uiso   1.00
H1201  H     0.56908   0.60065   0.57740   0.00000  Uiso   1.00
H1202  H     0.54836   0.57587   0.62820   0.00000  Uiso   1.00
H1203  H     0.52205   0.56435   0.57663   0.00000  Uiso   1.00
H1204  H     0.98132   0.62116   0.62139   0.00000  Uiso   1.00
H1205  H     0.50001   0.64488   0.57017   0.00000  Uiso   1.00
H1206  H     0.56147   0.68495   0.60875   0.00000  Uiso   1.00
H1207  H     0.56796   0.88116   0.44413   0.00000  Uiso   1.00
H1208  H     0.55004   0.65571   0.65633   0.00000  Uiso   1.00
H1209  H     0.93092   0.60065   0.42260   0.00000  Uiso   1.00
H1210  H     0.95164   0.57587   0.37180   0.00000  Uiso   1.00
H1211  H     0.97795   0.56435   0.42338   0.00000  Uiso   1.00
H1212  H     0.51868   0.62116   0.37861   0.00000  Uiso   1.00
H1213  H     0.50000   0.64488   0.42982   0.00000  Uiso   1.00
H1214  H     0.93853   0.68495   0.39125   0.00000  Uiso   1.00
H1215  H     0.94996   0.65571   0.34367   0.00000  Uiso   1.00
H1216  H     0.97635   0.92727   0.60605   0.00000  Uiso   1.00
H1217  H     0.52518   0.92202   0.63794   0.00000  Uiso   1.00
H1218  H     0.92959   0.62226   0.55881   0.00000  Uiso   1.00
H1219  H     0.52856   0.93315   0.57988   0.00000  Uiso   1.00
H1220  H     0.54492   0.85060   0.60217   0.00000  Uiso   1.00
H1221  H     0.50424   0.85919   0.56080   0.00000  Uiso   1.00
H1222  H     0.94880   0.82697   0.60593   0.00000  Uiso   1.00
H1223  H     0.96525   0.85661   0.65031   0.00000  Uiso   1.00
H1224  H     0.77366   0.67727   0.39396   0.00000  Uiso   1.00
H1225  H     0.72484   0.67202   0.36206   0.00000  Uiso   1.00
H1226  H     0.72145   0.68316   0.42012   0.00000  Uiso   1.00
H1227  H     0.70508   0.60061   0.39782   0.00000  Uiso   1.00
H1228  H     0.74576   0.60919   0.43920   0.00000  Uiso   1.00
H1229  H     0.62502   0.68778   0.55587   0.00000  Uiso   1.00
H1230  H     0.80121   0.57697   0.39408   0.00000  Uiso   1.00
H1231  H     0.78476   0.60661   0.34969   0.00000  Uiso   1.00
H1232  H     0.81908   0.85064   0.57740   0.00000  Uiso   1.00
H1233  H     0.79835   0.82587   0.62821   0.00000  Uiso   1.00
H1234  H     0.77204   0.81435   0.57663   0.00000  Uiso   1.00
H1235  H     0.73132   0.87117   0.62138   0.00000  Uiso   1.00
H1236  H     0.75001   0.89488   0.57017   0.00000  Uiso   1.00
H1237  H     0.81147   0.93495   0.60875   0.00000  Uiso   1.00
H1238  H     0.80004   0.90571   0.65633   0.00000  Uiso   1.00
H1239  H     0.68091   0.85066   0.42262   0.00000  Uiso   1.00
H1240  H     0.87686   0.81467   0.44213   0.00000  Uiso   1.00
H1241  H     0.70162   0.82587   0.37181   0.00000  Uiso   1.00
H1242  H     0.72794   0.81436   0.42339   0.00000  Uiso   1.00
H1243  H     0.76867   0.87115   0.37861   0.00000  Uiso   1.00
H1244  H     0.75000   0.89488   0.42982   0.00000  Uiso   1.00
H1245  H     0.68853   0.93495   0.39125   0.00000  Uiso   1.00
H1246  H     0.69996   0.90571   0.34367   0.00000  Uiso   1.00
H1247  H     0.72633   0.67727   0.60606   0.00000  Uiso   1.00
H1248  H     0.77517   0.67202   0.63794   0.00000  Uiso   1.00
H1249  H     0.77854   0.68316   0.57987   0.00000  Uiso   1.00
H1250  H     0.79492   0.60061   0.60218   0.00000  Uiso   1.00
H1251  H     0.93201   0.88112   0.55591   0.00000  Uiso   1.00
H1252  H     0.75423   0.60919   0.56080   0.00000  Uiso   1.00
H1253  H     0.69879   0.57697   0.60593   0.00000  Uiso   1.00
H1254  H     0.71524   0.60661   0.65031   0.00000  Uiso   1.00
H1255  H     0.57042   0.62227   0.44118   0.00000  Uiso   1.00
H1256  H     0.62496   0.93780   0.44416   0.00000  Uiso   1.00
N1257  N     0.50000   0.75000   0.61907   0.00000  Uiso   1.00
N1258  N     0.50000   0.75000   0.38093   0.00000  Uiso   1.00
N1259  N     0.75000   0.50000   0.61907   0.00000  Uiso   1.00
N1260  N     0.75000   0.50000   0.38093   0.00000  Uiso   1.00
O1261  O     0.54581   0.70419   0.53821   0.00000  Uiso   1.00
O1262  O     0.70420   0.54581   0.46179   0.00000  Uiso   1.00
O1263  O     0.70420   0.54581   0.53821   0.00000  Uiso   1.00
O1264  O     0.79581   0.95419   0.46179   0.00000  Uiso   1.00
O1265  O     0.70420   0.95419   0.46179   0.00000  Uiso   1.00
O1266  O     0.79581   0.54581   0.53821   0.00000  Uiso   1.00
O1267  O     0.79581   0.54581   0.46179   0.00000  Uiso   1.00
O1268  O     0.70420   0.95419   0.53821   0.00000  Uiso   1.00
O1269  O     0.95420   0.79581   0.46179   0.00000  Uiso   1.00
O1270  O     0.95420   0.79581   0.53821   0.00000  Uiso   1.00
O1271  O     0.54581   0.70419   0.46179   0.00000  Uiso   1.00
O1272  O     0.95420   0.70419   0.46179   0.00000  Uiso   1.00
O1273  O     0.54581   0.79581   0.53821   0.00000  Uiso   1.00
O1274  O     0.54581   0.79581   0.46179   0.00000  Uiso   1.00
O1275  O     0.95420   0.70419   0.53821   0.00000  Uiso   1.00
O1276  O     0.79581   0.95419   0.53821   0.00000  Uiso   1.00
Zn1277 Zn    0.50000   0.75000   0.55104   0.00000  Uiso   1.00
Zn1278 Zn    0.50000   0.75000   0.44896   0.00000  Uiso   1.00
Zn1279 Zn    0.75000   0.50000   0.55104   0.00000  Uiso   1.00
Zn1280 Zn    0.75000   0.50000   0.44896   0.00000  Uiso   1.00
C1281  C     0.05985   0.19031   0.83308   0.00000  Uiso   1.00
C1282  C     0.00508   0.21025   0.97688   0.00000  Uiso   1.00
C1283  C     0.49492   0.21025   0.68978   0.00000  Uiso   1.00
C1284  C     0.49608   0.29030   0.97667   0.00000  Uiso   1.00
C1285  C     0.25392   0.04030   0.69000   0.00000  Uiso   1.00
C1286  C     0.25508   0.46025   0.97688   0.00000  Uiso   1.00
C1287  C     0.24492   0.46025   0.68978   0.00000  Uiso   1.00
C1288  C     0.24608   0.04030   0.97667   0.00000  Uiso   1.00
C1289  C     0.37485   0.16064   0.80202   0.00000  Uiso   1.00
C1290  C     0.12352   0.34150   0.86634   0.00000  Uiso   1.00
C1291  C     0.09275   0.37832   0.80173   0.00000  Uiso   1.00
C1292  C     0.44036   0.31002   0.83346   0.00000  Uiso   1.00
C1293  C     0.40545   0.12406   0.86689   0.00000  Uiso   1.00
C1294  C     0.12515   0.16064   0.86466   0.00000  Uiso   1.00
C1295  C     0.37650   0.34153   0.80030   0.00000  Uiso   1.00
C1296  C     0.40723   0.37830   0.86496   0.00000  Uiso   1.00
C1297  C     0.09456   0.12406   0.79977   0.00000  Uiso   1.00
C1298  C     0.12484   0.41065   0.80203   0.00000  Uiso   1.00
C1299  C     0.37351   0.09152   0.86635   0.00000  Uiso   1.00
C1300  C     0.34276   0.12831   0.80172   0.00000  Uiso   1.00
C1301  C     0.15546   0.37404   0.86687   0.00000  Uiso   1.00
C1302  C     0.37515   0.41064   0.86466   0.00000  Uiso   1.00
C1303  C     0.44015   0.19031   0.83358   0.00000  Uiso   1.00
C1304  C     0.12650   0.09153   0.80030   0.00000  Uiso   1.00
C1305  C     0.15723   0.12831   0.86495   0.00000  Uiso   1.00
C1306  C     0.34457   0.37407   0.79977   0.00000  Uiso   1.00
C1307  C     0.09262   0.34353   0.83340   0.00000  Uiso   1.00
C1308  C     0.40634   0.15789   0.83422   0.00000  Uiso   1.00
C1309  C     0.40738   0.34353   0.83326   0.00000  Uiso   1.00
C1310  C     0.09366   0.15789   0.83244   0.00000  Uiso   1.00
C1311  C     0.34262   0.09353   0.83340   0.00000  Uiso   1.00
C1312  C     0.15634   0.40788   0.83422   0.00000  Uiso   1.00
C1313  C     0.15738   0.09353   0.83326   0.00000  Uiso   1.00
C1314  C     0.05964   0.31002   0.83321   0.00000  Uiso   1.00
C1315  C     0.34366   0.40789   0.83244   0.00000  Uiso   1.00
C1316  C     0.02144   0.33459   0.70971   0.00000  Uiso   1.00
C1317  C     0.48843   0.36281   0.73711   0.00000  Uiso   1.00
C1318  C     0.48999   0.41441   0.72749   0.00000  Uiso   1.00
C1319  C     0.03371   0.17116   0.96092   0.00000  Uiso   1.00
C1320  C     0.01029   0.13267   0.93614   0.00000  Uiso   1.00
C1321  C     0.03938   0.09089   0.92921   0.00000  Uiso   1.00
C1322  C     0.46629   0.17116   0.70575   0.00000  Uiso   1.00
C1323  C     0.48971   0.13267   0.73053   0.00000  Uiso   1.00
C1324  C     0.46062   0.09089   0.73746   0.00000  Uiso   1.00
C1325  C     0.30985   0.44031   0.83308   0.00000  Uiso   1.00
C1326  C     0.47857   0.33459   0.95696   0.00000  Uiso   1.00
C1327  C     0.01157   0.36281   0.92956   0.00000  Uiso   1.00
C1328  C     0.01004   0.41441   0.93919   0.00000  Uiso   1.00
C1329  C     0.27144   0.08459   0.70971   0.00000  Uiso   1.00
C1330  C     0.23843   0.11281   0.73711   0.00000  Uiso   1.00
C1331  C     0.23998   0.16441   0.72748   0.00000  Uiso   1.00
C1332  C     0.28371   0.42116   0.96092   0.00000  Uiso   1.00
C1333  C     0.26029   0.38267   0.93614   0.00000  Uiso   1.00
C1334  C     0.28938   0.34089   0.92921   0.00000  Uiso   1.00
C1335  C     0.21629   0.42116   0.70575   0.00000  Uiso   1.00
C1336  C     0.19036   0.06002   0.83346   0.00000  Uiso   1.00
C1337  C     0.23971   0.38267   0.73053   0.00000  Uiso   1.00
C1338  C     0.21061   0.34089   0.73747   0.00000  Uiso   1.00
C1339  C     0.22856   0.08459   0.95696   0.00000  Uiso   1.00
C1340  C     0.26156   0.11281   0.92956   0.00000  Uiso   1.00
C1341  C     0.26002   0.16441   0.93919   0.00000  Uiso   1.00
C1342  C     0.19015   0.44031   0.83358   0.00000  Uiso   1.00
C1343  C     0.30964   0.06002   0.83321   0.00000  Uiso   1.00
C1344  C     0.00393   0.29030   0.69000   0.00000  Uiso   1.00
H1345  H     0.37498   0.18779   0.77748   0.00000  Uiso   1.00
H1346  H     0.37316   0.06465   0.89118   0.00000  Uiso   1.00
H1347  H     0.31798   0.13114   0.77744   0.00000  Uiso   1.00
H1348  H     0.17961   0.37223   0.89211   0.00000  Uiso   1.00
H1349  H     0.37501   0.43777   0.88921   0.00000  Uiso   1.00
H1350  H     0.12685   0.06466   0.77548   0.00000  Uiso   1.00
H1351  H     0.18201   0.13113   0.88924   0.00000  Uiso   1.00
H1352  H     0.32043   0.37228   0.77451   0.00000  Uiso   1.00
H1353  H     0.02368   0.42727   0.72731   0.00000  Uiso   1.00
H1354  H     0.47486   0.42203   0.69539   0.00000  Uiso   1.00
H1355  H     0.47145   0.43316   0.75345   0.00000  Uiso   1.00
H1356  H     0.12318   0.31462   0.89115   0.00000  Uiso   1.00
H1357  H     0.45508   0.35061   0.73115   0.00000  Uiso   1.00
H1358  H     0.49576   0.35918   0.77254   0.00000  Uiso   1.00
H1359  H     0.05121   0.32698   0.72741   0.00000  Uiso   1.00
H1360  H     0.03476   0.35661   0.68303   0.00000  Uiso   1.00
H1361  H     0.06908   0.10065   0.91073   0.00000  Uiso   1.00
H1362  H     0.04836   0.07587   0.96153   0.00000  Uiso   1.00
H1363  H     0.02205   0.06435   0.90996   0.00000  Uiso   1.00
H1364  H     0.48132   0.12116   0.95472   0.00000  Uiso   1.00
H1365  H     0.00001   0.14488   0.90351   0.00000  Uiso   1.00
H1366  H     0.06147   0.18495   0.94209   0.00000  Uiso   1.00
H1367  H     0.06796   0.38116   0.77746   0.00000  Uiso   1.00
H1368  H     0.05004   0.15571   0.98966   0.00000  Uiso   1.00
H1369  H     0.43092   0.10065   0.75594   0.00000  Uiso   1.00
H1370  H     0.45164   0.07587   0.70514   0.00000  Uiso   1.00
H1371  H     0.47795   0.06435   0.75671   0.00000  Uiso   1.00
H1372  H     0.01868   0.12116   0.71194   0.00000  Uiso   1.00
H1373  H    -0.00000   0.14488   0.76316   0.00000  Uiso   1.00
H1374  H     0.43853   0.18495   0.72458   0.00000  Uiso   1.00
H1375  H     0.44996   0.15571   0.67700   0.00000  Uiso   1.00
H1376  H     0.47635   0.42727   0.93938   0.00000  Uiso   1.00
H1377  H     0.02518   0.42202   0.97127   0.00000  Uiso   1.00
H1378  H     0.42959   0.12226   0.89214   0.00000  Uiso   1.00
H1379  H     0.02856   0.43315   0.91321   0.00000  Uiso   1.00
H1380  H     0.04492   0.35060   0.93551   0.00000  Uiso   1.00
H1381  H     0.00424   0.35919   0.89413   0.00000  Uiso   1.00
H1382  H     0.44880   0.32697   0.93926   0.00000  Uiso   1.00
H1383  H     0.46525   0.35661   0.98364   0.00000  Uiso   1.00
H1384  H     0.27366   0.17727   0.72729   0.00000  Uiso   1.00
H1385  H     0.22484   0.17202   0.69539   0.00000  Uiso   1.00
H1386  H     0.22145   0.18316   0.75345   0.00000  Uiso   1.00
H1387  H     0.20508   0.10061   0.73115   0.00000  Uiso   1.00
H1388  H     0.24576   0.10919   0.77254   0.00000  Uiso   1.00
H1389  H     0.12502   0.18778   0.88920   0.00000  Uiso   1.00
H1390  H     0.30121   0.07697   0.72741   0.00000  Uiso   1.00
H1391  H     0.28476   0.10661   0.68303   0.00000  Uiso   1.00
H1392  H     0.31908   0.35064   0.91074   0.00000  Uiso   1.00
H1393  H     0.29835   0.32587   0.96154   0.00000  Uiso   1.00
H1394  H     0.27204   0.31435   0.90996   0.00000  Uiso   1.00
H1395  H     0.23132   0.37117   0.95472   0.00000  Uiso   1.00
H1396  H     0.25001   0.39488   0.90350   0.00000  Uiso   1.00
H1397  H     0.31147   0.43495   0.94209   0.00000  Uiso   1.00
H1398  H     0.30004   0.40571   0.98966   0.00000  Uiso   1.00
H1399  H     0.18091   0.35066   0.75595   0.00000  Uiso   1.00
H1400  H     0.37686   0.31467   0.77547   0.00000  Uiso   1.00
H1401  H     0.20162   0.32587   0.70515   0.00000  Uiso   1.00
H1402  H     0.22794   0.31436   0.75672   0.00000  Uiso   1.00
H1403  H     0.26867   0.37115   0.71194   0.00000  Uiso   1.00
H1404  H     0.25000   0.39488   0.76316   0.00000  Uiso   1.00
H1405  H     0.18853   0.43495   0.72458   0.00000  Uiso   1.00
H1406  H     0.19996   0.40571   0.67700   0.00000  Uiso   1.00
H1407  H     0.22633   0.17727   0.93939   0.00000  Uiso   1.00
H1408  H     0.27517   0.17202   0.97127   0.00000  Uiso   1.00
H1409  H     0.27854   0.18316   0.91321   0.00000  Uiso   1.00
H1410  H     0.29492   0.10061   0.93551   0.00000  Uiso   1.00
H1411  H     0.43201   0.38112   0.88924   0.00000  Uiso   1.00
H1412  H     0.25423   0.10919   0.89413   0.00000  Uiso   1.00
H1413  H     0.19879   0.07697   0.93926   0.00000  Uiso   1.00
H1414  H     0.21524   0.10661   0.98364   0.00000  Uiso   1.00
H1415  H     0.07042   0.12227   0.77451   0.00000  Uiso   1.00
H1416  H     0.12496   0.43780   0.77750   0.00000  Uiso   1.00
N1417  N     0.00000   0.25000   0.95240   0.00000  Uiso   1.00
N1418  N     0.00000   0.25000   0.71427   0.00000  Uiso   1.00
N1419  N     0.25000   0.00000   0.95240   0.00000  Uiso   1.00
N1420  N     0.25000   0.00000   0.71427   0.00000  Uiso   1.00
O1421  O     0.04581   0.20419   0.87154   0.00000  Uiso   1.00
O1422  O     0.20420   0.04581   0.79513   0.00000  Uiso   1.00
O1423  O     0.20420   0.04581   0.87154   0.00000  Uiso   1.00
O1424  O     0.29581   0.45419   0.79513   0.00000  Uiso   1.00
O1425  O     0.20420   0.45419   0.79513   0.00000  Uiso   1.00
O1426  O     0.29581   0.04581   0.87154   0.00000  Uiso   1.00
O1427  O     0.29581   0.04581   0.79513   0.00000  Uiso   1.00
O1428  O     0.20420   0.45419   0.87154   0.00000  Uiso   1.00
O1429  O     0.45420   0.29581   0.79513   0.00000  Uiso   1.00
O1430  O     0.45420   0.29581   0.87154   0.00000  Uiso   1.00
O1431  O     0.04581   0.20419   0.79513   0.00000  Uiso   1.00
O1432  O     0.45420   0.20419   0.79513   0.00000  Uiso   1.00
O1433  O     0.04581   0.29581   0.87154   0.00000  Uiso   1.00
O1434  O     0.04581   0.29581   0.79513   0.00000  Uiso   1.00
O1435  O     0.45420   0.20419   0.87154   0.00000  Uiso   1.00
O1436  O     0.29581   0.45419   0.87154   0.00000  Uiso   1.00
Zn1437 Zn    0.00000   0.25000   0.88437   0.00000  Uiso   1.00
Zn1438 Zn    0.00000   0.25000   0.78229   0.00000  Uiso   1.00
Zn1439 Zn    0.25000   0.00000   0.88437   0.00000  Uiso   1.00
Zn1440 Zn    0.25000   0.00000   0.78229   0.00000  Uiso   1.00
C1441  C     0.55985   0.19031   0.83308   0.00000  Uiso   1.00
C1442  C     0.50508   0.21025   0.97688   0.00000  Uiso   1.00
C1443  C     0.99492   0.21025   0.68978   0.00000  Uiso   1.00
C1444  C     0.99608   0.29030   0.97667   0.00000  Uiso   1.00
C1445  C     0.75392   0.04030   0.69000   0.00000  Uiso   1.00
C1446  C     0.75508   0.46025   0.97688   0.00000  Uiso   1.00
C1447  C     0.74492   0.46025   0.68978   0.00000  Uiso   1.00
C1448  C     0.74608   0.04030   0.97667   0.00000  Uiso   1.00
C1449  C     0.87485   0.16064   0.80202   0.00000  Uiso   1.00
C1450  C     0.62352   0.34150   0.86634   0.00000  Uiso   1.00
C1451  C     0.59275   0.37832   0.80173   0.00000  Uiso   1.00
C1452  C     0.94036   0.31002   0.83346   0.00000  Uiso   1.00
C1453  C     0.90545   0.12406   0.86689   0.00000  Uiso   1.00
C1454  C     0.62515   0.16064   0.86466   0.00000  Uiso   1.00
C1455  C     0.87650   0.34153   0.80030   0.00000  Uiso   1.00
C1456  C     0.90723   0.37830   0.86496   0.00000  Uiso   1.00
C1457  C     0.59456   0.12406   0.79977   0.00000  Uiso   1.00
C1458  C     0.62484   0.41065   0.80203   0.00000  Uiso   1.00
C1459  C     0.87351   0.09152   0.86635   0.00000  Uiso   1.00
C1460  C     0.84276   0.12831   0.80172   0.00000  Uiso   1.00
C1461  C     0.65546   0.37404   0.86687   0.00000  Uiso   1.00
C1462  C     0.87515   0.41064   0.86466   0.00000  Uiso   1.00
C1463  C     0.94015   0.19031   0.83358   0.00000  Uiso   1.00
C1464  C     0.62650   0.09153   0.80030   0.00000  Uiso   1.00
C1465  C     0.65723   0.12831   0.86495   0.00000  Uiso   1.00
C1466  C     0.84457   0.37407   0.79977   0.00000  Uiso   1.00
C1467  C     0.59262   0.34353   0.83340   0.00000  Uiso   1.00
C1468  C     0.90634   0.15789   0.83422   0.00000  Uiso   1.00
C1469  C     0.90738   0.34353   0.83326   0.00000  Uiso   1.00
C1470  C     0.59366   0.15789   0.83244   0.00000  Uiso   1.00
C1471  C     0.84262   0.09353   0.83340   0.00000  Uiso   1.00
C1472  C     0.65634   0.40788   0.83422   0.00000  Uiso   1.00
C1473  C     0.65738   0.09353   0.83326   0.00000  Uiso   1.00
C1474  C     0.55964   0.31002   0.83321   0.00000  Uiso   1.00
C1475  C     0.84366   0.40789   0.83244   0.00000  Uiso   1.00
C1476  C     0.52144   0.33459   0.70971   0.00000  Uiso   1.00
C1477  C     0.98843   0.36281   0.73711   0.00000  Uiso   1.00
C1478  C     0.98999   0.41441   0.72749   0.00000  Uiso   1.00
C1479  C     0.53371   0.17116   0.96092   0.00000  Uiso   1.00
C1480  C     0.51029   0.13267   0.93614   0.00000  Uiso   1.00
C1481  C     0.53938   0.09089   0.92921   0.00000  Uiso   1.00
C1482  C     0.96629   0.17116   0.70575   0.00000  Uiso   1.00
C1483  C     0.98971   0.13267   0.73053   0.00000  Uiso   1.00
C1484  C     0.96062   0.09089   0.73746   0.00000  Uiso   1.00
C1485  C     0.80985   0.44031   0.83308   0.00000  Uiso   1.00
C1486  C     0.97857   0.33459   0.95696   0.00000  Uiso   1.00
C1487  C     0.51157   0.36281   0.92956   0.00000  Uiso   1.00
C1488  C     0.51004   0.41441   0.93919   0.00000  Uiso   1.00
C1489  C     0.77144   0.08459   0.70971   0.00000  Uiso   1.00
C1490  C     0.73843   0.11281   0.73711   0.00000  Uiso   1.00
C1491  C     0.73998   0.16441   0.72748   0.00000  Uiso   1.00
C1492  C     0.78371   0.42116   0.96092   0.00000  Uiso   1.00
C1493  C     0.76029   0.38267   0.93614   0.00000  Uiso   1.00
C1494  C     0.78938   0.34089   0.92921   0.00000  Uiso   1.00
C1495  C     0.71629   0.42116   0.70575   0.00000  Uiso   1.00
C1496  C     0.69036   0.06002   0.83346   0.00000  Uiso   1.00
C1497  C     0.73971   0.38267   0.73053   0.00000  Uiso   1.00
C1498  C     0.71061   0.34089   0.73747   0.00000  Uiso   1.00
C1499  C     0.72856   0.08459   0.95696   0.00000  Uiso   1.00
C1500  C     0.76156   0.11281   0.92956   0.00000  Uiso   1.00
C1501  C     0.76002   0.16441   0.93919   0.00000  Uiso   1.00
C1502  C     0.69015   0.44031   0.83358   0.00000  Uiso   1.00
C1503  C     0.80964   0.06002   0.83321   0.00000  Uiso   1.00
C1504  C     0.50393   0.29030   0.69000   0.00000  Uiso   1.00
H1505  H     0.87498   0.18779   0.77748   0.00000  Uiso   1.00
H1506  H     0.87316   0.06465   0.89118   0.00000  Uiso   1.00
H1507  H     0.81798   0.13114   0.77744   0.00000  Uiso   1.00
H1508  H     0.67961   0.37223   0.89211   0.00000  Uiso   1.00
H1509  H     0.87501   0.43777   0.88921   0.00000  Uiso   1.00
H1510  H     0.62685   0.06466   0.77548   0.00000  Uiso   1.00
H1511  H     0.68201   0.13113   0.88924   0.00000  Uiso   1.00
H1512  H     0.82043   0.37228   0.77451   0.00000  Uiso   1.00
H1513  H     0.52368   0.42727   0.72731   0.00000  Uiso   1.00
H1514  H     0.97486   0.42203   0.69539   0.00000  Uiso   1.00
H1515  H     0.97145   0.43316   0.75345   0.00000  Uiso   1.00
H1516  H     0.62318   0.31462   0.89115   0.00000  Uiso   1.00
H1517  H     0.95508   0.35061   0.73115   0.00000  Uiso   1.00
H1518  H     0.99576   0.35918   0.77254   0.00000  Uiso   1.00
H1519  H     0.55121   0.32698   0.72741   0.00000  Uiso   1.00
H1520  H     0.53476   0.35661   0.68303   0.00000  Uiso   1.00
H1521  H     0.56908   0.10065   0.91073   0.00000  Uiso   1.00
H1522  H     0.54836   0.07587   0.96153   0.00000  Uiso   1.00
H1523  H     0.52205   0.06435   0.90996   0.00000  Uiso   1.00
H1524  H     0.98132   0.12116   0.95472   0.00000  Uiso   1.00
H1525  H     0.50001   0.14488   0.90351   0.00000  Uiso   1.00
H1526  H     0.56147   0.18495   0.94209   0.00000  Uiso   1.00
H1527  H     0.56796   0.38116   0.77746   0.00000  Uiso   1.00
H1528  H     0.55004   0.15571   0.98966   0.00000  Uiso   1.00
H1529  H     0.93092   0.10065   0.75594   0.00000  Uiso   1.00
H1530  H     0.95164   0.07587   0.70514   0.00000  Uiso   1.00
H1531  H     0.97795   0.06435   0.75671   0.00000  Uiso   1.00
H1532  H     0.51868   0.12116   0.71194   0.00000  Uiso   1.00
H1533  H     0.50000   0.14488   0.76316   0.00000  Uiso   1.00
H1534  H     0.93853   0.18495   0.72458   0.00000  Uiso   1.00
H1535  H     0.94996   0.15571   0.67700   0.00000  Uiso   1.00
H1536  H     0.97635   0.42727   0.93938   0.00000  Uiso   1.00
H1537  H     0.52518   0.42202   0.97127   0.00000  Uiso   1.00
H1538  H     0.92959   0.12226   0.89214   0.00000  Uiso   1.00
H1539  H     0.52856   0.43315   0.91321   0.00000  Uiso   1.00
H1540  H     0.54492   0.35060   0.93551   0.00000  Uiso   1.00
H1541  H     0.50424   0.35919   0.89413   0.00000  Uiso   1.00
H1542  H     0.94880   0.32697   0.93926   0.00000  Uiso   1.00
H1543  H     0.96525   0.35661   0.98364   0.00000  Uiso   1.00
H1544  H     0.77366   0.17727   0.72729   0.00000  Uiso   1.00
H1545  H     0.72484   0.17202   0.69539   0.00000  Uiso   1.00
H1546  H     0.72145   0.18316   0.75345   0.00000  Uiso   1.00
H1547  H     0.70508   0.10061   0.73115   0.00000  Uiso   1.00
H1548  H     0.74576   0.10919   0.77254   0.00000  Uiso   1.00
H1549  H     0.62502   0.18778   0.88920   0.00000  Uiso   1.00
H1550  H     0.80121   0.07697   0.72741   0.00000  Uiso   1.00
H1551  H     0.78476   0.10661   0.68303   0.00000  Uiso   1.00
H1552  H     0.81908   0.35064   0.91074   0.00000  Uiso   1.00
H1553  H     0.79835   0.32587   0.96154   0.00000  Uiso   1.00
H1554  H     0.77204   0.31435   0.90996   0.00000  Uiso   1.00
H1555  H     0.73132   0.37117   0.95472   0.00000  Uiso   1.00
H1556  H     0.75001   0.39488   0.90350   0.00000  Uiso   1.00
H1557  H     0.81147   0.43495   0.94209   0.00000  Uiso   1.00
H1558  H     0.80004   0.40571   0.98966   0.00000  Uiso   1.00
H1559  H     0.68091   0.35066   0.75595   0.00000  Uiso   1.00
H1560  H     0.87686   0.31467   0.77547   0.00000  Uiso   1.00
H1561  H     0.70162   0.32587   0.70515   0.00000  Uiso   1.00
H1562  H     0.72794   0.31436   0.75672   0.00000  Uiso   1.00
H1563  H     0.76867   0.37115   0.71194   0.00000  Uiso   1.00
H1564  H     0.75000   0.39488   0.76316   0.00000  Uiso   1.00
H1565  H     0.68853   0.43495   0.72458   0.00000  Uiso   1.00
H1566  H     0.69996   0.40571   0.67700   0.00000  Uiso   1.00
H1567  H     0.72633   0.17727   0.93939   0.00000  Uiso   1.00
H1568  H     0.77517   0.17202   0.97127   0.00000  Uiso   1.00
H1569  H     0.77854   0.18316   0.91321   0.00000  Uiso   1.00
H1570  H     0.79492   0.10061   0.93551   0.00000  Uiso   1.00
H1571  H     0.93201   0.38112   0.88924   0.00000  Uiso   1.00
H1572  H     0.75423   0.10919   0.89413   0.00000  Uiso   1.00
H1573  H     0.69879   0.07697   0.93926   0.00000  Uiso   1.00
H1574  H     0.71524   0.10661   0.98364   0.00000  Uiso   1.00
H1575  H     0.57042   0.12227   0.77451   0.00000  Uiso   1.00
H1576  H     0.62496   0.43780   0.77750   0.00000  Uiso   1.00
N1577  N     0.50000   0.25000   0.95240   0.00000  Uiso   1.00
N1578  N     0.50000   0.25000   0.71427   0.00000  Uiso   1.00
N1579  N     0.75000   0.00000   0.95240   0.00000  Uiso   1.00
N1580  N     0.75000   0.00000   0.71427   0.00000  Uiso   1.00
O1581  O     0.54581   0.20419   0.87154   0.00000  Uiso   1.00
O1582  O     0.70420   0.04581   0.79513   0.00000  Uiso   1.00
O1583  O     0.70420   0.04581   0.87154   0.00000  Uiso   1.00
O1584  O     0.79581   0.45419   0.79513   0.00000  Uiso   1.00
O1585  O     0.70420   0.45419   0.79513   0.00000  Uiso   1.00
O1586  O     0.79581   0.04581   0.87154   0.00000  Uiso   1.00
O1587  O     0.79581   0.04581   0.79513   0.00000  Uiso   1.00
O1588  O     0.70420   0.45419   0.87154   0.00000  Uiso   1.00
O1589  O     0.95420   0.29581   0.79513   0.00000  Uiso   1.00
O1590  O     0.95420   0.29581   0.87154   0.00000  Uiso   1.00
O1591  O     0.54581   0.20419   0.79513   0.00000  Uiso   1.00
O1592  O     0.95420   0.20419   0.79513   0.00000  Uiso   1.00
O1593  O     0.54581   0.29581   0.87154   0.00000  Uiso   1.00
O1594  O     0.54581   0.29581   0.79513   0.00000  Uiso   1.00
O1595  O     0.95420   0.20419   0.87154   0.00000  Uiso   1.00
O1596  O     0.79581   0.45419   0.87154   0.00000  Uiso   1.00
Zn1597 Zn    0.50000   0.25000   0.88437   0.00000  Uiso   1.00
Zn1598 Zn    0.50000   0.25000   0.78229   0.00000  Uiso   1.00
Zn1599 Zn    0.75000   0.00000   0.88437   0.00000  Uiso   1.00
Zn1600 Zn    0.75000   0.00000   0.78229   0.00000  Uiso   1.00
C1601  C     0.05985   0.69031   0.83308   0.00000  Uiso   1.00
C1602  C     0.00508   0.71025   0.97688   0.00000  Uiso   1.00
C1603  C     0.49492   0.71025   0.68978   0.00000  Uiso   1.00
C1604  C     0.49608   0.79030   0.97667   0.00000  Uiso   1.00
C1605  C     0.25392   0.54030   0.69000   0.00000  Uiso   1.00
C1606  C     0.25508   0.96025   0.97688   0.00000  Uiso   1.00
C1607  C     0.24492   0.96025   0.68978   0.00000  Uiso   1.00
C1608  C     0.24608   0.54030   0.97667   0.00000  Uiso   1.00
C1609  C     0.37485   0.66064   0.80202   0.00000  Uiso   1.00
C1610  C     0.12352   0.84150   0.86634   0.00000  Uiso   1.00
C1611  C     0.09275   0.87832   0.80173   0.00000  Uiso   1.00
C1612  C     0.44036   0.81002   0.83346   0.00000  Uiso   1.00
C1613  C     0.40545   0.62406   0.86689   0.00000  Uiso   1.00
C1614  C     0.12515   0.66064   0.86466   0.00000  Uiso   1.00
C1615  C     0.37650   0.84153   0.80030   0.00000  Uiso   1.00
C1616  C     0.40723   0.87830   0.86496   0.00000  Uiso   1.00
C1617  C     0.09456   0.62406   0.79977   0.00000  Uiso   1.00
C1618  C     0.12484   0.91065   0.80203   0.00000  Uiso   1.00
C1619  C     0.37351   0.59152   0.86635   0.00000  Uiso   1.00
C1620  C     0.34276   0.62831   0.80172   0.00000  Uiso   1.00
C1621  C     0.15546   0.87404   0.86687   0.00000  Uiso   1.00
C1622  C     0.37515   0.91064   0.86466   0.00000  Uiso   1.00
C1623  C     0.44015   0.69031   0.83358   0.00000  Uiso   1.00
C1624  C     0.12650   0.59153   0.80030   0.00000  Uiso   1.00
C1625  C     0.15723   0.62831   0.86495   0.00000  Uiso   1.00
C1626  C     0.34457   0.87407   0.79977   0.00000  Uiso   1.00
C1627  C     0.09262   0.84353   0.83340   0.00000  Uiso   1.00
C1628  C     0.40634   0.65789   0.83422   0.00000  Uiso   1.00
C1629  C     0.40738   0.84353   0.83326   0.00000  Uiso   1.00
C1630  C     0.09366   0.65789   0.83244   0.00000  Uiso   1.00
C1631  C     0.34262   0.59353   0.83340   0.00000  Uiso   1.00
C1632  C     0.15634   0.90788   0.83422   0.00000  Uiso   1.00
C1633  C     0.15738   0.59353   0.83326   0.00000  Uiso   1.00
C1634  C     0.05964   0.81002   0.83321   0.00000  Uiso   1.00
C1635  C     0.34366   0.90789   0.83244   0.00000  Uiso   1.00
C1636  C     0.02144   0.83459   0.70971   0.00000  Uiso   1.00
C1637  C     0.48843   0.86281   0.73711   0.00000  Uiso   1.00
C1638  C     0.48999   0.91441   0.72749   0.00000  Uiso   1.00
C1639  C     0.03371   0.67116   0.96092   0.00000  Uiso   1.00
C1640  C     0.01029   0.63267   0.93614   0.00000  Uiso   1.00
C1641  C     0.03938   0.59089   0.92921   0.00000  Uiso   1.00
C1642  C     0.46629   0.67116   0.70575   0.00000  Uiso   1.00
C1643  C     0.48971   0.63267   0.73053   0.00000  Uiso   1.00
C1644  C     0.46062   0.59089   0.73746   0.00000  Uiso   1.00
C1645  C     0.30985   0.94031   0.83308   0.00000  Uiso   1.00
C1646  C     0.47857   0.83459   0.95696   0.00000  Uiso   1.00
C1647  C     0.01157   0.86281   0.92956   0.00000  Uiso   1.00
C1648  C     0.01004   0.91441   0.93919   0.00000  Uiso   1.00
C1649  C     0.27144   0.58459   0.70971   0.00000  Uiso   1.00
C1650  C     0.23843   0.61281   0.73711   0.00000  Uiso   1.00
C1651  C     0.23998   0.66441   0.72748   0.00000  Uiso   1.00
C1652  C     0.28371   0.92116   0.96092   0.00000  Uiso   1.00
C1653  C     0.26029   0.88267   0.93614   0.00000  Uiso   1.00
C1654  C     0.28938   0.84089   0.92921   0.00000  Uiso   1.00
C1655  C     0.21629   0.92116   0.70575   0.00000  Uiso   1.00
C1656  C     0.19036   0.56002   0.83346   0.00000  Uiso   1.00
C1657  C     0.23971   0.88267   0.73053   0.00000  Uiso   1.00
C1658  C     0.21061   0.84089   0.73747   0.00000  Uiso   1.00
C1659  C     0.22856   0.58459   0.95696   0.00000  Uiso   1.00
C1660  C     0.26156   0.61281   0.92956   0.00000  Uiso   1.00
C1661  C     0.26002   0.66441   0.93919   0.00000  Uiso   1.00
C1662  C     0.19015   0.94031   0.83358   0.00000  Uiso   1.00
C1663  C     0.30964   0.56002   0.83321   0.00000  Uiso   1.00
C1664  C     0.00393   0.79030   0.69000   0.00000  Uiso   1.00
H1665  H     0.37498   0.68779   0.77748   0.00000  Uiso   1.00
H1666  H     0.37316   0.56465   0.89118   0.00000  Uiso   1.00
H1667  H     0.31798   0.63114   0.77744   0.00000  Uiso   1.00
H1668  H     0.17961   0.87223   0.89211   0.00000  Uiso   1.00
H1669  H     0.37501   0.93777   0.88921   0.00000  Uiso   1.00
H1670  H     0.12685   0.56466   0.77548   0.00000  Uiso   1.00
H1671  H     0.18201   0.63113   0.88924   0.00000  Uiso   1.00
H1672  H     0.32043   0.87228   0.77451   0.00000  Uiso   1.00
H1673  H     0.02368   0.92727   0.72731   0.00000  Uiso   1.00
H1674  H     0.47486   0.92203   0.69539   0.00000  Uiso   1.00
H1675  H     0.47145   0.93316   0.75345   0.00000  Uiso   1.00
H1676  H     0.12318   0.81462   0.89115   0.00000  Uiso   1.00
H1677  H     0.45508   0.85061   0.73115   0.00000  Uiso   1.00
H1678  H     0.49576   0.85918   0.77254   0.00000  Uiso   1.00
H1679  H     0.05121   0.82698   0.72741   0.00000  Uiso   1.00
H1680  H     0.03476   0.85661   0.68303   0.00000  Uiso   1.00
H1681  H     0.06908   0.60065   0.91073   0.00000  Uiso   1.00
H1682  H     0.04836   0.57587   0.96153   0.00000  Uiso   1.00
H1683  H     0.02205   0.56435   0.90996   0.00000  Uiso   1.00
H1684  H     0.48132   0.62116   0.95472   0.00000  Uiso   1.00
H1685  H     0.00001   0.64488   0.90351   0.00000  Uiso   1.00
H1686  H     0.06147   0.68495   0.94209   0.00000  Uiso   1.00
H1687  H     0.06796   0.88116   0.77746   0.00000  Uiso   1.00
H1688  H     0.05004   0.65571   0.98966   0.00000  Uiso   1.00
H1689  H     0.43092   0.60065   0.75594   0.00000  Uiso   1.00
H1690  H     0.45164   0.57587   0.70514   0.00000  Uiso   1.00
H1691  H     0.47795   0.56435   0.75671   0.00000  Uiso   1.00
H1692  H     0.01868   0.62116   0.71194   0.00000  Uiso   1.00
H1693  H    -0.00000   0.64488   0.76316   0.00000  Uiso   1.00
H1694  H     0.43853   0.68495   0.72458   0.00000  Uiso   1.00
H1695  H     0.44996   0.65571   0.67700   0.00000  Uiso   1.00
H1696  H     0.47635   0.92727   0.93938   0.00000  Uiso   1.00
H1697  H     0.02518   0.92202   0.97127   0.00000  Uiso   1.00
H1698  H     0.42959   0.62226   0.89214   0.00000  Uiso   1.00
H1699  H     0.02856   0.93315   0.91321   0.00000  Uiso   1.00
H1700  H     0.04492   0.85060   0.93551   0.00000  Uiso   1.00
H1701  H     0.00424   0.85919   0.89413   0.00000  Uiso   1.00
H1702  H     0.44880   0.82697   0.93926   0.00000  Uiso   1.00
H1703  H     0.46525   0.85661   0.98364   0.00000  Uiso   1.00
H1704  H     0.27366   0.67727   0.72729   0.00000  Uiso   1.00
H1705  H     0.22484   0.67202   0.69539   0.00000  Uiso   1.00
H1706  H     0.22145   0.68316   0.75345   0.00000  Uiso   1.00
H1707  H     0.20508   0.60061   0.73115   0.00000  Uiso   1.00
H1708  H     0.24576   0.60919   0.77254   0.00000  Uiso   1.00
H1709  H     0.12502   0.68778   0.88920   0.00000  Uiso   1.00
H1710  H     0.30121   0.57697   0.72741   0.00000  Uiso   1.00
H1711  H     0.28476   0.60661   0.68303   0.00000  Uiso   1.00
H1712  H     0.31908   0.85064   0.91074   0.00000  Uiso   1.00
H1713  H     0.29835   0.82587   0.96154   0.00000  Uiso   1.00
H1714  H     0.27204   0.81435   0.90996   0.00000  Uiso   1.00
H1715  H     0.23132   0.87117   0.95472   0.00000  Uiso   1.00
H1716  H     0.25001   0.89488   0.90350   0.00000  Uiso   1.00
H1717  H     0.31147   0.93495   0.94209   0.00000  Uiso   1.00
H1718  H     0.30004   0.90571   0.98966   0.00000  Uiso   1.00
H1719  H     0.18091   0.85066   0.75595   0.00000  Uiso   1.00
H1720  H     0.37686   0.81467   0.77547   0.00000  Uiso   1.00
H1721  H     0.20162   0.82587   0.70515   0.00000  Uiso   1.00
H1722  H     0.22794   0.81436   0.75672   0.00000  Uiso   1.00
H1723  H     0.26867   0.87115   0.71194   0.00000  Uiso   1.00
H1724  H     0.25000   0.89488   0.76316   0.00000  Uiso   1.00
H1725  H     0.18853   0.93495   0.72458   0.00000  Uiso   1.00
H1726  H     0.19996   0.90571   0.67700   0.00000  Uiso   1.00
H1727  H     0.22633   0.67727   0.93939   0.00000  Uiso   1.00
H1728  H     0.27517   0.67202   0.97127   0.00000  Uiso   1.00
H1729  H     0.27854   0.68316   0.91321   0.00000  Uiso   1.00
H1730  H     0.29492   0.60061   0.93551   0.00000  Uiso   1.00
H1731  H     0.43201   0.88112   0.88924   0.00000  Uiso   1.00
H1732  H     0.25423   0.60919   0.89413   0.00000  Uiso   1.00
H1733  H     0.19879   0.57697   0.93926   0.00000  Uiso   1.00
H1734  H     0.21524   0.60661   0.98364   0.00000  Uiso   1.00
H1735  H     0.07042   0.62227   0.77451   0.00000  Uiso   1.00
H1736  H     0.12496   0.93780   0.77750   0.00000  Uiso   1.00
N1737  N     0.00000   0.75000   0.95240   0.00000  Uiso   1.00
N1738  N     0.00000   0.75000   0.71427   0.00000  Uiso   1.00
N1739  N     0.25000   0.50000   0.95240   0.00000  Uiso   1.00
N1740  N     0.25000   0.50000   0.71427   0.00000  Uiso   1.00
O1741  O     0.04581   0.70419   0.87154   0.00000  Uiso   1.00
O1742  O     0.20420   0.54581   0.79513   0.00000  Uiso   1.00
O1743  O     0.20420   0.54581   0.87154   0.00000  Uiso   1.00
O1744  O     0.29581   0.95419   0.79513   0.00000  Uiso   1.00
O1745  O     0.20420   0.95419   0.79513   0.00000  Uiso   1.00
O1746  O     0.29581   0.54581   0.87154   0.00000  Uiso   1.00
O1747  O     0.29581   0.54581   0.79513   0.00000  Uiso   1.00
O1748  O     0.20420   0.95419   0.87154   0.00000  Uiso   1.00
O1749  O     0.45420   0.79581   0.79513   0.00000  Uiso   1.00
O1750  O     0.45420   0.79581   0.87154   0.00000  Uiso   1.00
O1751  O     0.04581   0.70419   0.79513   0.00000  Uiso   1.00
O1752  O     0.45420   0.70419   0.79513   0.00000  Uiso   1.00
O1753  O     0.04581   0.79581   0.87154   0.00000  Uiso   1.00
O1754  O     0.04581   0.79581   0.79513   0.00000  Uiso   1.00
O1755  O     0.45420   0.70419   0.87154   0.00000  Uiso   1.00
O1756  O     0.29581   0.95419   0.87154   0.00000  Uiso   1.00
Zn1757 Zn    0.00000   0.75000   0.88437   0.00000  Uiso   1.00
Zn1758 Zn    0.00000   0.75000   0.78229   0.00000  Uiso   1.00
Zn1759 Zn    0.25000   0.50000   0.88437   0.00000  Uiso   1.00
Zn1760 Zn    0.25000   0.50000   0.78229   0.00000  Uiso   1.00
C1761  C     0.55985   0.69031   0.83308   0.00000  Uiso   1.00
C1762  C     0.50508   0.71025   0.97688   0.00000  Uiso   1.00
C1763  C     0.99492   0.71025   0.68978   0.00000  Uiso   1.00
C1764  C     0.99608   0.79030   0.97667   0.00000  Uiso   1.00
C1765  C     0.75392   0.54030   0.69000   0.00000  Uiso   1.00
C1766  C     0.75508   0.96025   0.97688   0.00000  Uiso   1.00
C1767  C     0.74492   0.96025   0.68978   0.00000  Uiso   1.00
C1768  C     0.74608   0.54030   0.97667   0.00000  Uiso   1.00
C1769  C     0.87485   0.66064   0.80202   0.00000  Uiso   1.00
C1770  C     0.62352   0.84150   0.86634   0.00000  Uiso   1.00
C1771  C     0.59275   0.87832   0.80173   0.00000  Uiso   1.00
C1772  C     0.94036   0.81002   0.83346   0.00000  Uiso   1.00
C1773  C     0.90545   0.62406   0.86689   0.00000  Uiso   1.00
C1774  C     0.62515   0.66064   0.86466   0.00000  Uiso   1.00
C1775  C     0.87650   0.84153   0.80030   0.00000  Uiso   1.00
C1776  C     0.90723   0.87830   0.86496   0.00000  Uiso   1.00
C1777  C     0.59456   0.62406   0.79977   0.00000  Uiso   1.00
C1778  C     0.62484   0.91065   0.80203   0.00000  Uiso   1.00
C1779  C     0.87351   0.59152   0.86635   0.00000  Uiso   1.00
C1780  C     0.84276   0.62831   0.80172   0.00000  Uiso   1.00
C1781  C     0.65546   0.87404   0.86687   0.00000  Uiso   1.00
C1782  C     0.87515   0.91064   0.86466   0.00000  Uiso   1.00
C1783  C     0.94015   0.69031   0.83358   0.00000  Uiso   1.00
C1784  C     0.62650   0.59153   0.80030   0.00000  Uiso   1.00
C1785  C     0.65723   0.62831   0.86495   0.00000  Uiso   1.00
C1786  C     0.84457   0.87407   0.79977   0.00000  Uiso   1.00
C1787  C     0.59262   0.84353   0.83340   0.00000  Uiso   1.00
C1788  C     0.90634   0.65789   0.83422   0.00000  Uiso   1.00
C1789  C     0.90738   0.84353   0.83326   0.00000  Uiso   1.00
C1790  C     0.59366   0.65789   0.83244   0.00000  Uiso   1.00
C1791  C     0.84262   0.59353   0.83340   0.00000  Uiso   1.00
C1792  C     0.65634   0.90788   0.83422   0.00000  Uiso   1.00
C1793  C     0.65738   0.59353   0.83326   0.00000  Uiso   1.00
C1794  C     0.55964   0.81002   0.83321   0.00000  Uiso   1.00
C1795  C     0.84366   0.90789   0.83244   0.00000  Uiso   1.00
C1796  C     0.52144   0.83459   0.70971   0.00000  Uiso   1.00
C1797  C     0.98843   0.86281   0.73711   0.00000  Uiso   1.00
C1798  C     0.98999   0.91441   0.72749   0.00000  Uiso   1.00
C1799  C     0.53371   0.67116   0.96092   0.00000  Uiso   1.00
C1800  C     0.51029   0.63267   0.93614   0.00000  Uiso   1.00
C1801  C     0.53938   0.59089   0.92921   0.00000  Uiso   1.00
C1802  C     0.96629   0.67116   0.70575   0.00000  Uiso   1.00
C1803  C     0.98971   0.63267   0.73053   0.00000  Uiso   1.00
C1804  C     0.96062   0.59089   0.73746   0.00000  Uiso   1.00
C1805  C     0.80985   0.94031   0.83308   0.00000  Uiso   1.00
C1806  C     0.97857   0.83459   0.95696   0.00000  Uiso   1.00
C1807  C     0.51157   0.86281   0.92956   0.00000  Uiso   1.00
C1808  C     0.51004   0.91441   0.93919   0.00000  Uiso   1.00
C1809  C     0.77144   0.58459   0.70971   0.00000  Uiso   1.00
C1810  C     0.73843   0.61281   0.73711   0.00000  Uiso   1.00
C1811  C     0.73998   0.66441   0.72748   0.00000  Uiso   1.00
C1812  C     0.78371   0.92116   0.96092   0.00000  Uiso   1.00
C1813  C     0.76029   0.88267   0.93614   0.00000  Uiso   1.00
C1814  C     0.78938   0.84089   0.92921   0.00000  Uiso   1.00
C1815  C     0.71629   0.92116   0.70575   0.00000  Uiso   1.00
C1816  C     0.69036   0.56002   0.83346   0.00000  Uiso   1.00
C1817  C     0.73971   0.88267   0.73053   0.00000  Uiso   1.00
C1818  C     0.71061   0.84089   0.73747   0.00000  Uiso   1.00
C1819  C     0.72856   0.58459   0.95696   0.00000  Uiso   1.00
C1820  C     0.76156   0.61281   0.92956   0.00000  Uiso   1.00
C1821  C     0.76002   0.66441   0.93919   0.00000  Uiso   1.00
C1822  C     0.69015   0.94031   0.83358   0.00000  Uiso   1.00
C1823  C     0.80964   0.56002   0.83321   0.00000  Uiso   1.00
C1824  C     0.50393   0.79030   0.69000   0.00000  Uiso   1.00
H1825  H     0.87498   0.68779   0.77748   0.00000  Uiso   1.00
H1826  H     0.87316   0.56465   0.89118   0.00000  Uiso   1.00
H1827  H     0.81798   0.63114   0.77744   0.00000  Uiso   1.00
H1828  H     0.67961   0.87223   0.89211   0.00000  Uiso   1.00
H1829  H     0.87501   0.93777   0.88921   0.00000  Uiso   1.00
H1830  H     0.62685   0.56466   0.77548   0.00000  Uiso   1.00
H1831  H     0.68201   0.63113   0.88924   0.00000  Uiso   1.00
H1832  H     0.82043   0.87228   0.77451   0.00000  Uiso   1.00
H1833  H     0.52368   0.92727   0.72731   0.00000  Uiso   1.00
H1834  H     0.97486   0.92203   0.69539   0.00000  Uiso   1.00
H1835  H     0.97145   0.93316   0.75345   0.00000  Uiso   1.00
H1836  H     0.62318   0.81462   0.89115   0.00000  Uiso   1.00
H1837  H     0.95508   0.85061   0.73115   0.00000  Uiso   1.00
H1838  H     0.99576   0.85918   0.77254   0.00000  Uiso   1.00
H1839  H     0.55121   0.82698   0.72741   0.00000  Uiso   1.00
H1840  H     0.53476   0.85661   0.68303   0.00000  Uiso   1.00
H1841  H     0.56908   0.60065   0.91073   0.00000  Uiso   1.00
H1842  H     0.54836   0.57587   0.96153   0.00000  Uiso   1.00
H1843  H     0.52205   0.56435   0.90996   0.00000  Uiso   1.00
H1844  H     0.98132   0.62116   0.95472   0.00000  Uiso   1.00
H1845  H     0.50001   0.64488   0.90351   0.00000  Uiso   1.00
H1846  H     0.56147   0.68495   0.94209   0.00000  Uiso   1.00
H1847  H     0.56796   0.88116   0.77746   0.00000  Uiso   1.00
H1848  H     0.55004   0.65571   0.98966   0.00000  Uiso   1.00
H1849  H     0.93092   0.60065   0.75594   0.00000  Uiso   1.00
H1850  H     0.95164   0.57587   0.70514   0.00000  Uiso   1.00
H1851  H     0.97795   0.56435   0.75671   0.00000  Uiso   1.00
H1852  H     0.51868   0.62116   0.71194   0.00000  Uiso   1.00
H1853  H     0.50000   0.64488   0.76316   0.00000  Uiso   1.00
H1854  H     0.93853   0.68495   0.72458   0.00000  Uiso   1.00
H1855  H     0.94996   0.65571   0.67700   0.00000  Uiso   1.00
H1856  H     0.97635   0.92727   0.93938   0.00000  Uiso   1.00
H1857  H     0.52518   0.92202   0.97127   0.00000  Uiso   1.00
H1858  H     0.92959   0.62226   0.89214   0.00000  Uiso   1.00
H1859  H     0.52856   0.93315   0.91321   0.00000  Uiso   1.00
H1860  H     0.54492   0.85060   0.93551   0.00000  Uiso   1.00
H1861  H     0.50424   0.85919   0.89413   0.00000  Uiso   1.00
H1862  H     0.94880   0.82697   0.93926   0.00000  Uiso   1.00
H1863  H     0.96525   0.85661   0.98364   0.00000  Uiso   1.00
H1864  H     0.77366   0.67727   0.72729   0.00000  Uiso   1.00
H1865  H     0.72484   0.67202   0.69539   0.00000  Uiso   1.00
H1866  H     0.72145   0.68316   0.75345   0.00000  Uiso   1.00
H1867  H     0.70508   0.60061   0.73115   0.00000  Uiso   1.00
H1868  H     0.74576   0.60919   0.77254   0.00000  Uiso   1.00
H1869  H     0.62502   0.68778   0.88920   0.00000  Uiso   1.00
H1870  H     0.80121   0.57697   0.72741   0.00000  Uiso   1.00
H1871  H     0.78476   0.60661   0.68303   0.00000  Uiso   1.00
H1872  H     0.81908   0.85064   0.91074   0.00000  Uiso   1.00
H1873  H     0.79835   0.82587   0.96154   0.00000  Uiso   1.00
H1874  H     0.77204   0.81435   0.90996   0.00000  Uiso   1.00
H1875  H     0.73132   0.87117   0.95472   0.00000  Uiso   1.00
H1876  H     0.75001   0.89488   0.90350   0.00000  Uiso   1.00
H1877  H     0.81147   0.93495   0.94209   0.00000  Uiso   1.00
H1878  H     0.80004   0.90571   0.98966   0.00000  Uiso   1.00
H1879  H     0.68091   0.85066   0.75595   0.00000  Uiso   1.00
H1880  H     0.87686   0.81467   0.77547   0.00000  Uiso   1.00
H1881  H     0.70162   0.82587   0.70515   0.00000  Uiso   1.00
H1882  H     0.72794   0.81436   0.75672   0.00000  Uiso   1.00
H1883  H     0.76867   0.87115   0.71194   0.00000  Uiso   1.00
H1884  H     0.75000   0.89488   0.76316   0.00000  Uiso   1.00
H1885  H     0.68853   0.93495   0.72458   0.00000  Uiso   1.00
H1886  H     0.69996   0.90571   0.67700   0.00000  Uiso   1.00
H1887  H     0.72633   0.67727   0.93939   0.00000  Uiso   1.00
H1888  H     0.77517   0.67202   0.97127   0.00000  Uiso   1.00
H1889  H     0.77854   0.68316   0.91321   0.00000  Uiso   1.00
H1890  H     0.79492   0.60061   0.93551   0.00000  Uiso   1.00
H1891  H     0.93201   0.88112   0.88924   0.00000  Uiso   1.00
H1892  H     0.75423   0.60919   0.89413   0.00000  Uiso   1.00
H1893  H     0.69879   0.57697   0.93926   0.00000  Uiso   1.00
H1894  H     0.71524   0.60661   0.98364   0.00000  Uiso   1.00
H1895  H     0.57042   0.62227   0.77451   0.00000  Uiso   1.00
H1896  H     0.62496   0.93780   0.77750   0.00000  Uiso   1.00
N1897  N     0.50000   0.75000   0.95240   0.00000  Uiso   1.00
N1898  N     0.50000   0.75000   0.71427   0.00000  Uiso   1.00
N1899  N     0.75000   0.50000   0.95240   0.00000  Uiso   1.00
N1900  N     0.75000   0.50000   0.71427   0.00000  Uiso   1.00
O1901  O     0.54581   0.70419   0.87154   0.00000  Uiso   1.00
O1902  O     0.70420   0.54581   0.79513   0.00000  Uiso   1.00
O1903  O     0.70420   0.54581   0.87154   0.00000  Uiso   1.00
O1904  O     0.79581   0.95419   0.79513   0.00000  Uiso   1.00
O1905  O     0.70420   0.95419   0.79513   0.00000  Uiso   1.00
O1906  O     0.79581   0.54581   0.87154   0.00000  Uiso   1.00
O1907  O     0.79581   0.54581   0.79513   0.00000  Uiso   1.00
O1908  O     0.70420   0.95419   0.87154   0.00000  Uiso   1.00
O1909  O     0.95420   0.79581   0.79513   0.00000  Uiso   1.00
O1910  O     0.95420   0.79581   0.87154   0.00000  Uiso   1.00
O1911  O     0.54581   0.70419   0.79513   0.00000  Uiso   1.00
O1912  O     0.95420   0.70419   0.79513   0.00000  Uiso   1.00
O1913  O     0.54581   0.79581   0.87154   0.00000  Uiso   1.00
O1914  O     0.54581   0.79581   0.79513   0.00000  Uiso   1.00
O1915  O     0.95420   0.70419   0.87154   0.00000  Uiso   1.00
O1916  O     0.79581   0.95419   0.87154   0.00000  Uiso   1.00
Zn1917 Zn    0.50000   0.75000   0.88437   0.00000  Uiso   1.00
Zn1918 Zn    0.50000   0.75000   0.78229   0.00000  Uiso   1.00
Zn1919 Zn    0.75000   0.50000   0.88437   0.00000  Uiso   1.00
Zn1920 Zn    0.75000   0.50000   0.78229   0.00000  Uiso   1.00
loop_
_geom_bond_atom_site_label_1
_geom_bond_atom_site_label_2
_geom_bond_distance
_geom_bond_site_symmetry_2
_ccdc_geom_bond_type
C1     C30     1.411   .     S
C1     O151    1.299   .     A
C1     O141    1.302   .     A
C2     C39     1.518   .     S
C2     N137    1.383   .     A
C2     C803    1.431   1_455 S
C3     C42     1.518   .     S
C3     C1442   1.431   1_554 S
C3     N298    1.383   .     S
C4     C46     1.523   .     S
C4     C864    1.437   .     S
C4     N297    1.388   .     S
C5     C49     1.523   .     S
C5     C1288   1.437   1_554 S
C5     N140    1.388   .     S
C6     N459    1.383   .     A
C6     C52     1.518   .     S
C6     C647    1.431   .     S
C7     C55     1.518   .     S
C7     N460    1.383   .     A
C7     C1286   1.431   1_554 S
C8     C59     1.523   .     S
C8     C645    1.437   .     S
C8     N139    1.388   .     S
C9     C20     1.370   .     A
C9     H65     1.084   .     S
C9     C28     1.393   .     A
C10    C27     1.395   .     A
C10    H76     1.084   .     S
C10    C21     1.371   .     A
C11    C18     1.370   .     A
C11    H87     1.075   .     S
C11    C27     1.394   .     A
C12    C29     1.414   .     S
C12    O150    1.303   .     A
C12    O149    1.299   .     A
C13    H98     1.079   .     S
C13    C28     1.395   .     A
C13    C19     1.371   .     A
C14    H109    1.084   .     S
C14    C30     1.393   .     A
C14    C25     1.370   .     A
C15    H120    1.084   .     S
C15    C29     1.395   .     A
C15    C26     1.371   .     A
C16    H131    1.075   .     S
C16    C22     1.370   .     A
C16    C29     1.394   .     A
C17    H135    1.079   .     S
C17    C30     1.395   .     A
C17    C24     1.371   .     A
C18    H136    1.084   .     S
C18    C32     1.393   .     A
C19    C31     1.395   .     A
C19    H66     1.084   .     S
C20    H67     1.075   .     S
C20    C31     1.394   .     A
C21    C32     1.395   .     A
C21    H68     1.079   .     S
C22    C35     1.393   .     A
C22    H69     1.084   .     S
C23    O152    1.302   .     A
C23    O155    1.299   .     A
C23    C28     1.411   .     S
C24    H70     1.084   .     S
C24    C33     1.395   .     A
C25    H71     1.075   .     S
C25    C33     1.394   .     A
C26    H72     1.079   .     S
C26    C35     1.395   .     A
C27    C34     1.414   .     S
C31    C63     1.414   .     S
C32    C62     1.411   .     S
C33    C56     1.414   .     S
C34    O154    1.303   .     A
C34    O153    1.299   .     A
C35    C45     1.411   .     S
C36    H80     1.107   .     S
C36    H79     1.097   .     S
C36    C64     1.523   .     S
C36    C197    1.545   1_455 S
C37    H77     1.112   .     S
C37    C38     1.529   .     S
C37    H78     1.105   .     S
C37    C196    1.545   .     S
C38    H75     1.111   .     S
C38    H74     1.107   .     S
C38    H233    1.111   .     S
C39    H88     1.108   .     S
C39    C40     1.536   .     S
C39    H86     1.102   .     S
C40    H85     1.101   .     S
C40    C41     1.527   .     S
C40    H244    1.106   1_455 S
C41    H83     1.111   .     S
C41    H81     1.109   .     S
C41    H82     1.111   .     S
C42    H95     1.108   .     S
C42    C43     1.536   .     S
C42    H94     1.102   .     S
C43    C44     1.527   .     S
C43    H253    1.101   .     S
C43    H252    1.106   .     S
C44    H91     1.111   .     S
C44    H90     1.111   .     S
C44    H89     1.109   .     S
C45    O144    1.299   .     A
C45    O156    1.302   .     A
C46    H102    1.097   .     S
C46    H103    1.107   .     S
C46    C207    1.545   .     S
C47    H101    1.105   .     S
C47    H100    1.112   .     S
C47    C48     1.529   .     S
C47    C206    1.545   1_455 S
C48    H97     1.107   .     S
C48    H99     1.111   .     S
C48    H256    1.111   1_455 S
C49    H111    1.107   .     S
C49    C50     1.545   .     S
C49    H110    1.097   .     S
C50    H108    1.105   .     S
C50    C51     1.529   .     S
C50    H107    1.112   .     S
C51    H104    1.111   .     S
C51    H105    1.107   .     S
C51    H106    1.111   .     S
C52    H117    1.102   .     S
C52    C53     1.536   .     S
C52    H118    1.108   .     S
C53    C54     1.527   .     S
C53    H116    1.101   .     S
C53    H115    1.106   .     S
C54    H113    1.111   .     S
C54    H112    1.109   .     S
C54    H114    1.111   .     S
C55    H125    1.102   .     S
C55    H126    1.108   .     S
C55    C57     1.536   .     S
C56    O143    1.303   .     A
C56    O142    1.299   .     A
C57    H123    1.106   .     S
C57    H124    1.101   .     S
C57    C58     1.527   .     S
C58    H122    1.111   .     S
C58    H121    1.111   .     S
C58    H119    1.109   .     S
C59    C60     1.545   .     S
C59    H133    1.097   .     S
C59    H134    1.107   .     S
C60    H132    1.105   .     S
C60    H130    1.112   .     S
C60    C61     1.529   .     S
C61    H129    1.111   .     S
C61    H127    1.111   .     S
C61    H128    1.108   .     S
C62    O145    1.302   .     A
C62    O148    1.299   .     A
C63    O146    1.299   .     A
C63    O147    1.303   .     A
C64    N138    1.388   .     A
C64    C1444   1.437   1_454 S
H73    C198    1.111   1_455 S
H84    C200    1.106   .     S
H92    C203    1.106   1_455 S
H93    C203    1.101   1_455 S
H96    C208    1.111   .     S
N137   C164    1.388   1_455 S
N137   Zn157   2.060   .     S
N138   Zn158   2.060   .     S
N138   C163    1.383   1_455 S
N139   C326    1.383   1_545 A
N139   Zn159   2.060   .     S
N140   C327    1.383   1_545 A
N140   Zn160   2.060   .     S
O141   Zn157   1.983   .     S
O142   Zn160   1.983   .     S
O143   Zn159   1.991   .     S
O144   Zn480   1.991   .     S
O145   Zn480   1.983   .     S
O146   Zn159   1.983   .     S
O147   Zn160   1.991   .     S
O148   Zn479   1.991   .     S
O149   Zn318   1.983   .     S
O150   Zn317   1.991   .     S
O151   Zn158   1.991   .     S
O152   Zn318   1.983   .     S
O153   Zn157   1.983   .     S
O154   Zn158   1.991   .     S
O155   Zn317   1.991   .     S
O156   Zn479   1.983   .     S
Zn157  O310    1.991   1_455 S
Zn157  O315    1.991   1_455 S
Zn158  O312    1.983   1_455 S
Zn158  O309    1.983   1_455 S
Zn159  O468    1.991   1_545 S
Zn159  O476    1.983   1_545 S
Zn160  O464    1.991   1_545 S
Zn160  O465    1.983   1_545 S
C161   C190    1.411   .     S
C161   O311    1.299   .     A
C161   O301    1.302   .     A
C162   C199    1.518   .     S
C162   N297    1.383   .     A
C162   C643    1.431   .     S
C163   C202    1.518   .     S
C163   C1282   1.431   1_654 S
C163   N138    1.383   1_655 S
C164   C206    1.523   .     S
C164   C704    1.437   1_655 S
C164   N137    1.388   1_655 S
C165   C209    1.523   .     S
C165   C1448   1.437   1_554 S
C165   N300    1.388   .     S
C166   N619    1.383   .     A
C166   C212    1.518   .     S
C166   C807    1.431   .     S
C167   C215    1.518   .     S
C167   N620    1.383   .     A
C167   C1446   1.431   1_554 S
C168   C219    1.523   .     S
C168   C805    1.437   .     S
C168   N299    1.388   .     S
C169   C180    1.370   .     A
C169   H225    1.084   .     S
C169   C188    1.393   .     A
C170   C187    1.395   .     A
C170   H236    1.084   .     S
C170   C181    1.371   .     A
C171   C178    1.370   .     A
C171   H247    1.075   .     S
C171   C187    1.394   .     A
C172   C189    1.414   .     S
C172   O310    1.303   .     A
C172   O309    1.299   .     A
C173   H258    1.079   .     S
C173   C188    1.395   .     A
C173   C179    1.371   .     A
C174   H269    1.084   .     S
C174   C190    1.393   .     A
C174   C185    1.370   .     A
C175   H280    1.084   .     S
C175   C189    1.395   .     A
C175   C186    1.371   .     A
C176   H291    1.075   .     S
C176   C182    1.370   .     A
C176   C189    1.394   .     A
C177   H295    1.079   .     S
C177   C190    1.395   .     A
C177   C184    1.371   .     A
C178   H296    1.084   .     S
C178   C192    1.393   .     A
C179   C191    1.395   .     A
C179   H226    1.084   .     S
C180   H227    1.075   .     S
C180   C191    1.394   .     A
C181   C192    1.395   .     A
C181   H228    1.079   .     S
C182   C195    1.393   .     A
C182   H229    1.084   .     S
C183   O312    1.302   .     A
C183   O315    1.299   .     A
C183   C188    1.411   .     S
C184   H230    1.084   .     S
C184   C193    1.395   .     A
C185   H231    1.075   .     S
C185   C193    1.394   .     A
C186   H232    1.079   .     S
C186   C195    1.395   .     A
C187   C194    1.414   .     S
C191   C223    1.414   .     S
C192   C222    1.411   .     S
C193   C216    1.414   .     S
C194   O314    1.303   .     A
C194   O313    1.299   .     A
C195   C205    1.411   .     S
C196   H240    1.107   .     S
C196   H239    1.097   .     S
C196   C224    1.523   .     S
C197   H237    1.112   .     S
C197   C198    1.529   .     S
C197   H238    1.105   .     S
C197   C36     1.545   1_655 S
C198   H235    1.111   .     S
C198   H234    1.107   .     S
C198   H73     1.111   1_655 S
C199   H248    1.108   .     S
C199   C200    1.536   .     S
C199   H246    1.102   .     S
C200   H245    1.101   .     S
C200   C201    1.527   .     S
C201   H243    1.111   .     S
C201   H241    1.109   .     S
C201   H242    1.111   .     S
C202   H255    1.108   .     S
C202   C203    1.536   .     S
C202   H254    1.102   .     S
C203   C204    1.527   .     S
C203   H93     1.101   1_655 S
C203   H92     1.106   1_655 S
C204   H251    1.111   .     S
C204   H250    1.111   .     S
C204   H249    1.109   .     S
C205   O304    1.299   .     A
C205   O316    1.302   .     A
C206   H262    1.097   .     S
C206   H263    1.107   .     S
C206   C47     1.545   1_655 S
C207   H261    1.105   .     S
C207   H260    1.112   .     S
C207   C208    1.529   .     S
C208   H257    1.107   .     S
C208   H259    1.111   .     S
C209   H271    1.107   .     S
C209   C210    1.545   .     S
C209   H270    1.097   .     S
C210   H268    1.105   .     S
C210   C211    1.529   .     S
C210   H267    1.112   .     S
C211   H264    1.111   .     S
C211   H265    1.107   .     S
C211   H266    1.111   .     S
C212   H277    1.102   .     S
C212   C213    1.536   .     S
C212   H278    1.108   .     S
C213   C214    1.527   .     S
C213   H276    1.101   .     S
C213   H275    1.106   .     S
C214   H273    1.111   .     S
C214   H272    1.109   .     S
C214   H274    1.111   .     S
C215   H285    1.102   .     S
C215   H286    1.108   .     S
C215   C217    1.536   .     S
C216   O303    1.303   .     A
C216   O302    1.299   .     A
C217   H283    1.106   .     S
C217   H284    1.101   .     S
C217   C218    1.527   .     S
C218   H282    1.111   .     S
C218   H281    1.111   .     S
C218   H279    1.109   .     S
C219   C220    1.545   .     S
C219   H293    1.097   .     S
C219   H294    1.107   .     S
C220   H292    1.105   .     S
C220   H290    1.112   .     S
C220   C221    1.529   .     S
C221   H289    1.111   .     S
C221   H287    1.111   .     S
C221   H288    1.108   .     S
C222   O305    1.302   .     A
C222   O308    1.299   .     A
C223   O306    1.299   .     A
C223   O307    1.303   .     A
C224   N298    1.388   .     A
C224   C1284   1.437   1_554 S
H244   C40     1.106   1_655 S
H256   C48     1.111   1_655 S
N297   Zn317   2.060   .     S
N298   Zn318   2.060   .     S
N299   C486    1.383   1_545 A
N299   Zn319   2.060   .     S
N300   C487    1.383   1_545 A
N300   Zn320   2.060   .     S
O301   Zn317   1.983   .     S
O302   Zn320   1.983   .     S
O303   Zn319   1.991   .     S
O304   Zn640   1.991   .     S
O305   Zn640   1.983   .     S
O306   Zn319   1.983   .     S
O307   Zn320   1.991   .     S
O308   Zn639   1.991   .     S
O309   Zn158   1.983   1_655 S
O310   Zn157   1.991   1_655 S
O311   Zn318   1.991   .     S
O312   Zn158   1.983   1_655 S
O313   Zn317   1.983   .     S
O314   Zn318   1.991   .     S
O315   Zn157   1.991   1_655 S
O316   Zn639   1.983   .     S
Zn319  O628    1.991   1_545 S
Zn319  O636    1.983   1_545 S
Zn320  O624    1.991   1_545 S
Zn320  O625    1.983   1_545 S
C321   C350    1.411   .     S
C321   O471    1.299   .     A
C321   O461    1.302   .     A
C322   C359    1.518   .     S
C322   N457    1.383   .     A
C322   C1123   1.431   1_455 S
C323   C362    1.518   .     S
C323   C1762   1.431   1_554 S
C323   N618    1.383   .     S
C324   C366    1.523   .     S
C324   C1184   1.437   .     S
C324   N617    1.388   .     S
C325   C369    1.523   .     S
C325   C1608   1.437   1_554 S
C325   N460    1.388   .     S
C326   N139    1.383   1_565 A
C326   C372    1.518   .     S
C326   C967    1.431   .     S
C327   C375    1.518   .     S
C327   N140    1.383   1_565 A
C327   C1606   1.431   1_554 S
C328   C379    1.523   .     S
C328   C965    1.437   .     S
C328   N459    1.388   .     S
C329   C340    1.370   .     A
C329   H385    1.084   .     S
C329   C348    1.393   .     A
C330   C347    1.395   .     A
C330   H396    1.084   .     S
C330   C341    1.371   .     A
C331   C338    1.370   .     A
C331   H407    1.075   .     S
C331   C347    1.394   .     A
C332   C349    1.414   .     S
C332   O470    1.303   .     A
C332   O469    1.299   .     A
C333   H418    1.079   .     S
C333   C348    1.395   .     A
C333   C339    1.371   .     A
C334   H429    1.084   .     S
C334   C350    1.393   .     A
C334   C345    1.370   .     A
C335   H440    1.084   .     S
C335   C349    1.395   .     A
C335   C346    1.371   .     A
C336   H451    1.075   .     S
C336   C342    1.370   .     A
C336   C349    1.394   .     A
C337   H455    1.079   .     S
C337   C350    1.395   .     A
C337   C344    1.371   .     A
C338   H456    1.084   .     S
C338   C352    1.393   .     A
C339   C351    1.395   .     A
C339   H386    1.084   .     S
C340   H387    1.075   .     S
C340   C351    1.394   .     A
C341   C352    1.395   .     A
C341   H388    1.079   .     S
C342   C355    1.393   .     A
C342   H389    1.084   .     S
C343   O472    1.302   .     A
C343   O475    1.299   .     A
C343   C348    1.411   .     S
C344   H390    1.084   .     S
C344   C353    1.395   .     A
C345   H391    1.075   .     S
C345   C353    1.394   .     A
C346   H392    1.079   .     S
C346   C355    1.395   .     A
C347   C354    1.414   .     S
C351   C383    1.414   .     S
C352   C382    1.411   .     S
C353   C376    1.414   .     S
C354   O474    1.303   .     A
C354   O473    1.299   .     A
C355   C365    1.411   .     S
C356   H400    1.107   .     S
C356   H399    1.097   .     S
C356   C384    1.523   .     S
C356   C517    1.545   1_455 S
C357   H397    1.112   .     S
C357   C358    1.529   .     S
C357   H398    1.105   .     S
C357   C516    1.545   .     S
C358   H395    1.111   .     S
C358   H394    1.107   .     S
C358   H553    1.111   .     S
C359   H408    1.108   .     S
C359   C360    1.536   .     S
C359   H406    1.102   .     S
C360   H405    1.101   .     S
C360   C361    1.527   .     S
C360   H564    1.106   1_455 S
C361   H403    1.111   .     S
C361   H401    1.109   .     S
C361   H402    1.111   .     S
C362   H415    1.108   .     S
C362   C363    1.536   .     S
C362   H414    1.102   .     S
C363   C364    1.527   .     S
C363   H573    1.101   .     S
C363   H572    1.106   .     S
C364   H411    1.111   .     S
C364   H410    1.111   .     S
C364   H409    1.109   .     S
C365   O464    1.299   .     A
C365   O476    1.302   .     A
C366   H422    1.097   .     S
C366   H423    1.107   .     S
C366   C527    1.545   .     S
C367   H421    1.105   .     S
C367   H420    1.112   .     S
C367   C368    1.529   .     S
C367   C526    1.545   1_455 S
C368   H417    1.107   .     S
C368   H419    1.111   .     S
C368   H576    1.111   1_455 S
C369   H431    1.107   .     S
C369   C370    1.545   .     S
C369   H430    1.097   .     S
C370   H428    1.105   .     S
C370   C371    1.529   .     S
C370   H427    1.112   .     S
C371   H424    1.111   .     S
C371   H425    1.107   .     S
C371   H426    1.111   .     S
C372   H437    1.102   .     S
C372   C373    1.536   .     S
C372   H438    1.108   .     S
C373   C374    1.527   .     S
C373   H436    1.101   .     S
C373   H435    1.106   .     S
C374   H433    1.111   .     S
C374   H432    1.109   .     S
C374   H434    1.111   .     S
C375   H445    1.102   .     S
C375   H446    1.108   .     S
C375   C377    1.536   .     S
C376   O463    1.303   .     A
C376   O462    1.299   .     A
C377   H443    1.106   .     S
C377   H444    1.101   .     S
C377   C378    1.527   .     S
C378   H442    1.111   .     S
C378   H441    1.111   .     S
C378   H439    1.109   .     S
C379   C380    1.545   .     S
C379   H453    1.097   .     S
C379   H454    1.107   .     S
C380   H452    1.105   .     S
C380   H450    1.112   .     S
C380   C381    1.529   .     S
C381   H449    1.111   .     S
C381   H447    1.111   .     S
C381   H448    1.108   .     S
C382   O465    1.302   .     A
C382   O468    1.299   .     A
C383   O466    1.299   .     A
C383   O467    1.303   .     A
C384   N458    1.388   .     A
C384   C1764   1.437   1_454 S
H393   C518    1.111   1_455 S
H404   C520    1.106   .     S
H412   C523    1.106   1_455 S
H413   C523    1.101   1_455 S
H416   C528    1.111   .     S
N457   C484    1.388   1_455 S
N457   Zn477   2.060   .     S
N458   Zn478   2.060   .     S
N458   C483    1.383   1_455 S
N459   Zn479   2.060   .     S
N460   Zn480   2.060   .     S
O461   Zn477   1.983   .     S
O462   Zn480   1.983   .     S
O463   Zn479   1.991   .     S
O464   Zn160   1.991   1_565 S
O465   Zn160   1.983   1_565 S
O466   Zn479   1.983   .     S
O467   Zn480   1.991   .     S
O468   Zn159   1.991   1_565 S
O469   Zn638   1.983   .     S
O470   Zn637   1.991   .     S
O471   Zn478   1.991   .     S
O472   Zn638   1.983   .     S
O473   Zn477   1.983   .     S
O474   Zn478   1.991   .     S
O475   Zn637   1.991   .     S
O476   Zn159   1.983   1_565 S
Zn477  O630    1.991   1_455 S
Zn477  O635    1.991   1_455 S
Zn478  O632    1.983   1_455 S
Zn478  O629    1.983   1_455 S
C481   C510    1.411   .     S
C481   O631    1.299   .     A
C481   O621    1.302   .     A
C482   C519    1.518   .     S
C482   N617    1.383   .     A
C482   C963    1.431   .     S
C483   C522    1.518   .     S
C483   C1602   1.431   1_654 S
C483   N458    1.383   1_655 S
C484   C526    1.523   .     S
C484   C1024   1.437   1_655 S
C484   N457    1.388   1_655 S
C485   C529    1.523   .     S
C485   C1768   1.437   1_554 S
C485   N620    1.388   .     S
C486   N299    1.383   1_565 A
C486   C532    1.518   .     S
C486   C1127   1.431   .     S
C487   C535    1.518   .     S
C487   N300    1.383   1_565 A
C487   C1766   1.431   1_554 S
C488   C539    1.523   .     S
C488   C1125   1.437   .     S
C488   N619    1.388   .     S
C489   C500    1.370   .     A
C489   H545    1.084   .     S
C489   C508    1.393   .     A
C490   C507    1.395   .     A
C490   H556    1.084   .     S
C490   C501    1.371   .     A
C491   C498    1.370   .     A
C491   H567    1.075   .     S
C491   C507    1.394   .     A
C492   C509    1.414   .     S
C492   O630    1.303   .     A
C492   O629    1.299   .     A
C493   H578    1.079   .     S
C493   C508    1.395   .     A
C493   C499    1.371   .     A
C494   H589    1.084   .     S
C494   C510    1.393   .     A
C494   C505    1.370   .     A
C495   H600    1.084   .     S
C495   C509    1.395   .     A
C495   C506    1.371   .     A
C496   H611    1.075   .     S
C496   C502    1.370   .     A
C496   C509    1.394   .     A
C497   H615    1.079   .     S
C497   C510    1.395   .     A
C497   C504    1.371   .     A
C498   H616    1.084   .     S
C498   C512    1.393   .     A
C499   C511    1.395   .     A
C499   H546    1.084   .     S
C500   H547    1.075   .     S
C500   C511    1.394   .     A
C501   C512    1.395   .     A
C501   H548    1.079   .     S
C502   C515    1.393   .     A
C502   H549    1.084   .     S
C503   O632    1.302   .     A
C503   O635    1.299   .     A
C503   C508    1.411   .     S
C504   H550    1.084   .     S
C504   C513    1.395   .     A
C505   H551    1.075   .     S
C505   C513    1.394   .     A
C506   H552    1.079   .     S
C506   C515    1.395   .     A
C507   C514    1.414   .     S
C511   C543    1.414   .     S
C512   C542    1.411   .     S
C513   C536    1.414   .     S
C514   O634    1.303   .     A
C514   O633    1.299   .     A
C515   C525    1.411   .     S
C516   H560    1.107   .     S
C516   H559    1.097   .     S
C516   C544    1.523   .     S
C517   H557    1.112   .     S
C517   C518    1.529   .     S
C517   H558    1.105   .     S
C517   C356    1.545   1_655 S
C518   H555    1.111   .     S
C518   H554    1.107   .     S
C518   H393    1.111   1_655 S
C519   H568    1.108   .     S
C519   C520    1.536   .     S
C519   H566    1.102   .     S
C520   H565    1.101   .     S
C520   C521    1.527   .     S
C521   H563    1.111   .     S
C521   H561    1.109   .     S
C521   H562    1.111   .     S
C522   H575    1.108   .     S
C522   C523    1.536   .     S
C522   H574    1.102   .     S
C523   C524    1.527   .     S
C523   H413    1.101   1_655 S
C523   H412    1.106   1_655 S
C524   H571    1.111   .     S
C524   H570    1.111   .     S
C524   H569    1.109   .     S
C525   O624    1.299   .     A
C525   O636    1.302   .     A
C526   H582    1.097   .     S
C526   H583    1.107   .     S
C526   C367    1.545   1_655 S
C527   H581    1.105   .     S
C527   H580    1.112   .     S
C527   C528    1.529   .     S
C528   H577    1.107   .     S
C528   H579    1.111   .     S
C529   H591    1.107   .     S
C529   C530    1.545   .     S
C529   H590    1.097   .     S
C530   H588    1.105   .     S
C530   C531    1.529   .     S
C530   H587    1.112   .     S
C531   H584    1.111   .     S
C531   H585    1.107   .     S
C531   H586    1.111   .     S
C532   H597    1.102   .     S
C532   C533    1.536   .     S
C532   H598    1.108   .     S
C533   C534    1.527   .     S
C533   H596    1.101   .     S
C533   H595    1.106   .     S
C534   H593    1.111   .     S
C534   H592    1.109   .     S
C534   H594    1.111   .     S
C535   H605    1.102   .     S
C535   H606    1.108   .     S
C535   C537    1.536   .     S
C536   O623    1.303   .     A
C536   O622    1.299   .     A
C537   H603    1.106   .     S
C537   H604    1.101   .     S
C537   C538    1.527   .     S
C538   H602    1.111   .     S
C538   H601    1.111   .     S
C538   H599    1.109   .     S
C539   C540    1.545   .     S
C539   H613    1.097   .     S
C539   H614    1.107   .     S
C540   H612    1.105   .     S
C540   H610    1.112   .     S
C540   C541    1.529   .     S
C541   H609    1.111   .     S
C541   H607    1.111   .     S
C541   H608    1.108   .     S
C542   O625    1.302   .     A
C542   O628    1.299   .     A
C543   O626    1.299   .     A
C543   O627    1.303   .     A
C544   N618    1.388   .     A
C544   C1604   1.437   1_554 S
H564   C360    1.106   1_655 S
H576   C368    1.111   1_655 S
N617   Zn637   2.060   .     S
N618   Zn638   2.060   .     S
N619   Zn639   2.060   .     S
N620   Zn640   2.060   .     S
O621   Zn637   1.983   .     S
O622   Zn640   1.983   .     S
O623   Zn639   1.991   .     S
O624   Zn320   1.991   1_565 S
O625   Zn320   1.983   1_565 S
O626   Zn639   1.983   .     S
O627   Zn640   1.991   .     S
O628   Zn319   1.991   1_565 S
O629   Zn478   1.983   1_655 S
O630   Zn477   1.991   1_655 S
O631   Zn638   1.991   .     S
O632   Zn478   1.983   1_655 S
O633   Zn637   1.983   .     S
O634   Zn638   1.991   .     S
O635   Zn477   1.991   1_655 S
O636   Zn319   1.983   1_565 S
C641   C670    1.411   .     S
C641   O791    1.299   .     A
C641   O781    1.302   .     A
C642   C679    1.518   .     S
C642   N777    1.383   .     A
C642   C1443   1.431   1_455 S
C643   C682    1.518   .     S
C643   N938    1.383   .     S
C644   C686    1.523   .     S
C644   C1504   1.437   .     S
C644   N937    1.388   .     S
C645   C689    1.523   .     S
C645   N780    1.388   .     S
C646   N1099   1.383   .     A
C646   C692    1.518   .     S
C646   C1287   1.431   .     S
C647   C695    1.518   .     S
C647   N1100   1.383   .     A
C648   C699    1.523   .     S
C648   C1285   1.437   .     S
C648   N779    1.388   .     S
C649   C660    1.370   .     A
C649   H705    1.084   .     S
C649   C668    1.393   .     A
C650   C667    1.395   .     A
C650   H716    1.084   .     S
C650   C661    1.371   .     A
C651   C658    1.370   .     A
C651   H727    1.075   .     S
C651   C667    1.394   .     A
C652   C669    1.414   .     S
C652   O790    1.303   .     A
C652   O789    1.299   .     A
C653   H738    1.079   .     S
C653   C668    1.395   .     A
C653   C659    1.371   .     A
C654   H749    1.084   .     S
C654   C670    1.393   .     A
C654   C665    1.370   .     A
C655   H760    1.084   .     S
C655   C669    1.395   .     A
C655   C666    1.371   .     A
C656   H771    1.075   .     S
C656   C662    1.370   .     A
C656   C669    1.394   .     A
C657   H775    1.079   .     S
C657   C670    1.395   .     A
C657   C664    1.371   .     A
C658   H776    1.084   .     S
C658   C672    1.393   .     A
C659   C671    1.395   .     A
C659   H706    1.084   .     S
C660   H707    1.075   .     S
C660   C671    1.394   .     A
C661   C672    1.395   .     A
C661   H708    1.079   .     S
C662   C675    1.393   .     A
C662   H709    1.084   .     S
C663   O792    1.302   .     A
C663   O795    1.299   .     A
C663   C668    1.411   .     S
C664   H710    1.084   .     S
C664   C673    1.395   .     A
C665   H711    1.075   .     S
C665   C673    1.394   .     A
C666   H712    1.079   .     S
C666   C675    1.395   .     A
C667   C674    1.414   .     S
C671   C703    1.414   .     S
C672   C702    1.411   .     S
C673   C696    1.414   .     S
C674   O794    1.303   .     A
C674   O793    1.299   .     A
C675   C685    1.411   .     S
C676   H720    1.107   .     S
C676   H719    1.097   .     S
C676   C704    1.523   .     S
C676   C837    1.545   1_455 S
C677   H717    1.112   .     S
C677   C678    1.529   .     S
C677   H718    1.105   .     S
C677   C836    1.545   .     S
C678   H715    1.111   .     S
C678   H714    1.107   .     S
C678   H873    1.111   .     S
C679   H728    1.108   .     S
C679   C680    1.536   .     S
C679   H726    1.102   .     S
C680   H725    1.101   .     S
C680   C681    1.527   .     S
C680   H884    1.106   1_455 S
C681   H723    1.111   .     S
C681   H721    1.109   .     S
C681   H722    1.111   .     S
C682   H735    1.108   .     S
C682   C683    1.536   .     S
C682   H734    1.102   .     S
C683   C684    1.527   .     S
C683   H893    1.101   .     S
C683   H892    1.106   .     S
C684   H731    1.111   .     S
C684   H730    1.111   .     S
C684   H729    1.109   .     S
C685   O784    1.299   .     A
C685   O796    1.302   .     A
C686   H742    1.097   .     S
C686   H743    1.107   .     S
C686   C847    1.545   .     S
C687   H741    1.105   .     S
C687   H740    1.112   .     S
C687   C688    1.529   .     S
C687   C846    1.545   1_455 S
C688   H737    1.107   .     S
C688   H739    1.111   .     S
C688   H896    1.111   1_455 S
C689   H751    1.107   .     S
C689   C690    1.545   .     S
C689   H750    1.097   .     S
C690   H748    1.105   .     S
C690   C691    1.529   .     S
C690   H747    1.112   .     S
C691   H744    1.111   .     S
C691   H745    1.107   .     S
C691   H746    1.111   .     S
C692   H757    1.102   .     S
C692   C693    1.536   .     S
C692   H758    1.108   .     S
C693   C694    1.527   .     S
C693   H756    1.101   .     S
C693   H755    1.106   .     S
C694   H753    1.111   .     S
C694   H752    1.109   .     S
C694   H754    1.111   .     S
C695   H765    1.102   .     S
C695   H766    1.108   .     S
C695   C697    1.536   .     S
C696   O783    1.303   .     A
C696   O782    1.299   .     A
C697   H763    1.106   .     S
C697   H764    1.101   .     S
C697   C698    1.527   .     S
C698   H762    1.111   .     S
C698   H761    1.111   .     S
C698   H759    1.109   .     S
C699   C700    1.545   .     S
C699   H773    1.097   .     S
C699   H774    1.107   .     S
C700   H772    1.105   .     S
C700   H770    1.112   .     S
C700   C701    1.529   .     S
C701   H769    1.111   .     S
C701   H767    1.111   .     S
C701   H768    1.108   .     S
C702   O785    1.302   .     A
C702   O788    1.299   .     A
C703   O786    1.299   .     A
C703   O787    1.303   .     A
C704   N778    1.388   .     A
C704   C164    1.437   1_455 S
H713   C838    1.111   1_455 S
H724   C840    1.106   .     S
H732   C843    1.106   1_455 S
H733   C843    1.101   1_455 S
H736   C848    1.111   .     S
N777   C804    1.388   1_455 S
N777   Zn797   2.060   .     S
N778   Zn798   2.060   .     S
N778   C803    1.383   1_455 S
N779   C966    1.383   1_545 A
N779   Zn799   2.060   .     S
N780   C967    1.383   1_545 A
N780   Zn800   2.060   .     S
O781   Zn797   1.983   .     S
O782   Zn800   1.983   .     S
O783   Zn799   1.991   .     S
O784   Zn1120  1.991   .     S
O785   Zn1120  1.983   .     S
O786   Zn799   1.983   .     S
O787   Zn800   1.991   .     S
O788   Zn1119  1.991   .     S
O789   Zn958   1.983   .     S
O790   Zn957   1.991   .     S
O791   Zn798   1.991   .     S
O792   Zn958   1.983   .     S
O793   Zn797   1.983   .     S
O794   Zn798   1.991   .     S
O795   Zn957   1.991   .     S
O796   Zn1119  1.983   .     S
Zn797  O950    1.991   1_455 S
Zn797  O955    1.991   1_455 S
Zn798  O952    1.983   1_455 S
Zn798  O949    1.983   1_455 S
Zn799  O1108   1.991   1_545 S
Zn799  O1116   1.983   1_545 S
Zn800  O1104   1.991   1_545 S
Zn800  O1105   1.983   1_545 S
C801   C830    1.411   .     S
C801   O951    1.299   .     A
C801   O941    1.302   .     A
C802   C839    1.518   .     S
C802   N937    1.383   .     A
C802   C1283   1.431   .     S
C803   C842    1.518   .     S
C803   C2      1.431   1_655 S
C803   N778    1.383   1_655 S
C804   C846    1.523   .     S
C804   C1344   1.437   1_655 S
C804   N777    1.388   1_655 S
C805   C849    1.523   .     S
C805   N940    1.388   .     S
C806   N1259   1.383   .     A
C806   C852    1.518   .     S
C806   C1447   1.431   .     S
C807   C855    1.518   .     S
C807   N1260   1.383   .     A
C808   C859    1.523   .     S
C808   C1445   1.437   .     S
C808   N939    1.388   .     S
C809   C820    1.370   .     A
C809   H865    1.084   .     S
C809   C828    1.393   .     A
C810   C827    1.395   .     A
C810   H876    1.084   .     S
C810   C821    1.371   .     A
C811   C818    1.370   .     A
C811   H887    1.075   .     S
C811   C827    1.394   .     A
C812   C829    1.414   .     S
C812   O950    1.303   .     A
C812   O949    1.299   .     A
C813   H898    1.079   .     S
C813   C828    1.395   .     A
C813   C819    1.371   .     A
C814   H909    1.084   .     S
C814   C830    1.393   .     A
C814   C825    1.370   .     A
C815   H920    1.084   .     S
C815   C829    1.395   .     A
C815   C826    1.371   .     A
C816   H931    1.075   .     S
C816   C822    1.370   .     A
C816   C829    1.394   .     A
C817   H935    1.079   .     S
C817   C830    1.395   .     A
C817   C824    1.371   .     A
C818   H936    1.084   .     S
C818   C832    1.393   .     A
C819   C831    1.395   .     A
C819   H866    1.084   .     S
C820   H867    1.075   .     S
C820   C831    1.394   .     A
C821   C832    1.395   .     A
C821   H868    1.079   .     S
C822   C835    1.393   .     A
C822   H869    1.084   .     S
C823   O952    1.302   .     A
C823   O955    1.299   .     A
C823   C828    1.411   .     S
C824   H870    1.084   .     S
C824   C833    1.395   .     A
C825   H871    1.075   .     S
C825   C833    1.394   .     A
C826   H872    1.079   .     S
C826   C835    1.395   .     A
C827   C834    1.414   .     S
C831   C863    1.414   .     S
C832   C862    1.411   .     S
C833   C856    1.414   .     S
C834   O954    1.303   .     A
C834   O953    1.299   .     A
C835   C845    1.411   .     S
C836   H880    1.107   .     S
C836   H879    1.097   .     S
C836   C864    1.523   .     S
C837   H877    1.112   .     S
C837   C838    1.529   .     S
C837   H878    1.105   .     S
C837   C676    1.545   1_655 S
C838   H875    1.111   .     S
C838   H874    1.107   .     S
C838   H713    1.111   1_655 S
C839   H888    1.108   .     S
C839   C840    1.536   .     S
C839   H886    1.102   .     S
C840   H885    1.101   .     S
C840   C841    1.527   .     S
C841   H883    1.111   .     S
C841   H881    1.109   .     S
C841   H882    1.111   .     S
C842   H895    1.108   .     S
C842   C843    1.536   .     S
C842   H894    1.102   .     S
C843   C844    1.527   .     S
C843   H733    1.101   1_655 S
C843   H732    1.106   1_655 S
C844   H891    1.111   .     S
C844   H890    1.111   .     S
C844   H889    1.109   .     S
C845   O944    1.299   .     A
C845   O956    1.302   .     A
C846   H902    1.097   .     S
C846   H903    1.107   .     S
C846   C687    1.545   1_655 S
C847   H901    1.105   .     S
C847   H900    1.112   .     S
C847   C848    1.529   .     S
C848   H897    1.107   .     S
C848   H899    1.111   .     S
C849   H911    1.107   .     S
C849   C850    1.545   .     S
C849   H910    1.097   .     S
C850   H908    1.105   .     S
C850   C851    1.529   .     S
C850   H907    1.112   .     S
C851   H904    1.111   .     S
C851   H905    1.107   .     S
C851   H906    1.111   .     S
C852   H917    1.102   .     S
C852   C853    1.536   .     S
C852   H918    1.108   .     S
C853   C854    1.527   .     S
C853   H916    1.101   .     S
C853   H915    1.106   .     S
C854   H913    1.111   .     S
C854   H912    1.109   .     S
C854   H914    1.111   .     S
C855   H925    1.102   .     S
C855   H926    1.108   .     S
C855   C857    1.536   .     S
C856   O943    1.303   .     A
C856   O942    1.299   .     A
C857   H923    1.106   .     S
C857   H924    1.101   .     S
C857   C858    1.527   .     S
C858   H922    1.111   .     S
C858   H921    1.111   .     S
C858   H919    1.109   .     S
C859   C860    1.545   .     S
C859   H933    1.097   .     S
C859   H934    1.107   .     S
C860   H932    1.105   .     S
C860   H930    1.112   .     S
C860   C861    1.529   .     S
C861   H929    1.111   .     S
C861   H927    1.111   .     S
C861   H928    1.108   .     S
C862   O945    1.302   .     A
C862   O948    1.299   .     A
C863   O946    1.299   .     A
C863   O947    1.303   .     A
C864   N938    1.388   .     A
H884   C680    1.106   1_655 S
H896   C688    1.111   1_655 S
N937   Zn957   2.060   .     S
N938   Zn958   2.060   .     S
N939   C1126   1.383   1_545 A
N939   Zn959   2.060   .     S
N940   C1127   1.383   1_545 A
N940   Zn960   2.060   .     S
O941   Zn957   1.983   .     S
O942   Zn960   1.983   .     S
O943   Zn959   1.991   .     S
O944   Zn1280  1.991   .     S
O945   Zn1280  1.983   .     S
O946   Zn959   1.983   .     S
O947   Zn960   1.991   .     S
O948   Zn1279  1.991   .     S
O949   Zn798   1.983   1_655 S
O950   Zn797   1.991   1_655 S
O951   Zn958   1.991   .     S
O952   Zn798   1.983   1_655 S
O953   Zn957   1.983   .     S
O954   Zn958   1.991   .     S
O955   Zn797   1.991   1_655 S
O956   Zn1279  1.983   .     S
Zn959  O1268   1.991   1_545 S
Zn959  O1276   1.983   1_545 S
Zn960  O1264   1.991   1_545 S
Zn960  O1265   1.983   1_545 S
C961   C990    1.411   .     S
C961   O1111   1.299   .     A
C961   O1101   1.302   .     A
C962   C999    1.518   .     S
C962   N1097   1.383   .     A
C962   C1763   1.431   1_455 S
C963   C1002   1.518   .     S
C963   N1258   1.383   .     S
C964   C1006   1.523   .     S
C964   C1824   1.437   .     S
C964   N1257   1.388   .     S
C965   C1009   1.523   .     S
C965   N1100   1.388   .     S
C966   N779    1.383   1_565 A
C966   C1012   1.518   .     S
C966   C1607   1.431   .     S
C967   C1015   1.518   .     S
C967   N780    1.383   1_565 A
C968   C1019   1.523   .     S
C968   C1605   1.437   .     S
C968   N1099   1.388   .     S
C969   C980    1.370   .     A
C969   H1025   1.084   .     S
C969   C988    1.393   .     A
C970   C987    1.395   .     A
C970   H1036   1.084   .     S
C970   C981    1.371   .     A
C971   C978    1.370   .     A
C971   H1047   1.075   .     S
C971   C987    1.394   .     A
C972   C989    1.414   .     S
C972   O1110   1.303   .     A
C972   O1109   1.299   .     A
C973   H1058   1.079   .     S
C973   C988    1.395   .     A
C973   C979    1.371   .     A
C974   H1069   1.084   .     S
C974   C990    1.393   .     A
C974   C985    1.370   .     A
C975   H1080   1.084   .     S
C975   C989    1.395   .     A
C975   C986    1.371   .     A
C976   H1091   1.075   .     S
C976   C982    1.370   .     A
C976   C989    1.394   .     A
C977   H1095   1.079   .     S
C977   C990    1.395   .     A
C977   C984    1.371   .     A
C978   H1096   1.084   .     S
C978   C992    1.393   .     A
C979   C991    1.395   .     A
C979   H1026   1.084   .     S
C980   H1027   1.075   .     S
C980   C991    1.394   .     A
C981   C992    1.395   .     A
C981   H1028   1.079   .     S
C982   C995    1.393   .     A
C982   H1029   1.084   .     S
C983   O1112   1.302   .     A
C983   O1115   1.299   .     A
C983   C988    1.411   .     S
C984   H1030   1.084   .     S
C984   C993    1.395   .     A
C985   H1031   1.075   .     S
C985   C993    1.394   .     A
C986   H1032   1.079   .     S
C986   C995    1.395   .     A
C987   C994    1.414   .     S
C991   C1023   1.414   .     S
C992   C1022   1.411   .     S
C993   C1016   1.414   .     S
C994   O1114   1.303   .     A
C994   O1113   1.299   .     A
C995   C1005   1.411   .     S
C996   H1040   1.107   .     S
C996   H1039   1.097   .     S
C996   C1024   1.523   .     S
C996   C1157   1.545   1_455 S
C997   H1037   1.112   .     S
C997   C998    1.529   .     S
C997   H1038   1.105   .     S
C997   C1156   1.545   .     S
C998   H1035   1.111   .     S
C998   H1034   1.107   .     S
C998   H1193   1.111   .     S
C999   H1048   1.108   .     S
C999   C1000   1.536   .     S
C999   H1046   1.102   .     S
C1000  H1045   1.101   .     S
C1000  C1001   1.527   .     S
C1000  H1204   1.106   1_455 S
C1001  H1043   1.111   .     S
C1001  H1041   1.109   .     S
C1001  H1042   1.111   .     S
C1002  H1055   1.108   .     S
C1002  C1003   1.536   .     S
C1002  H1054   1.102   .     S
C1003  C1004   1.527   .     S
C1003  H1213   1.101   .     S
C1003  H1212   1.106   .     S
C1004  H1051   1.111   .     S
C1004  H1050   1.111   .     S
C1004  H1049   1.109   .     S
C1005  O1104   1.299   .     A
C1005  O1116   1.302   .     A
C1006  H1062   1.097   .     S
C1006  H1063   1.107   .     S
C1006  C1167   1.545   .     S
C1007  H1061   1.105   .     S
C1007  H1060   1.112   .     S
C1007  C1008   1.529   .     S
C1007  C1166   1.545   1_455 S
C1008  H1057   1.107   .     S
C1008  H1059   1.111   .     S
C1008  H1216   1.111   1_455 S
C1009  H1071   1.107   .     S
C1009  C1010   1.545   .     S
C1009  H1070   1.097   .     S
C1010  H1068   1.105   .     S
C1010  C1011   1.529   .     S
C1010  H1067   1.112   .     S
C1011  H1064   1.111   .     S
C1011  H1065   1.107   .     S
C1011  H1066   1.111   .     S
C1012  H1077   1.102   .     S
C1012  C1013   1.536   .     S
C1012  H1078   1.108   .     S
C1013  C1014   1.527   .     S
C1013  H1076   1.101   .     S
C1013  H1075   1.106   .     S
C1014  H1073   1.111   .     S
C1014  H1072   1.109   .     S
C1014  H1074   1.111   .     S
C1015  H1085   1.102   .     S
C1015  H1086   1.108   .     S
C1015  C1017   1.536   .     S
C1016  O1103   1.303   .     A
C1016  O1102   1.299   .     A
C1017  H1083   1.106   .     S
C1017  H1084   1.101   .     S
C1017  C1018   1.527   .     S
C1018  H1082   1.111   .     S
C1018  H1081   1.111   .     S
C1018  H1079   1.109   .     S
C1019  C1020   1.545   .     S
C1019  H1093   1.097   .     S
C1019  H1094   1.107   .     S
C1020  H1092   1.105   .     S
C1020  H1090   1.112   .     S
C1020  C1021   1.529   .     S
C1021  H1089   1.111   .     S
C1021  H1087   1.111   .     S
C1021  H1088   1.108   .     S
C1022  O1105   1.302   .     A
C1022  O1108   1.299   .     A
C1023  O1106   1.299   .     A
C1023  O1107   1.303   .     A
C1024  N1098   1.388   .     A
C1024  C484    1.437   1_455 S
H1033  C1158   1.111   1_455 S
H1044  C1160   1.106   .     S
H1052  C1163   1.106   1_455 S
H1053  C1163   1.101   1_455 S
H1056  C1168   1.111   .     S
N1097  C1124   1.388   1_455 S
N1097  Zn1117  2.060   .     S
N1098  Zn1118  2.060   .     S
N1098  C1123   1.383   1_455 S
N1099  Zn1119  2.060   .     S
N1100  Zn1120  2.060   .     S
O1101  Zn1117  1.983   .     S
O1102  Zn1120  1.983   .     S
O1103  Zn1119  1.991   .     S
O1104  Zn800   1.991   1_565 S
O1105  Zn800   1.983   1_565 S
O1106  Zn1119  1.983   .     S
O1107  Zn1120  1.991   .     S
O1108  Zn799   1.991   1_565 S
O1109  Zn1278  1.983   .     S
O1110  Zn1277  1.991   .     S
O1111  Zn1118  1.991   .     S
O1112  Zn1278  1.983   .     S
O1113  Zn1117  1.983   .     S
O1114  Zn1118  1.991   .     S
O1115  Zn1277  1.991   .     S
O1116  Zn799   1.983   1_565 S
Zn1117 O1270   1.991   1_455 S
Zn1117 O1275   1.991   1_455 S
Zn1118 O1272   1.983   1_455 S
Zn1118 O1269   1.983   1_455 S
C1121  C1150   1.411   .     S
C1121  O1271   1.299   .     A
C1121  O1261   1.302   .     A
C1122  C1159   1.518   .     S
C1122  N1257   1.383   .     A
C1122  C1603   1.431   .     S
C1123  C1162   1.518   .     S
C1123  C322    1.431   1_655 S
C1123  N1098   1.383   1_655 S
C1124  C1166   1.523   .     S
C1124  C1664   1.437   1_655 S
C1124  N1097   1.388   1_655 S
C1125  C1169   1.523   .     S
C1125  N1260   1.388   .     S
C1126  N939    1.383   1_565 A
C1126  C1172   1.518   .     S
C1126  C1767   1.431   .     S
C1127  C1175   1.518   .     S
C1127  N940    1.383   1_565 A
C1128  C1179   1.523   .     S
C1128  C1765   1.437   .     S
C1128  N1259   1.388   .     S
C1129  C1140   1.370   .     A
C1129  H1185   1.084   .     S
C1129  C1148   1.393   .     A
C1130  C1147   1.395   .     A
C1130  H1196   1.084   .     S
C1130  C1141   1.371   .     A
C1131  C1138   1.370   .     A
C1131  H1207   1.075   .     S
C1131  C1147   1.394   .     A
C1132  C1149   1.414   .     S
C1132  O1270   1.303   .     A
C1132  O1269   1.299   .     A
C1133  H1218   1.079   .     S
C1133  C1148   1.395   .     A
C1133  C1139   1.371   .     A
C1134  H1229   1.084   .     S
C1134  C1150   1.393   .     A
C1134  C1145   1.370   .     A
C1135  H1240   1.084   .     S
C1135  C1149   1.395   .     A
C1135  C1146   1.371   .     A
C1136  H1251   1.075   .     S
C1136  C1142   1.370   .     A
C1136  C1149   1.394   .     A
C1137  H1255   1.079   .     S
C1137  C1150   1.395   .     A
C1137  C1144   1.371   .     A
C1138  H1256   1.084   .     S
C1138  C1152   1.393   .     A
C1139  C1151   1.395   .     A
C1139  H1186   1.084   .     S
C1140  H1187   1.075   .     S
C1140  C1151   1.394   .     A
C1141  C1152   1.395   .     A
C1141  H1188   1.079   .     S
C1142  C1155   1.393   .     A
C1142  H1189   1.084   .     S
C1143  O1272   1.302   .     A
C1143  O1275   1.299   .     A
C1143  C1148   1.411   .     S
C1144  H1190   1.084   .     S
C1144  C1153   1.395   .     A
C1145  H1191   1.075   .     S
C1145  C1153   1.394   .     A
C1146  H1192   1.079   .     S
C1146  C1155   1.395   .     A
C1147  C1154   1.414   .     S
C1151  C1183   1.414   .     S
C1152  C1182   1.411   .     S
C1153  C1176   1.414   .     S
C1154  O1274   1.303   .     A
C1154  O1273   1.299   .     A
C1155  C1165   1.411   .     S
C1156  H1200   1.107   .     S
C1156  H1199   1.097   .     S
C1156  C1184   1.523   .     S
C1157  H1197   1.112   .     S
C1157  C1158   1.529   .     S
C1157  H1198   1.105   .     S
C1157  C996    1.545   1_655 S
C1158  H1195   1.111   .     S
C1158  H1194   1.107   .     S
C1158  H1033   1.111   1_655 S
C1159  H1208   1.108   .     S
C1159  C1160   1.536   .     S
C1159  H1206   1.102   .     S
C1160  H1205   1.101   .     S
C1160  C1161   1.527   .     S
C1161  H1203   1.111   .     S
C1161  H1201   1.109   .     S
C1161  H1202   1.111   .     S
C1162  H1215   1.108   .     S
C1162  C1163   1.536   .     S
C1162  H1214   1.102   .     S
C1163  C1164   1.527   .     S
C1163  H1053   1.101   1_655 S
C1163  H1052   1.106   1_655 S
C1164  H1211   1.111   .     S
C1164  H1210   1.111   .     S
C1164  H1209   1.109   .     S
C1165  O1264   1.299   .     A
C1165  O1276   1.302   .     A
C1166  H1222   1.097   .     S
C1166  H1223   1.107   .     S
C1166  C1007   1.545   1_655 S
C1167  H1221   1.105   .     S
C1167  H1220   1.112   .     S
C1167  C1168   1.529   .     S
C1168  H1217   1.107   .     S
C1168  H1219   1.111   .     S
C1169  H1231   1.107   .     S
C1169  C1170   1.545   .     S
C1169  H1230   1.097   .     S
C1170  H1228   1.105   .     S
C1170  C1171   1.529   .     S
C1170  H1227   1.112   .     S
C1171  H1224   1.111   .     S
C1171  H1225   1.107   .     S
C1171  H1226   1.111   .     S
C1172  H1237   1.102   .     S
C1172  C1173   1.536   .     S
C1172  H1238   1.108   .     S
C1173  C1174   1.527   .     S
C1173  H1236   1.101   .     S
C1173  H1235   1.106   .     S
C1174  H1233   1.111   .     S
C1174  H1232   1.109   .     S
C1174  H1234   1.111   .     S
C1175  H1245   1.102   .     S
C1175  H1246   1.108   .     S
C1175  C1177   1.536   .     S
C1176  O1263   1.303   .     A
C1176  O1262   1.299   .     A
C1177  H1243   1.106   .     S
C1177  H1244   1.101   .     S
C1177  C1178   1.527   .     S
C1178  H1242   1.111   .     S
C1178  H1241   1.111   .     S
C1178  H1239   1.109   .     S
C1179  C1180   1.545   .     S
C1179  H1253   1.097   .     S
C1179  H1254   1.107   .     S
C1180  H1252   1.105   .     S
C1180  H1250   1.112   .     S
C1180  C1181   1.529   .     S
C1181  H1249   1.111   .     S
C1181  H1247   1.111   .     S
C1181  H1248   1.108   .     S
C1182  O1265   1.302   .     A
C1182  O1268   1.299   .     A
C1183  O1266   1.299   .     A
C1183  O1267   1.303   .     A
C1184  N1258   1.388   .     A
H1204  C1000   1.106   1_655 S
H1216  C1008   1.111   1_655 S
N1257  Zn1277  2.060   .     S
N1258  Zn1278  2.060   .     S
N1259  Zn1279  2.060   .     S
N1260  Zn1280  2.060   .     S
O1261  Zn1277  1.983   .     S
O1262  Zn1280  1.983   .     S
O1263  Zn1279  1.991   .     S
O1264  Zn960   1.991   1_565 S
O1265  Zn960   1.983   1_565 S
O1266  Zn1279  1.983   .     S
O1267  Zn1280  1.991   .     S
O1268  Zn959   1.991   1_565 S
O1269  Zn1118  1.983   1_655 S
O1270  Zn1117  1.991   1_655 S
O1271  Zn1278  1.991   .     S
O1272  Zn1118  1.983   1_655 S
O1273  Zn1277  1.983   .     S
O1274  Zn1278  1.991   .     S
O1275  Zn1117  1.991   1_655 S
O1276  Zn959   1.983   1_565 S
C1281  C1310   1.411   .     S
C1281  O1431   1.299   .     A
C1281  O1421   1.302   .     A
C1282  C1319   1.518   .     S
C1282  N1417   1.383   .     A
C1282  C163    1.431   1_456 S
C1283  C1322   1.518   .     S
C1283  N1578   1.383   .     S
C1284  C1326   1.523   .     S
C1284  C224    1.437   1_556 S
C1284  N1577   1.388   .     S
C1285  C1329   1.523   .     S
C1285  N1420   1.388   .     S
C1286  N1739   1.383   .     A
C1286  C1332   1.518   .     S
C1286  C7      1.431   1_556 S
C1287  C1335   1.518   .     S
C1287  N1740   1.383   .     A
C1288  C1339   1.523   .     S
C1288  C5      1.437   1_556 S
C1288  N1419   1.388   .     S
C1289  C1300   1.370   .     A
C1289  H1345   1.084   .     S
C1289  C1308   1.393   .     A
C1290  C1307   1.395   .     A
C1290  H1356   1.084   .     S
C1290  C1301   1.371   .     A
C1291  C1298   1.370   .     A
C1291  H1367   1.075   .     S
C1291  C1307   1.394   .     A
C1292  C1309   1.414   .     S
C1292  O1430   1.303   .     A
C1292  O1429   1.299   .     A
C1293  H1378   1.079   .     S
C1293  C1308   1.395   .     A
C1293  C1299   1.371   .     A
C1294  H1389   1.084   .     S
C1294  C1310   1.393   .     A
C1294  C1305   1.370   .     A
C1295  H1400   1.084   .     S
C1295  C1309   1.395   .     A
C1295  C1306   1.371   .     A
C1296  H1411   1.075   .     S
C1296  C1302   1.370   .     A
C1296  C1309   1.394   .     A
C1297  H1415   1.079   .     S
C1297  C1310   1.395   .     A
C1297  C1304   1.371   .     A
C1298  H1416   1.084   .     S
C1298  C1312   1.393   .     A
C1299  C1311   1.395   .     A
C1299  H1346   1.084   .     S
C1300  H1347   1.075   .     S
C1300  C1311   1.394   .     A
C1301  C1312   1.395   .     A
C1301  H1348   1.079   .     S
C1302  C1315   1.393   .     A
C1302  H1349   1.084   .     S
C1303  O1432   1.302   .     A
C1303  O1435   1.299   .     A
C1303  C1308   1.411   .     S
C1304  H1350   1.084   .     S
C1304  C1313   1.395   .     A
C1305  H1351   1.075   .     S
C1305  C1313   1.394   .     A
C1306  H1352   1.079   .     S
C1306  C1315   1.395   .     A
C1307  C1314   1.414   .     S
C1311  C1343   1.414   .     S
C1312  C1342   1.411   .     S
C1313  C1336   1.414   .     S
C1314  O1434   1.303   .     A
C1314  O1433   1.299   .     A
C1315  C1325   1.411   .     S
C1316  H1360   1.107   .     S
C1316  H1359   1.097   .     S
C1316  C1344   1.523   .     S
C1316  C1477   1.545   1_455 S
C1317  H1357   1.112   .     S
C1317  C1318   1.529   .     S
C1317  H1358   1.105   .     S
C1317  C1476   1.545   .     S
C1318  H1355   1.111   .     S
C1318  H1354   1.107   .     S
C1318  H1513   1.111   .     S
C1319  H1368   1.108   .     S
C1319  C1320   1.536   .     S
C1319  H1366   1.102   .     S
C1320  H1365   1.101   .     S
C1320  C1321   1.527   .     S
C1320  H1524   1.106   1_455 S
C1321  H1363   1.111   .     S
C1321  H1361   1.109   .     S
C1321  H1362   1.111   .     S
C1322  H1375   1.108   .     S
C1322  C1323   1.536   .     S
C1322  H1374   1.102   .     S
C1323  C1324   1.527   .     S
C1323  H1533   1.101   .     S
C1323  H1532   1.106   .     S
C1324  H1371   1.111   .     S
C1324  H1370   1.111   .     S
C1324  H1369   1.109   .     S
C1325  O1424   1.299   .     A
C1325  O1436   1.302   .     A
C1326  H1382   1.097   .     S
C1326  H1383   1.107   .     S
C1326  C1487   1.545   .     S
C1327  H1381   1.105   .     S
C1327  H1380   1.112   .     S
C1327  C1328   1.529   .     S
C1327  C1486   1.545   1_455 S
C1328  H1377   1.107   .     S
C1328  H1379   1.111   .     S
C1328  H1536   1.111   1_455 S
C1329  H1391   1.107   .     S
C1329  C1330   1.545   .     S
C1329  H1390   1.097   .     S
C1330  H1388   1.105   .     S
C1330  C1331   1.529   .     S
C1330  H1387   1.112   .     S
C1331  H1384   1.111   .     S
C1331  H1385   1.107   .     S
C1331  H1386   1.111   .     S
C1332  H1397   1.102   .     S
C1332  C1333   1.536   .     S
C1332  H1398   1.108   .     S
C1333  C1334   1.527   .     S
C1333  H1396   1.101   .     S
C1333  H1395   1.106   .     S
C1334  H1393   1.111   .     S
C1334  H1392   1.109   .     S
C1334  H1394   1.111   .     S
C1335  H1405   1.102   .     S
C1335  H1406   1.108   .     S
C1335  C1337   1.536   .     S
C1336  O1423   1.303   .     A
C1336  O1422   1.299   .     A
C1337  H1403   1.106   .     S
C1337  H1404   1.101   .     S
C1337  C1338   1.527   .     S
C1338  H1402   1.111   .     S
C1338  H1401   1.111   .     S
C1338  H1399   1.109   .     S
C1339  C1340   1.545   .     S
C1339  H1413   1.097   .     S
C1339  H1414   1.107   .     S
C1340  H1412   1.105   .     S
C1340  H1410   1.112   .     S
C1340  C1341   1.529   .     S
C1341  H1409   1.111   .     S
C1341  H1407   1.111   .     S
C1341  H1408   1.108   .     S
C1342  O1425   1.302   .     A
C1342  O1428   1.299   .     A
C1343  O1426   1.299   .     A
C1343  O1427   1.303   .     A
C1344  N1418   1.388   .     A
C1344  C804    1.437   1_455 S
H1353  C1478   1.111   1_455 S
H1364  C1480   1.106   .     S
H1372  C1483   1.106   1_455 S
H1373  C1483   1.101   1_455 S
H1376  C1488   1.111   .     S
N1417  C1444   1.388   1_455 S
N1417  Zn1437  2.060   .     S
N1418  Zn1438  2.060   .     S
N1418  C1443   1.383   1_455 S
N1419  C1606   1.383   1_545 A
N1419  Zn1439  2.060   .     S
N1420  C1607   1.383   1_545 A
N1420  Zn1440  2.060   .     S
O1421  Zn1437  1.983   .     S
O1422  Zn1440  1.983   .     S
O1423  Zn1439  1.991   .     S
O1424  Zn1760  1.991   .     S
O1425  Zn1760  1.983   .     S
O1426  Zn1439  1.983   .     S
O1427  Zn1440  1.991   .     S
O1428  Zn1759  1.991   .     S
O1429  Zn1598  1.983   .     S
O1430  Zn1597  1.991   .     S
O1431  Zn1438  1.991   .     S
O1432  Zn1598  1.983   .     S
O1433  Zn1437  1.983   .     S
O1434  Zn1438  1.991   .     S
O1435  Zn1597  1.991   .     S
O1436  Zn1759  1.983   .     S
Zn1437 O1590   1.991   1_455 S
Zn1437 O1595   1.991   1_455 S
Zn1438 O1592   1.983   1_455 S
Zn1438 O1589   1.983   1_455 S
Zn1439 O1748   1.991   1_545 S
Zn1439 O1756   1.983   1_545 S
Zn1440 O1744   1.991   1_545 S
Zn1440 O1745   1.983   1_545 S
C1441  C1470   1.411   .     S
C1441  O1591   1.299   .     A
C1441  O1581   1.302   .     A
C1442  C1479   1.518   .     S
C1442  N1577   1.383   .     A
C1442  C3      1.431   1_556 S
C1443  C1482   1.518   .     S
C1443  C642    1.431   1_655 S
C1443  N1418   1.383   1_655 S
C1444  C1486   1.523   .     S
C1444  C64     1.437   1_656 S
C1444  N1417   1.388   1_655 S
C1445  C1489   1.523   .     S
C1445  N1580   1.388   .     S
C1446  N1899   1.383   .     A
C1446  C1492   1.518   .     S
C1446  C167    1.431   1_556 S
C1447  C1495   1.518   .     S
C1447  N1900   1.383   .     A
C1448  C1499   1.523   .     S
C1448  C165    1.437   1_556 S
C1448  N1579   1.388   .     S
C1449  C1460   1.370   .     A
C1449  H1505   1.084   .     S
C1449  C1468   1.393   .     A
C1450  C1467   1.395   .     A
C1450  H1516   1.084   .     S
C1450  C1461   1.371   .     A
C1451  C1458   1.370   .     A
C1451  H1527   1.075   .     S
C1451  C1467   1.394   .     A
C1452  C1469   1.414   .     S
C1452  O1590   1.303   .     A
C1452  O1589   1.299   .     A
C1453  H1538   1.079   .     S
C1453  C1468   1.395   .     A
C1453  C1459   1.371   .     A
C1454  H1549   1.084   .     S
C1454  C1470   1.393   .     A
C1454  C1465   1.370   .     A
C1455  H1560   1.084   .     S
C1455  C1469   1.395   .     A
C1455  C1466   1.371   .     A
C1456  H1571   1.075   .     S
C1456  C1462   1.370   .     A
C1456  C1469   1.394   .     A
C1457  H1575   1.079   .     S
C1457  C1470   1.395   .     A
C1457  C1464   1.371   .     A
C1458  H1576   1.084   .     S
C1458  C1472   1.393   .     A
C1459  C1471   1.395   .     A
C1459  H1506   1.084   .     S
C1460  H1507   1.075   .     S
C1460  C1471   1.394   .     A
C1461  C1472   1.395   .     A
C1461  H1508   1.079   .     S
C1462  C1475   1.393   .     A
C1462  H1509   1.084   .     S
C1463  O1592   1.302   .     A
C1463  O1595   1.299   .     A
C1463  C1468   1.411   .     S
C1464  H1510   1.084   .     S
C1464  C1473   1.395   .     A
C1465  H1511   1.075   .     S
C1465  C1473   1.394   .     A
C1466  H1512   1.079   .     S
C1466  C1475   1.395   .     A
C1467  C1474   1.414   .     S
C1471  C1503   1.414   .     S
C1472  C1502   1.411   .     S
C1473  C1496   1.414   .     S
C1474  O1594   1.303   .     A
C1474  O1593   1.299   .     A
C1475  C1485   1.411   .     S
C1476  H1520   1.107   .     S
C1476  H1519   1.097   .     S
C1476  C1504   1.523   .     S
C1477  H1517   1.112   .     S
C1477  C1478   1.529   .     S
C1477  H1518   1.105   .     S
C1477  C1316   1.545   1_655 S
C1478  H1515   1.111   .     S
C1478  H1514   1.107   .     S
C1478  H1353   1.111   1_655 S
C1479  H1528   1.108   .     S
C1479  C1480   1.536   .     S
C1479  H1526   1.102   .     S
C1480  H1525   1.101   .     S
C1480  C1481   1.527   .     S
C1481  H1523   1.111   .     S
C1481  H1521   1.109   .     S
C1481  H1522   1.111   .     S
C1482  H1535   1.108   .     S
C1482  C1483   1.536   .     S
C1482  H1534   1.102   .     S
C1483  C1484   1.527   .     S
C1483  H1373   1.101   1_655 S
C1483  H1372   1.106   1_655 S
C1484  H1531   1.111   .     S
C1484  H1530   1.111   .     S
C1484  H1529   1.109   .     S
C1485  O1584   1.299   .     A
C1485  O1596   1.302   .     A
C1486  H1542   1.097   .     S
C1486  H1543   1.107   .     S
C1486  C1327   1.545   1_655 S
C1487  H1541   1.105   .     S
C1487  H1540   1.112   .     S
C1487  C1488   1.529   .     S
C1488  H1537   1.107   .     S
C1488  H1539   1.111   .     S
C1489  H1551   1.107   .     S
C1489  C1490   1.545   .     S
C1489  H1550   1.097   .     S
C1490  H1548   1.105   .     S
C1490  C1491   1.529   .     S
C1490  H1547   1.112   .     S
C1491  H1544   1.111   .     S
C1491  H1545   1.107   .     S
C1491  H1546   1.111   .     S
C1492  H1557   1.102   .     S
C1492  C1493   1.536   .     S
C1492  H1558   1.108   .     S
C1493  C1494   1.527   .     S
C1493  H1556   1.101   .     S
C1493  H1555   1.106   .     S
C1494  H1553   1.111   .     S
C1494  H1552   1.109   .     S
C1494  H1554   1.111   .     S
C1495  H1565   1.102   .     S
C1495  H1566   1.108   .     S
C1495  C1497   1.536   .     S
C1496  O1583   1.303   .     A
C1496  O1582   1.299   .     A
C1497  H1563   1.106   .     S
C1497  H1564   1.101   .     S
C1497  C1498   1.527   .     S
C1498  H1562   1.111   .     S
C1498  H1561   1.111   .     S
C1498  H1559   1.109   .     S
C1499  C1500   1.545   .     S
C1499  H1573   1.097   .     S
C1499  H1574   1.107   .     S
C1500  H1572   1.105   .     S
C1500  H1570   1.112   .     S
C1500  C1501   1.529   .     S
C1501  H1569   1.111   .     S
C1501  H1567   1.111   .     S
C1501  H1568   1.108   .     S
C1502  O1585   1.302   .     A
C1502  O1588   1.299   .     A
C1503  O1586   1.299   .     A
C1503  O1587   1.303   .     A
C1504  N1578   1.388   .     A
H1524  C1320   1.106   1_655 S
H1536  C1328   1.111   1_655 S
N1577  Zn1597  2.060   .     S
N1578  Zn1598  2.060   .     S
N1579  C1766   1.383   1_545 A
N1579  Zn1599  2.060   .     S
N1580  C1767   1.383   1_545 A
N1580  Zn1600  2.060   .     S
O1581  Zn1597  1.983   .     S
O1582  Zn1600  1.983   .     S
O1583  Zn1599  1.991   .     S
O1584  Zn1920  1.991   .     S
O1585  Zn1920  1.983   .     S
O1586  Zn1599  1.983   .     S
O1587  Zn1600  1.991   .     S
O1588  Zn1919  1.991   .     S
O1589  Zn1438  1.983   1_655 S
O1590  Zn1437  1.991   1_655 S
O1591  Zn1598  1.991   .     S
O1592  Zn1438  1.983   1_655 S
O1593  Zn1597  1.983   .     S
O1594  Zn1598  1.991   .     S
O1595  Zn1437  1.991   1_655 S
O1596  Zn1919  1.983   .     S
Zn1599 O1908   1.991   1_545 S
Zn1599 O1916   1.983   1_545 S
Zn1600 O1904   1.991   1_545 S
Zn1600 O1905   1.983   1_545 S
C1601  C1630   1.411   .     S
C1601  O1751   1.299   .     A
C1601  O1741   1.302   .     A
C1602  C1639   1.518   .     S
C1602  N1737   1.383   .     A
C1602  C483    1.431   1_456 S
C1603  C1642   1.518   .     S
C1603  N1898   1.383   .     S
C1604  C1646   1.523   .     S
C1604  C544    1.437   1_556 S
C1604  N1897   1.388   .     S
C1605  C1649   1.523   .     S
C1605  N1740   1.388   .     S
C1606  N1419   1.383   1_565 A
C1606  C1652   1.518   .     S
C1606  C327    1.431   1_556 S
C1607  C1655   1.518   .     S
C1607  N1420   1.383   1_565 A
C1608  C1659   1.523   .     S
C1608  C325    1.437   1_556 S
C1608  N1739   1.388   .     S
C1609  C1620   1.370   .     A
C1609  H1665   1.084   .     S
C1609  C1628   1.393   .     A
C1610  C1627   1.395   .     A
C1610  H1676   1.084   .     S
C1610  C1621   1.371   .     A
C1611  C1618   1.370   .     A
C1611  H1687   1.075   .     S
C1611  C1627   1.394   .     A
C1612  C1629   1.414   .     S
C1612  O1750   1.303   .     A
C1612  O1749   1.299   .     A
C1613  H1698   1.079   .     S
C1613  C1628   1.395   .     A
C1613  C1619   1.371   .     A
C1614  H1709   1.084   .     S
C1614  C1630   1.393   .     A
C1614  C1625   1.370   .     A
C1615  H1720   1.084   .     S
C1615  C1629   1.395   .     A
C1615  C1626   1.371   .     A
C1616  H1731   1.075   .     S
C1616  C1622   1.370   .     A
C1616  C1629   1.394   .     A
C1617  H1735   1.079   .     S
C1617  C1630   1.395   .     A
C1617  C1624   1.371   .     A
C1618  H1736   1.084   .     S
C1618  C1632   1.393   .     A
C1619  C1631   1.395   .     A
C1619  H1666   1.084   .     S
C1620  H1667   1.075   .     S
C1620  C1631   1.394   .     A
C1621  C1632   1.395   .     A
C1621  H1668   1.079   .     S
C1622  C1635   1.393   .     A
C1622  H1669   1.084   .     S
C1623  O1752   1.302   .     A
C1623  O1755   1.299   .     A
C1623  C1628   1.411   .     S
C1624  H1670   1.084   .     S
C1624  C1633   1.395   .     A
C1625  H1671   1.075   .     S
C1625  C1633   1.394   .     A
C1626  H1672   1.079   .     S
C1626  C1635   1.395   .     A
C1627  C1634   1.414   .     S
C1631  C1663   1.414   .     S
C1632  C1662   1.411   .     S
C1633  C1656   1.414   .     S
C1634  O1754   1.303   .     A
C1634  O1753   1.299   .     A
C1635  C1645   1.411   .     S
C1636  H1680   1.107   .     S
C1636  H1679   1.097   .     S
C1636  C1664   1.523   .     S
C1636  C1797   1.545   1_455 S
C1637  H1677   1.112   .     S
C1637  C1638   1.529   .     S
C1637  H1678   1.105   .     S
C1637  C1796   1.545   .     S
C1638  H1675   1.111   .     S
C1638  H1674   1.107   .     S
C1638  H1833   1.111   .     S
C1639  H1688   1.108   .     S
C1639  C1640   1.536   .     S
C1639  H1686   1.102   .     S
C1640  H1685   1.101   .     S
C1640  C1641   1.527   .     S
C1640  H1844   1.106   1_455 S
C1641  H1683   1.111   .     S
C1641  H1681   1.109   .     S
C1641  H1682   1.111   .     S
C1642  H1695   1.108   .     S
C1642  C1643   1.536   .     S
C1642  H1694   1.102   .     S
C1643  C1644   1.527   .     S
C1643  H1853   1.101   .     S
C1643  H1852   1.106   .     S
C1644  H1691   1.111   .     S
C1644  H1690   1.111   .     S
C1644  H1689   1.109   .     S
C1645  O1744   1.299   .     A
C1645  O1756   1.302   .     A
C1646  H1702   1.097   .     S
C1646  H1703   1.107   .     S
C1646  C1807   1.545   .     S
C1647  H1701   1.105   .     S
C1647  H1700   1.112   .     S
C1647  C1648   1.529   .     S
C1647  C1806   1.545   1_455 S
C1648  H1697   1.107   .     S
C1648  H1699   1.111   .     S
C1648  H1856   1.111   1_455 S
C1649  H1711   1.107   .     S
C1649  C1650   1.545   .     S
C1649  H1710   1.097   .     S
C1650  H1708   1.105   .     S
C1650  C1651   1.529   .     S
C1650  H1707   1.112   .     S
C1651  H1704   1.111   .     S
C1651  H1705   1.107   .     S
C1651  H1706   1.111   .     S
C1652  H1717   1.102   .     S
C1652  C1653   1.536   .     S
C1652  H1718   1.108   .     S
C1653  C1654   1.527   .     S
C1653  H1716   1.101   .     S
C1653  H1715   1.106   .     S
C1654  H1713   1.111   .     S
C1654  H1712   1.109   .     S
C1654  H1714   1.111   .     S
C1655  H1725   1.102   .     S
C1655  H1726   1.108   .     S
C1655  C1657   1.536   .     S
C1656  O1743   1.303   .     A
C1656  O1742   1.299   .     A
C1657  H1723   1.106   .     S
C1657  H1724   1.101   .     S
C1657  C1658   1.527   .     S
C1658  H1722   1.111   .     S
C1658  H1721   1.111   .     S
C1658  H1719   1.109   .     S
C1659  C1660   1.545   .     S
C1659  H1733   1.097   .     S
C1659  H1734   1.107   .     S
C1660  H1732   1.105   .     S
C1660  H1730   1.112   .     S
C1660  C1661   1.529   .     S
C1661  H1729   1.111   .     S
C1661  H1727   1.111   .     S
C1661  H1728   1.108   .     S
C1662  O1745   1.302   .     A
C1662  O1748   1.299   .     A
C1663  O1746   1.299   .     A
C1663  O1747   1.303   .     A
C1664  N1738   1.388   .     A
C1664  C1124   1.437   1_455 S
H1673  C1798   1.111   1_455 S
H1684  C1800   1.106   .     S
H1692  C1803   1.106   1_455 S
H1693  C1803   1.101   1_455 S
H1696  C1808   1.111   .     S
N1737  C1764   1.388   1_455 S
N1737  Zn1757  2.060   .     S
N1738  Zn1758  2.060   .     S
N1738  C1763   1.383   1_455 S
N1739  Zn1759  2.060   .     S
N1740  Zn1760  2.060   .     S
O1741  Zn1757  1.983   .     S
O1742  Zn1760  1.983   .     S
O1743  Zn1759  1.991   .     S
O1744  Zn1440  1.991   1_565 S
O1745  Zn1440  1.983   1_565 S
O1746  Zn1759  1.983   .     S
O1747  Zn1760  1.991   .     S
O1748  Zn1439  1.991   1_565 S
O1749  Zn1918  1.983   .     S
O1750  Zn1917  1.991   .     S
O1751  Zn1758  1.991   .     S
O1752  Zn1918  1.983   .     S
O1753  Zn1757  1.983   .     S
O1754  Zn1758  1.991   .     S
O1755  Zn1917  1.991   .     S
O1756  Zn1439  1.983   1_565 S
Zn1757 O1910   1.991   1_455 S
Zn1757 O1915   1.991   1_455 S
Zn1758 O1912   1.983   1_455 S
Zn1758 O1909   1.983   1_455 S
C1761  C1790   1.411   .     S
C1761  O1911   1.299   .     A
C1761  O1901   1.302   .     A
C1762  C1799   1.518   .     S
C1762  N1897   1.383   .     A
C1762  C323    1.431   1_556 S
C1763  C1802   1.518   .     S
C1763  C962    1.431   1_655 S
C1763  N1738   1.383   1_655 S
C1764  C1806   1.523   .     S
C1764  C384    1.437   1_656 S
C1764  N1737   1.388   1_655 S
C1765  C1809   1.523   .     S
C1765  N1900   1.388   .     S
C1766  N1579   1.383   1_565 A
C1766  C1812   1.518   .     S
C1766  C487    1.431   1_556 S
C1767  C1815   1.518   .     S
C1767  N1580   1.383   1_565 A
C1768  C1819   1.523   .     S
C1768  C485    1.437   1_556 S
C1768  N1899   1.388   .     S
C1769  C1780   1.370   .     A
C1769  H1825   1.084   .     S
C1769  C1788   1.393   .     A
C1770  C1787   1.395   .     A
C1770  H1836   1.084   .     S
C1770  C1781   1.371   .     A
C1771  C1778   1.370   .     A
C1771  H1847   1.075   .     S
C1771  C1787   1.394   .     A
C1772  C1789   1.414   .     S
C1772  O1910   1.303   .     A
C1772  O1909   1.299   .     A
C1773  H1858   1.079   .     S
C1773  C1788   1.395   .     A
C1773  C1779   1.371   .     A
C1774  H1869   1.084   .     S
C1774  C1790   1.393   .     A
C1774  C1785   1.370   .     A
C1775  H1880   1.084   .     S
C1775  C1789   1.395   .     A
C1775  C1786   1.371   .     A
C1776  H1891   1.075   .     S
C1776  C1782   1.370   .     A
C1776  C1789   1.394   .     A
C1777  H1895   1.079   .     S
C1777  C1790   1.395   .     A
C1777  C1784   1.371   .     A
C1778  H1896   1.084   .     S
C1778  C1792   1.393   .     A
C1779  C1791   1.395   .     A
C1779  H1826   1.084   .     S
C1780  H1827   1.075   .     S
C1780  C1791   1.394   .     A
C1781  C1792   1.395   .     A
C1781  H1828   1.079   .     S
C1782  C1795   1.393   .     A
C1782  H1829   1.084   .     S
C1783  O1912   1.302   .     A
C1783  O1915   1.299   .     A
C1783  C1788   1.411   .     S
C1784  H1830   1.084   .     S
C1784  C1793   1.395   .     A
C1785  H1831   1.075   .     S
C1785  C1793   1.394   .     A
C1786  H1832   1.079   .     S
C1786  C1795   1.395   .     A
C1787  C1794   1.414   .     S
C1791  C1823   1.414   .     S
C1792  C1822   1.411   .     S
C1793  C1816   1.414   .     S
C1794  O1914   1.303   .     A
C1794  O1913   1.299   .     A
C1795  C1805   1.411   .     S
C1796  H1840   1.107   .     S
C1796  H1839   1.097   .     S
C1796  C1824   1.523   .     S
C1797  H1837   1.112   .     S
C1797  C1798   1.529   .     S
C1797  H1838   1.105   .     S
C1797  C1636   1.545   1_655 S
C1798  H1835   1.111   .     S
C1798  H1834   1.107   .     S
C1798  H1673   1.111   1_655 S
C1799  H1848   1.108   .     S
C1799  C1800   1.536   .     S
C1799  H1846   1.102   .     S
C1800  H1845   1.101   .     S
C1800  C1801   1.527   .     S
C1801  H1843   1.111   .     S
C1801  H1841   1.109   .     S
C1801  H1842   1.111   .     S
C1802  H1855   1.108   .     S
C1802  C1803   1.536   .     S
C1802  H1854   1.102   .     S
C1803  C1804   1.527   .     S
C1803  H1693   1.101   1_655 S
C1803  H1692   1.106   1_655 S
C1804  H1851   1.111   .     S
C1804  H1850   1.111   .     S
C1804  H1849   1.109   .     S
C1805  O1904   1.299   .     A
C1805  O1916   1.302   .     A
C1806  H1862   1.097   .     S
C1806  H1863   1.107   .     S
C1806  C1647   1.545   1_655 S
C1807  H1861   1.105   .     S
C1807  H1860   1.112   .     S
C1807  C1808   1.529   .     S
C1808  H1857   1.107   .     S
C1808  H1859   1.111   .     S
C1809  H1871   1.107   .     S
C1809  C1810   1.545   .     S
C1809  H1870   1.097   .     S
C1810  H1868   1.105   .     S
C1810  C1811   1.529   .     S
C1810  H1867   1.112   .     S
C1811  H1864   1.111   .     S
C1811  H1865   1.107   .     S
C1811  H1866   1.111   .     S
C1812  H1877   1.102   .     S
C1812  C1813   1.536   .     S
C1812  H1878   1.108   .     S
C1813  C1814   1.527   .     S
C1813  H1876   1.101   .     S
C1813  H1875   1.106   .     S
C1814  H1873   1.111   .     S
C1814  H1872   1.109   .     S
C1814  H1874   1.111   .     S
C1815  H1885   1.102   .     S
C1815  H1886   1.108   .     S
C1815  C1817   1.536   .     S
C1816  O1903   1.303   .     A
C1816  O1902   1.299   .     A
C1817  H1883   1.106   .     S
C1817  H1884   1.101   .     S
C1817  C1818   1.527   .     S
C1818  H1882   1.111   .     S
C1818  H1881   1.111   .     S
C1818  H1879   1.109   .     S
C1819  C1820   1.545   .     S
C1819  H1893   1.097   .     S
C1819  H1894   1.107   .     S
C1820  H1892   1.105   .     S
C1820  H1890   1.112   .     S
C1820  C1821   1.529   .     S
C1821  H1889   1.111   .     S
C1821  H1887   1.111   .     S
C1821  H1888   1.108   .     S
C1822  O1905   1.302   .     A
C1822  O1908   1.299   .     A
C1823  O1906   1.299   .     A
C1823  O1907   1.303   .     A
C1824  N1898   1.388   .     A
H1844  C1640   1.106   1_655 S
H1856  C1648   1.111   1_655 S
N1897  Zn1917  2.060   .     S
N1898  Zn1918  2.060   .     S
N1899  Zn1919  2.060   .     S
N1900  Zn1920  2.060   .     S
O1901  Zn1917  1.983   .     S
O1902  Zn1920  1.983   .     S
O1903  Zn1919  1.991   .     S
O1904  Zn1600  1.991   1_565 S
O1905  Zn1600  1.983   1_565 S
O1906  Zn1919  1.983   .     S
O1907  Zn1920  1.991   .     S
O1908  Zn1599  1.991   1_565 S
O1909  Zn1758  1.983   1_655 S
O1910  Zn1757  1.991   1_655 S
O1911  Zn1918  1.991   .     S
O1912  Zn1758  1.983   1_655 S
O1913  Zn1917  1.983   .     S
O1914  Zn1918  1.991   .     S
O1915  Zn1757  1.991   1_655 S
O1916  Zn1599  1.983   1_565 S
