data_str_m3_o1_o16_pcu_sym.212
_audit_creation_date              2020-01-03
_audit_creation_method            'Materials Studio'
_symmetry_space_group_name_H-M    'P1'
_symmetry_Int_Tables_number       1
_symmetry_cell_setting            triclinic
loop_
_symmetry_equiv_pos_as_xyz
  x,y,z
_cell_length_a                    29.5539
_cell_length_b                    32.0425
_cell_length_c                    26.2739
_cell_angle_alpha                 90.0407
_cell_angle_beta                  69.9588
_cell_angle_gamma                 89.8074
loop_
_atom_site_label
_atom_site_type_symbol
_atom_site_fract_x
_atom_site_fract_y
_atom_site_fract_z
_atom_site_U_iso_or_equiv
_atom_site_adp_type
_atom_site_occupancy
C1     C     0.16653   0.24661   0.25028   0.00000  Uiso   1.00
C2     C     0.14345   0.17373   0.49240   0.00000  Uiso   1.00
C3     C     0.15265   0.18599   0.43838   0.00000  Uiso   1.00
C4     C     0.18013   0.17967   0.01488   0.00000  Uiso   1.00
C5     C     0.22167   0.20346   0.48684   0.00000  Uiso   1.00
C6     C     0.22647   0.22067   0.43662   0.00000  Uiso   1.00
C7     C     0.19227   0.21220   0.41272   0.00000  Uiso   1.00
C8     C     0.17689   0.16201   0.06429   0.00000  Uiso   1.00
C9     C     0.25070   0.19565   0.06209   0.00000  Uiso   1.00
C10    C     0.12230   0.17113   0.41112   0.00000  Uiso   1.00
C11    C     0.19153   0.31102   0.28015   0.00000  Uiso   1.00
C12    C     0.13992   0.16865   0.35211   0.00000  Uiso   1.00
C13    C     0.19140   0.02060   0.28167   0.00000  Uiso   1.00
C14    C     0.16593   0.04242   0.25341   0.00000  Uiso   1.00
C15    C     0.13976   0.02159   0.22590   0.00000  Uiso   1.00
C16    C     0.13960   0.31218   0.22527   0.00000  Uiso   1.00
C17    C     0.16596   0.29062   0.25178   0.00000  Uiso   1.00
C18    C     0.31849   0.13793   0.22037   0.00000  Uiso   1.00
C19    C     0.03311   0.13797   0.22033   0.00000  Uiso   1.00
C20    C     0.01485   0.19540   0.27962   0.00000  Uiso   1.00
C21    C     0.30031   0.19547   0.27948   0.00000  Uiso   1.00
C22    C     0.16634   0.08668   0.25141   0.00000  Uiso   1.00
C23    C     0.19338   0.16678   0.14785   0.00000  Uiso   1.00
C24    C     0.25725   0.21041   0.01015   0.00000  Uiso   1.00
C25    C     0.20948   0.17254   0.08964   0.00000  Uiso   1.00
C26    C     0.07777   0.15318   0.44042   0.00000  Uiso   1.00
C27    C     0.06505   0.14715   0.49587   0.00000  Uiso   1.00
C28    C     0.09794   0.15614   0.02163   0.00000  Uiso   1.00
H29    H     0.27623   0.20409   0.08164   0.00000  Uiso   1.00
H30    H     0.12021   0.03836   0.20411   0.00000  Uiso   1.00
H31    H     0.11987   0.29600   0.20329   0.00000  Uiso   1.00
H32    H     0.30767   0.11496   0.19663   0.00000  Uiso   1.00
H33    H     0.05858   0.11504   0.19652   0.00000  Uiso   1.00
H34    H     0.02567   0.21839   0.30334   0.00000  Uiso   1.00
H35    H     0.27506   0.21867   0.30281   0.00000  Uiso   1.00
H36    H     0.25700   0.24018   0.41543   0.00000  Uiso   1.00
H37    H     0.28892   0.22875   0.48924   0.00000  Uiso   1.00
H38    H     0.14785   0.14124   0.08534   0.00000  Uiso   1.00
H39    H     0.05353   0.14257   0.42021   0.00000  Uiso   1.00
H40    H     0.08632   0.15005   0.06456   0.00000  Uiso   1.00
H41    H     0.03045   0.13370   0.01857   0.00000  Uiso   1.00
H42    H     0.19676   0.22680   0.37421   0.00000  Uiso   1.00
H43    H     0.21082   0.29348   0.30165   0.00000  Uiso   1.00
N44    N     0.04760   0.16668   0.25001   0.00000  Uiso   1.00
N45    N     0.28573   0.16665   0.25000   0.00000  Uiso   1.00
O46    O     0.12846   0.22775   0.25000   0.00000  Uiso   1.00
O47    O     0.20490   0.22774   0.25000   0.00000  Uiso   1.00
O48    O     0.10947   0.16666   0.32681   0.00000  Uiso   1.00
O49    O     0.18591   0.16665   0.32681   0.00000  Uiso   1.00
O50    O     0.12843   0.10559   0.24999   0.00000  Uiso   1.00
O51    O     0.20488   0.10558   0.24999   0.00000  Uiso   1.00
O52    O     0.14742   0.16668   0.17319   0.00000  Uiso   1.00
O53    O     0.22387   0.16667   0.17319   0.00000  Uiso   1.00
Zn54   Zn    0.11562   0.16667   0.25000   0.00000  Uiso   1.00
Zn55   Zn    0.21771   0.16666   0.25000   0.00000  Uiso   1.00
C56    C     0.21608   0.04110   0.31370   0.00000  Uiso   1.00
N57    N     0.23581   0.05749   0.33932   0.00000  Uiso   1.00
C58    C     0.49986   0.24661   0.25028   0.00000  Uiso   1.00
C59    C     0.47678   0.17373   0.49240   0.00000  Uiso   1.00
C60    C     0.48599   0.18599   0.43838   0.00000  Uiso   1.00
C61    C     0.51346   0.17967   0.01488   0.00000  Uiso   1.00
C62    C     0.55500   0.20346   0.48684   0.00000  Uiso   1.00
C63    C     0.55980   0.22067   0.43662   0.00000  Uiso   1.00
C64    C     0.52560   0.21220   0.41272   0.00000  Uiso   1.00
C65    C     0.51023   0.16201   0.06429   0.00000  Uiso   1.00
C66    C     0.58403   0.19565   0.06209   0.00000  Uiso   1.00
C67    C     0.45563   0.17113   0.41112   0.00000  Uiso   1.00
C68    C     0.52487   0.31102   0.28015   0.00000  Uiso   1.00
C69    C     0.47325   0.16865   0.35211   0.00000  Uiso   1.00
C70    C     0.52473   0.02060   0.28167   0.00000  Uiso   1.00
C71    C     0.49927   0.04242   0.25341   0.00000  Uiso   1.00
C72    C     0.47309   0.02159   0.22590   0.00000  Uiso   1.00
C73    C     0.47293   0.31218   0.22527   0.00000  Uiso   1.00
C74    C     0.49929   0.29062   0.25178   0.00000  Uiso   1.00
C75    C     0.65182   0.13793   0.22037   0.00000  Uiso   1.00
C76    C     0.36644   0.13797   0.22033   0.00000  Uiso   1.00
C77    C     0.34818   0.19540   0.27962   0.00000  Uiso   1.00
C78    C     0.63364   0.19547   0.27948   0.00000  Uiso   1.00
C79    C     0.49967   0.08668   0.25141   0.00000  Uiso   1.00
C80    C     0.52671   0.16678   0.14785   0.00000  Uiso   1.00
C81    C     0.59058   0.21041   0.01015   0.00000  Uiso   1.00
C82    C     0.54282   0.17254   0.08964   0.00000  Uiso   1.00
C83    C     0.41111   0.15318   0.44042   0.00000  Uiso   1.00
C84    C     0.39839   0.14715   0.49587   0.00000  Uiso   1.00
C85    C     0.43127   0.15614   0.02163   0.00000  Uiso   1.00
H86    H     0.60957   0.20409   0.08164   0.00000  Uiso   1.00
H87    H     0.45354   0.03836   0.20411   0.00000  Uiso   1.00
H88    H     0.45320   0.29600   0.20329   0.00000  Uiso   1.00
H89    H     0.64100   0.11496   0.19663   0.00000  Uiso   1.00
H90    H     0.39191   0.11504   0.19652   0.00000  Uiso   1.00
H91    H     0.35900   0.21839   0.30334   0.00000  Uiso   1.00
H92    H     0.60839   0.21867   0.30281   0.00000  Uiso   1.00
H93    H     0.59033   0.24018   0.41543   0.00000  Uiso   1.00
H94    H     0.62225   0.22875   0.48924   0.00000  Uiso   1.00
H95    H     0.48118   0.14124   0.08534   0.00000  Uiso   1.00
H96    H     0.38686   0.14257   0.42021   0.00000  Uiso   1.00
H97    H     0.41965   0.15005   0.06456   0.00000  Uiso   1.00
H98    H     0.36378   0.13370   0.01857   0.00000  Uiso   1.00
H99    H     0.53009   0.22680   0.37421   0.00000  Uiso   1.00
H100   H     0.54416   0.29348   0.30165   0.00000  Uiso   1.00
N101   N     0.38093   0.16668   0.25001   0.00000  Uiso   1.00
N102   N     0.61906   0.16665   0.25000   0.00000  Uiso   1.00
O103   O     0.46179   0.22775   0.25000   0.00000  Uiso   1.00
O104   O     0.53823   0.22774   0.25000   0.00000  Uiso   1.00
O105   O     0.44280   0.16666   0.32681   0.00000  Uiso   1.00
O106   O     0.51924   0.16665   0.32681   0.00000  Uiso   1.00
O107   O     0.46177   0.10559   0.24999   0.00000  Uiso   1.00
O108   O     0.53821   0.10558   0.24999   0.00000  Uiso   1.00
O109   O     0.48076   0.16668   0.17319   0.00000  Uiso   1.00
O110   O     0.55720   0.16667   0.17319   0.00000  Uiso   1.00
Zn111  Zn    0.44896   0.16667   0.25000   0.00000  Uiso   1.00
Zn112  Zn    0.55104   0.16666   0.25000   0.00000  Uiso   1.00
C113   C     0.54941   0.04110   0.31370   0.00000  Uiso   1.00
N114   N     0.56914   0.05749   0.33932   0.00000  Uiso   1.00
C115   C     0.83320   0.24661   0.25028   0.00000  Uiso   1.00
C116   C     0.81012   0.17373   0.49240   0.00000  Uiso   1.00
C117   C     0.81932   0.18599   0.43838   0.00000  Uiso   1.00
C118   C     0.84679   0.17967   0.01488   0.00000  Uiso   1.00
C119   C     0.88833   0.20346   0.48684   0.00000  Uiso   1.00
C120   C     0.89313   0.22067   0.43662   0.00000  Uiso   1.00
C121   C     0.85893   0.21220   0.41272   0.00000  Uiso   1.00
C122   C     0.84356   0.16201   0.06429   0.00000  Uiso   1.00
C123   C     0.91736   0.19565   0.06209   0.00000  Uiso   1.00
C124   C     0.78896   0.17113   0.41112   0.00000  Uiso   1.00
C125   C     0.85820   0.31102   0.28015   0.00000  Uiso   1.00
C126   C     0.80658   0.16865   0.35211   0.00000  Uiso   1.00
C127   C     0.85806   0.02060   0.28167   0.00000  Uiso   1.00
C128   C     0.83260   0.04242   0.25341   0.00000  Uiso   1.00
C129   C     0.80643   0.02159   0.22590   0.00000  Uiso   1.00
C130   C     0.80627   0.31218   0.22527   0.00000  Uiso   1.00
C131   C     0.83262   0.29062   0.25178   0.00000  Uiso   1.00
C132   C     0.98516   0.13793   0.22037   0.00000  Uiso   1.00
C133   C     0.69978   0.13797   0.22033   0.00000  Uiso   1.00
C134   C     0.68151   0.19540   0.27962   0.00000  Uiso   1.00
C135   C     0.96697   0.19547   0.27948   0.00000  Uiso   1.00
C136   C     0.83300   0.08668   0.25141   0.00000  Uiso   1.00
C137   C     0.86005   0.16678   0.14785   0.00000  Uiso   1.00
C138   C     0.92392   0.21041   0.01015   0.00000  Uiso   1.00
C139   C     0.87615   0.17254   0.08964   0.00000  Uiso   1.00
C140   C     0.74444   0.15318   0.44042   0.00000  Uiso   1.00
C141   C     0.73172   0.14715   0.49587   0.00000  Uiso   1.00
C142   C     0.76461   0.15614   0.02163   0.00000  Uiso   1.00
H143   H     0.94290   0.20409   0.08164   0.00000  Uiso   1.00
H144   H     0.78687   0.03836   0.20411   0.00000  Uiso   1.00
H145   H     0.78653   0.29600   0.20329   0.00000  Uiso   1.00
H146   H     0.97434   0.11496   0.19663   0.00000  Uiso   1.00
H147   H     0.72524   0.11504   0.19652   0.00000  Uiso   1.00
H148   H     0.69233   0.21839   0.30334   0.00000  Uiso   1.00
H149   H     0.94173   0.21867   0.30281   0.00000  Uiso   1.00
H150   H     0.92366   0.24018   0.41543   0.00000  Uiso   1.00
H151   H     0.95558   0.22875   0.48924   0.00000  Uiso   1.00
H152   H     0.81451   0.14124   0.08534   0.00000  Uiso   1.00
H153   H     0.72019   0.14257   0.42021   0.00000  Uiso   1.00
H154   H     0.75299   0.15005   0.06456   0.00000  Uiso   1.00
H155   H     0.69711   0.13370   0.01857   0.00000  Uiso   1.00
H156   H     0.86343   0.22680   0.37421   0.00000  Uiso   1.00
H157   H     0.87749   0.29348   0.30165   0.00000  Uiso   1.00
N158   N     0.71426   0.16668   0.25001   0.00000  Uiso   1.00
N159   N     0.95239   0.16665   0.25000   0.00000  Uiso   1.00
O160   O     0.79512   0.22775   0.25000   0.00000  Uiso   1.00
O161   O     0.87157   0.22774   0.25000   0.00000  Uiso   1.00
O162   O     0.77613   0.16666   0.32681   0.00000  Uiso   1.00
O163   O     0.85258   0.16665   0.32681   0.00000  Uiso   1.00
O164   O     0.79510   0.10559   0.24999   0.00000  Uiso   1.00
O165   O     0.87154   0.10558   0.24999   0.00000  Uiso   1.00
O166   O     0.81409   0.16668   0.17319   0.00000  Uiso   1.00
O167   O     0.89053   0.16667   0.17319   0.00000  Uiso   1.00
Zn168  Zn    0.78229   0.16667   0.25000   0.00000  Uiso   1.00
Zn169  Zn    0.88438   0.16666   0.25000   0.00000  Uiso   1.00
C170   C     0.88275   0.04110   0.31370   0.00000  Uiso   1.00
N171   N     0.90247   0.05749   0.33932   0.00000  Uiso   1.00
C172   C     0.16653   0.57994   0.25028   0.00000  Uiso   1.00
C173   C     0.14345   0.50706   0.49240   0.00000  Uiso   1.00
C174   C     0.15265   0.51932   0.43838   0.00000  Uiso   1.00
C175   C     0.18013   0.51301   0.01488   0.00000  Uiso   1.00
C176   C     0.22167   0.53679   0.48684   0.00000  Uiso   1.00
C177   C     0.22647   0.55400   0.43662   0.00000  Uiso   1.00
C178   C     0.19227   0.54553   0.41272   0.00000  Uiso   1.00
C179   C     0.17689   0.49534   0.06429   0.00000  Uiso   1.00
C180   C     0.25070   0.52898   0.06209   0.00000  Uiso   1.00
C181   C     0.12230   0.50446   0.41112   0.00000  Uiso   1.00
C182   C     0.19153   0.64435   0.28015   0.00000  Uiso   1.00
C183   C     0.13992   0.50198   0.35211   0.00000  Uiso   1.00
C184   C     0.19140   0.35394   0.28167   0.00000  Uiso   1.00
C185   C     0.16593   0.37575   0.25341   0.00000  Uiso   1.00
C186   C     0.13976   0.35492   0.22590   0.00000  Uiso   1.00
C187   C     0.13960   0.64551   0.22527   0.00000  Uiso   1.00
C188   C     0.16596   0.62395   0.25178   0.00000  Uiso   1.00
C189   C     0.31849   0.47126   0.22037   0.00000  Uiso   1.00
C190   C     0.03311   0.47130   0.22033   0.00000  Uiso   1.00
C191   C     0.01485   0.52874   0.27962   0.00000  Uiso   1.00
C192   C     0.30031   0.52880   0.27948   0.00000  Uiso   1.00
C193   C     0.16634   0.42001   0.25141   0.00000  Uiso   1.00
C194   C     0.19338   0.50012   0.14785   0.00000  Uiso   1.00
C195   C     0.25725   0.54375   0.01015   0.00000  Uiso   1.00
C196   C     0.20948   0.50588   0.08964   0.00000  Uiso   1.00
C197   C     0.07777   0.48652   0.44042   0.00000  Uiso   1.00
C198   C     0.06505   0.48048   0.49587   0.00000  Uiso   1.00
C199   C     0.09794   0.48947   0.02163   0.00000  Uiso   1.00
H200   H     0.27623   0.53742   0.08164   0.00000  Uiso   1.00
H201   H     0.12021   0.37170   0.20411   0.00000  Uiso   1.00
H202   H     0.11987   0.62933   0.20329   0.00000  Uiso   1.00
H203   H     0.30767   0.44830   0.19663   0.00000  Uiso   1.00
H204   H     0.05858   0.44837   0.19652   0.00000  Uiso   1.00
H205   H     0.02567   0.55172   0.30334   0.00000  Uiso   1.00
H206   H     0.27506   0.55200   0.30281   0.00000  Uiso   1.00
H207   H     0.25700   0.57351   0.41543   0.00000  Uiso   1.00
H208   H     0.28892   0.56208   0.48924   0.00000  Uiso   1.00
H209   H     0.14785   0.47457   0.08534   0.00000  Uiso   1.00
H210   H     0.05353   0.47590   0.42021   0.00000  Uiso   1.00
H211   H     0.08632   0.48339   0.06456   0.00000  Uiso   1.00
H212   H     0.03045   0.46703   0.01857   0.00000  Uiso   1.00
H213   H     0.19676   0.56013   0.37421   0.00000  Uiso   1.00
H214   H     0.21082   0.62681   0.30165   0.00000  Uiso   1.00
N215   N     0.04760   0.50001   0.25001   0.00000  Uiso   1.00
N216   N     0.28573   0.49998   0.25000   0.00000  Uiso   1.00
O217   O     0.12846   0.56108   0.25000   0.00000  Uiso   1.00
O218   O     0.20490   0.56107   0.25000   0.00000  Uiso   1.00
O219   O     0.10947   0.50000   0.32681   0.00000  Uiso   1.00
O220   O     0.18591   0.49999   0.32681   0.00000  Uiso   1.00
O221   O     0.12843   0.43893   0.24999   0.00000  Uiso   1.00
O222   O     0.20488   0.43892   0.24999   0.00000  Uiso   1.00
O223   O     0.14742   0.50001   0.17319   0.00000  Uiso   1.00
O224   O     0.22387   0.50000   0.17319   0.00000  Uiso   1.00
Zn225  Zn    0.11562   0.50001   0.25000   0.00000  Uiso   1.00
Zn226  Zn    0.21771   0.49999   0.25000   0.00000  Uiso   1.00
C227   C     0.21608   0.37443   0.31370   0.00000  Uiso   1.00
N228   N     0.23581   0.39082   0.33932   0.00000  Uiso   1.00
C229   C     0.49986   0.57994   0.25028   0.00000  Uiso   1.00
C230   C     0.47678   0.50706   0.49240   0.00000  Uiso   1.00
C231   C     0.48599   0.51932   0.43838   0.00000  Uiso   1.00
C232   C     0.51346   0.51301   0.01488   0.00000  Uiso   1.00
C233   C     0.55500   0.53679   0.48684   0.00000  Uiso   1.00
C234   C     0.55980   0.55400   0.43662   0.00000  Uiso   1.00
C235   C     0.52560   0.54553   0.41272   0.00000  Uiso   1.00
C236   C     0.51023   0.49534   0.06429   0.00000  Uiso   1.00
C237   C     0.58403   0.52898   0.06209   0.00000  Uiso   1.00
C238   C     0.45563   0.50446   0.41112   0.00000  Uiso   1.00
C239   C     0.52487   0.64435   0.28015   0.00000  Uiso   1.00
C240   C     0.47325   0.50198   0.35211   0.00000  Uiso   1.00
C241   C     0.52473   0.35394   0.28167   0.00000  Uiso   1.00
C242   C     0.49927   0.37575   0.25341   0.00000  Uiso   1.00
C243   C     0.47309   0.35492   0.22590   0.00000  Uiso   1.00
C244   C     0.47293   0.64551   0.22527   0.00000  Uiso   1.00
C245   C     0.49929   0.62395   0.25178   0.00000  Uiso   1.00
C246   C     0.65182   0.47126   0.22037   0.00000  Uiso   1.00
C247   C     0.36644   0.47130   0.22033   0.00000  Uiso   1.00
C248   C     0.34818   0.52874   0.27962   0.00000  Uiso   1.00
C249   C     0.63364   0.52880   0.27948   0.00000  Uiso   1.00
C250   C     0.49967   0.42001   0.25141   0.00000  Uiso   1.00
C251   C     0.52671   0.50012   0.14785   0.00000  Uiso   1.00
C252   C     0.59058   0.54375   0.01015   0.00000  Uiso   1.00
C253   C     0.54282   0.50588   0.08964   0.00000  Uiso   1.00
C254   C     0.41111   0.48652   0.44042   0.00000  Uiso   1.00
C255   C     0.39839   0.48048   0.49587   0.00000  Uiso   1.00
C256   C     0.43127   0.48947   0.02163   0.00000  Uiso   1.00
H257   H     0.60957   0.53742   0.08164   0.00000  Uiso   1.00
H258   H     0.45354   0.37170   0.20411   0.00000  Uiso   1.00
H259   H     0.45320   0.62933   0.20329   0.00000  Uiso   1.00
H260   H     0.64100   0.44830   0.19663   0.00000  Uiso   1.00
H261   H     0.39191   0.44837   0.19652   0.00000  Uiso   1.00
H262   H     0.35900   0.55172   0.30334   0.00000  Uiso   1.00
H263   H     0.60839   0.55200   0.30281   0.00000  Uiso   1.00
H264   H     0.59033   0.57351   0.41543   0.00000  Uiso   1.00
H265   H     0.62225   0.56208   0.48924   0.00000  Uiso   1.00
H266   H     0.48118   0.47457   0.08534   0.00000  Uiso   1.00
H267   H     0.38686   0.47590   0.42021   0.00000  Uiso   1.00
H268   H     0.41965   0.48339   0.06456   0.00000  Uiso   1.00
H269   H     0.36378   0.46703   0.01857   0.00000  Uiso   1.00
H270   H     0.53009   0.56013   0.37421   0.00000  Uiso   1.00
H271   H     0.54416   0.62681   0.30165   0.00000  Uiso   1.00
N272   N     0.38093   0.50001   0.25001   0.00000  Uiso   1.00
N273   N     0.61906   0.49998   0.25000   0.00000  Uiso   1.00
O274   O     0.46179   0.56108   0.25000   0.00000  Uiso   1.00
O275   O     0.53823   0.56107   0.25000   0.00000  Uiso   1.00
O276   O     0.44280   0.50000   0.32681   0.00000  Uiso   1.00
O277   O     0.51924   0.49999   0.32681   0.00000  Uiso   1.00
O278   O     0.46177   0.43893   0.24999   0.00000  Uiso   1.00
O279   O     0.53821   0.43892   0.24999   0.00000  Uiso   1.00
O280   O     0.48076   0.50001   0.17319   0.00000  Uiso   1.00
O281   O     0.55720   0.50000   0.17319   0.00000  Uiso   1.00
Zn282  Zn    0.44896   0.50001   0.25000   0.00000  Uiso   1.00
Zn283  Zn    0.55104   0.49999   0.25000   0.00000  Uiso   1.00
C284   C     0.54941   0.37443   0.31370   0.00000  Uiso   1.00
N285   N     0.56914   0.39082   0.33932   0.00000  Uiso   1.00
C286   C     0.83320   0.57994   0.25028   0.00000  Uiso   1.00
C287   C     0.81012   0.50706   0.49240   0.00000  Uiso   1.00
C288   C     0.81932   0.51932   0.43838   0.00000  Uiso   1.00
C289   C     0.84679   0.51301   0.01488   0.00000  Uiso   1.00
C290   C     0.88833   0.53679   0.48684   0.00000  Uiso   1.00
C291   C     0.89313   0.55400   0.43662   0.00000  Uiso   1.00
C292   C     0.85893   0.54553   0.41272   0.00000  Uiso   1.00
C293   C     0.84356   0.49534   0.06429   0.00000  Uiso   1.00
C294   C     0.91736   0.52898   0.06209   0.00000  Uiso   1.00
C295   C     0.78896   0.50446   0.41112   0.00000  Uiso   1.00
C296   C     0.85820   0.64435   0.28015   0.00000  Uiso   1.00
C297   C     0.80658   0.50198   0.35211   0.00000  Uiso   1.00
C298   C     0.85806   0.35394   0.28167   0.00000  Uiso   1.00
C299   C     0.83260   0.37575   0.25341   0.00000  Uiso   1.00
C300   C     0.80643   0.35492   0.22590   0.00000  Uiso   1.00
C301   C     0.80627   0.64551   0.22527   0.00000  Uiso   1.00
C302   C     0.83262   0.62395   0.25178   0.00000  Uiso   1.00
C303   C     0.98516   0.47126   0.22037   0.00000  Uiso   1.00
C304   C     0.69978   0.47130   0.22033   0.00000  Uiso   1.00
C305   C     0.68151   0.52874   0.27962   0.00000  Uiso   1.00
C306   C     0.96697   0.52880   0.27948   0.00000  Uiso   1.00
C307   C     0.83300   0.42001   0.25141   0.00000  Uiso   1.00
C308   C     0.86005   0.50012   0.14785   0.00000  Uiso   1.00
C309   C     0.92392   0.54375   0.01015   0.00000  Uiso   1.00
C310   C     0.87615   0.50588   0.08964   0.00000  Uiso   1.00
C311   C     0.74444   0.48652   0.44042   0.00000  Uiso   1.00
C312   C     0.73172   0.48048   0.49587   0.00000  Uiso   1.00
C313   C     0.76461   0.48947   0.02163   0.00000  Uiso   1.00
H314   H     0.94290   0.53742   0.08164   0.00000  Uiso   1.00
H315   H     0.78687   0.37170   0.20411   0.00000  Uiso   1.00
H316   H     0.78653   0.62933   0.20329   0.00000  Uiso   1.00
H317   H     0.97434   0.44830   0.19663   0.00000  Uiso   1.00
H318   H     0.72524   0.44837   0.19652   0.00000  Uiso   1.00
H319   H     0.69233   0.55172   0.30334   0.00000  Uiso   1.00
H320   H     0.94173   0.55200   0.30281   0.00000  Uiso   1.00
H321   H     0.92366   0.57351   0.41543   0.00000  Uiso   1.00
H322   H     0.95558   0.56208   0.48924   0.00000  Uiso   1.00
H323   H     0.81451   0.47457   0.08534   0.00000  Uiso   1.00
H324   H     0.72019   0.47590   0.42021   0.00000  Uiso   1.00
H325   H     0.75299   0.48339   0.06456   0.00000  Uiso   1.00
H326   H     0.69711   0.46703   0.01857   0.00000  Uiso   1.00
H327   H     0.86343   0.56013   0.37421   0.00000  Uiso   1.00
H328   H     0.87749   0.62681   0.30165   0.00000  Uiso   1.00
N329   N     0.71426   0.50001   0.25001   0.00000  Uiso   1.00
N330   N     0.95239   0.49998   0.25000   0.00000  Uiso   1.00
O331   O     0.79512   0.56108   0.25000   0.00000  Uiso   1.00
O332   O     0.87157   0.56107   0.25000   0.00000  Uiso   1.00
O333   O     0.77613   0.50000   0.32681   0.00000  Uiso   1.00
O334   O     0.85258   0.49999   0.32681   0.00000  Uiso   1.00
O335   O     0.79510   0.43893   0.24999   0.00000  Uiso   1.00
O336   O     0.87154   0.43892   0.24999   0.00000  Uiso   1.00
O337   O     0.81409   0.50001   0.17319   0.00000  Uiso   1.00
O338   O     0.89053   0.50000   0.17319   0.00000  Uiso   1.00
Zn339  Zn    0.78229   0.50001   0.25000   0.00000  Uiso   1.00
Zn340  Zn    0.88438   0.49999   0.25000   0.00000  Uiso   1.00
C341   C     0.88275   0.37443   0.31370   0.00000  Uiso   1.00
N342   N     0.90247   0.39082   0.33932   0.00000  Uiso   1.00
C343   C     0.16653   0.91328   0.25028   0.00000  Uiso   1.00
C344   C     0.14345   0.84039   0.49240   0.00000  Uiso   1.00
C345   C     0.15265   0.85266   0.43838   0.00000  Uiso   1.00
C346   C     0.18013   0.84634   0.01488   0.00000  Uiso   1.00
C347   C     0.22167   0.87012   0.48684   0.00000  Uiso   1.00
C348   C     0.22647   0.88733   0.43662   0.00000  Uiso   1.00
C349   C     0.19227   0.87886   0.41272   0.00000  Uiso   1.00
C350   C     0.17689   0.82868   0.06429   0.00000  Uiso   1.00
C351   C     0.25070   0.86232   0.06209   0.00000  Uiso   1.00
C352   C     0.12230   0.83779   0.41112   0.00000  Uiso   1.00
C353   C     0.19153   0.97769   0.28015   0.00000  Uiso   1.00
C354   C     0.13992   0.83532   0.35211   0.00000  Uiso   1.00
C355   C     0.19140   0.68727   0.28167   0.00000  Uiso   1.00
C356   C     0.16593   0.70908   0.25341   0.00000  Uiso   1.00
C357   C     0.13976   0.68825   0.22590   0.00000  Uiso   1.00
C358   C     0.13960   0.97884   0.22527   0.00000  Uiso   1.00
C359   C     0.16596   0.95729   0.25178   0.00000  Uiso   1.00
C360   C     0.31849   0.80459   0.22037   0.00000  Uiso   1.00
C361   C     0.03311   0.80463   0.22033   0.00000  Uiso   1.00
C362   C     0.01485   0.86207   0.27962   0.00000  Uiso   1.00
C363   C     0.30031   0.86213   0.27948   0.00000  Uiso   1.00
C364   C     0.16634   0.75334   0.25141   0.00000  Uiso   1.00
C365   C     0.19338   0.83345   0.14785   0.00000  Uiso   1.00
C366   C     0.25725   0.87708   0.01015   0.00000  Uiso   1.00
C367   C     0.20948   0.83921   0.08964   0.00000  Uiso   1.00
C368   C     0.07777   0.81985   0.44042   0.00000  Uiso   1.00
C369   C     0.06505   0.81381   0.49587   0.00000  Uiso   1.00
C370   C     0.09794   0.82280   0.02163   0.00000  Uiso   1.00
H371   H     0.27623   0.87075   0.08164   0.00000  Uiso   1.00
H372   H     0.12021   0.70503   0.20411   0.00000  Uiso   1.00
H373   H     0.11987   0.96266   0.20329   0.00000  Uiso   1.00
H374   H     0.30767   0.78163   0.19663   0.00000  Uiso   1.00
H375   H     0.05858   0.78170   0.19652   0.00000  Uiso   1.00
H376   H     0.02567   0.88505   0.30334   0.00000  Uiso   1.00
H377   H     0.27506   0.88534   0.30281   0.00000  Uiso   1.00
H378   H     0.25700   0.90684   0.41543   0.00000  Uiso   1.00
H379   H     0.28892   0.89542   0.48924   0.00000  Uiso   1.00
H380   H     0.14785   0.80791   0.08534   0.00000  Uiso   1.00
H381   H     0.05353   0.80923   0.42021   0.00000  Uiso   1.00
H382   H     0.08632   0.81672   0.06456   0.00000  Uiso   1.00
H383   H     0.03045   0.80036   0.01857   0.00000  Uiso   1.00
H384   H     0.19676   0.89346   0.37421   0.00000  Uiso   1.00
H385   H     0.21082   0.96014   0.30165   0.00000  Uiso   1.00
N386   N     0.04760   0.83334   0.25001   0.00000  Uiso   1.00
N387   N     0.28573   0.83331   0.25000   0.00000  Uiso   1.00
O388   O     0.12846   0.89442   0.25000   0.00000  Uiso   1.00
O389   O     0.20490   0.89441   0.25000   0.00000  Uiso   1.00
O390   O     0.10947   0.83333   0.32681   0.00000  Uiso   1.00
O391   O     0.18591   0.83332   0.32681   0.00000  Uiso   1.00
O392   O     0.12843   0.77226   0.24999   0.00000  Uiso   1.00
O393   O     0.20488   0.77225   0.24999   0.00000  Uiso   1.00
O394   O     0.14742   0.83335   0.17319   0.00000  Uiso   1.00
O395   O     0.22387   0.83334   0.17319   0.00000  Uiso   1.00
Zn396  Zn    0.11562   0.83334   0.25000   0.00000  Uiso   1.00
Zn397  Zn    0.21771   0.83333   0.25000   0.00000  Uiso   1.00
C398   C     0.21608   0.70776   0.31370   0.00000  Uiso   1.00
N399   N     0.23581   0.72416   0.33932   0.00000  Uiso   1.00
C400   C     0.49986   0.91328   0.25028   0.00000  Uiso   1.00
C401   C     0.47678   0.84039   0.49240   0.00000  Uiso   1.00
C402   C     0.48599   0.85266   0.43838   0.00000  Uiso   1.00
C403   C     0.51346   0.84634   0.01488   0.00000  Uiso   1.00
C404   C     0.55500   0.87012   0.48684   0.00000  Uiso   1.00
C405   C     0.55980   0.88733   0.43662   0.00000  Uiso   1.00
C406   C     0.52560   0.87886   0.41272   0.00000  Uiso   1.00
C407   C     0.51023   0.82868   0.06429   0.00000  Uiso   1.00
C408   C     0.58403   0.86232   0.06209   0.00000  Uiso   1.00
C409   C     0.45563   0.83779   0.41112   0.00000  Uiso   1.00
C410   C     0.52487   0.97769   0.28015   0.00000  Uiso   1.00
C411   C     0.47325   0.83532   0.35211   0.00000  Uiso   1.00
C412   C     0.52473   0.68727   0.28167   0.00000  Uiso   1.00
C413   C     0.49927   0.70908   0.25341   0.00000  Uiso   1.00
C414   C     0.47309   0.68825   0.22590   0.00000  Uiso   1.00
C415   C     0.47293   0.97884   0.22527   0.00000  Uiso   1.00
C416   C     0.49929   0.95729   0.25178   0.00000  Uiso   1.00
C417   C     0.65182   0.80459   0.22037   0.00000  Uiso   1.00
C418   C     0.36644   0.80463   0.22033   0.00000  Uiso   1.00
C419   C     0.34818   0.86207   0.27962   0.00000  Uiso   1.00
C420   C     0.63364   0.86213   0.27948   0.00000  Uiso   1.00
C421   C     0.49967   0.75334   0.25141   0.00000  Uiso   1.00
C422   C     0.52671   0.83345   0.14785   0.00000  Uiso   1.00
C423   C     0.59058   0.87708   0.01015   0.00000  Uiso   1.00
C424   C     0.54282   0.83921   0.08964   0.00000  Uiso   1.00
C425   C     0.41111   0.81985   0.44042   0.00000  Uiso   1.00
C426   C     0.39839   0.81381   0.49587   0.00000  Uiso   1.00
C427   C     0.43127   0.82280   0.02163   0.00000  Uiso   1.00
H428   H     0.60957   0.87075   0.08164   0.00000  Uiso   1.00
H429   H     0.45354   0.70503   0.20411   0.00000  Uiso   1.00
H430   H     0.45320   0.96266   0.20329   0.00000  Uiso   1.00
H431   H     0.64100   0.78163   0.19663   0.00000  Uiso   1.00
H432   H     0.39191   0.78170   0.19652   0.00000  Uiso   1.00
H433   H     0.35900   0.88505   0.30334   0.00000  Uiso   1.00
H434   H     0.60839   0.88534   0.30281   0.00000  Uiso   1.00
H435   H     0.59033   0.90684   0.41543   0.00000  Uiso   1.00
H436   H     0.62225   0.89542   0.48924   0.00000  Uiso   1.00
H437   H     0.48118   0.80791   0.08534   0.00000  Uiso   1.00
H438   H     0.38686   0.80923   0.42021   0.00000  Uiso   1.00
H439   H     0.41965   0.81672   0.06456   0.00000  Uiso   1.00
H440   H     0.36378   0.80036   0.01857   0.00000  Uiso   1.00
H441   H     0.53009   0.89346   0.37421   0.00000  Uiso   1.00
H442   H     0.54416   0.96014   0.30165   0.00000  Uiso   1.00
N443   N     0.38093   0.83334   0.25001   0.00000  Uiso   1.00
N444   N     0.61906   0.83331   0.25000   0.00000  Uiso   1.00
O445   O     0.46179   0.89442   0.25000   0.00000  Uiso   1.00
O446   O     0.53823   0.89441   0.25000   0.00000  Uiso   1.00
O447   O     0.44280   0.83333   0.32681   0.00000  Uiso   1.00
O448   O     0.51924   0.83332   0.32681   0.00000  Uiso   1.00
O449   O     0.46177   0.77226   0.24999   0.00000  Uiso   1.00
O450   O     0.53821   0.77225   0.24999   0.00000  Uiso   1.00
O451   O     0.48076   0.83335   0.17319   0.00000  Uiso   1.00
O452   O     0.55720   0.83334   0.17319   0.00000  Uiso   1.00
Zn453  Zn    0.44896   0.83334   0.25000   0.00000  Uiso   1.00
Zn454  Zn    0.55104   0.83333   0.25000   0.00000  Uiso   1.00
C455   C     0.54941   0.70776   0.31370   0.00000  Uiso   1.00
N456   N     0.56914   0.72416   0.33932   0.00000  Uiso   1.00
C457   C     0.83320   0.91328   0.25028   0.00000  Uiso   1.00
C458   C     0.81012   0.84039   0.49240   0.00000  Uiso   1.00
C459   C     0.81932   0.85266   0.43838   0.00000  Uiso   1.00
C460   C     0.84679   0.84634   0.01488   0.00000  Uiso   1.00
C461   C     0.88833   0.87012   0.48684   0.00000  Uiso   1.00
C462   C     0.89313   0.88733   0.43662   0.00000  Uiso   1.00
C463   C     0.85893   0.87886   0.41272   0.00000  Uiso   1.00
C464   C     0.84356   0.82868   0.06429   0.00000  Uiso   1.00
C465   C     0.91736   0.86232   0.06209   0.00000  Uiso   1.00
C466   C     0.78896   0.83779   0.41112   0.00000  Uiso   1.00
C467   C     0.85820   0.97769   0.28015   0.00000  Uiso   1.00
C468   C     0.80658   0.83532   0.35211   0.00000  Uiso   1.00
C469   C     0.85806   0.68727   0.28167   0.00000  Uiso   1.00
C470   C     0.83260   0.70908   0.25341   0.00000  Uiso   1.00
C471   C     0.80643   0.68825   0.22590   0.00000  Uiso   1.00
C472   C     0.80627   0.97884   0.22527   0.00000  Uiso   1.00
C473   C     0.83262   0.95729   0.25178   0.00000  Uiso   1.00
C474   C     0.98516   0.80459   0.22037   0.00000  Uiso   1.00
C475   C     0.69978   0.80463   0.22033   0.00000  Uiso   1.00
C476   C     0.68151   0.86207   0.27962   0.00000  Uiso   1.00
C477   C     0.96697   0.86213   0.27948   0.00000  Uiso   1.00
C478   C     0.83300   0.75334   0.25141   0.00000  Uiso   1.00
C479   C     0.86005   0.83345   0.14785   0.00000  Uiso   1.00
C480   C     0.92392   0.87708   0.01015   0.00000  Uiso   1.00
C481   C     0.87615   0.83921   0.08964   0.00000  Uiso   1.00
C482   C     0.74444   0.81985   0.44042   0.00000  Uiso   1.00
C483   C     0.73172   0.81381   0.49587   0.00000  Uiso   1.00
C484   C     0.76461   0.82280   0.02163   0.00000  Uiso   1.00
H485   H     0.94290   0.87075   0.08164   0.00000  Uiso   1.00
H486   H     0.78687   0.70503   0.20411   0.00000  Uiso   1.00
H487   H     0.78653   0.96266   0.20329   0.00000  Uiso   1.00
H488   H     0.97434   0.78163   0.19663   0.00000  Uiso   1.00
H489   H     0.72524   0.78170   0.19652   0.00000  Uiso   1.00
H490   H     0.69233   0.88505   0.30334   0.00000  Uiso   1.00
H491   H     0.94173   0.88534   0.30281   0.00000  Uiso   1.00
H492   H     0.92366   0.90684   0.41543   0.00000  Uiso   1.00
H493   H     0.95558   0.89542   0.48924   0.00000  Uiso   1.00
H494   H     0.81451   0.80791   0.08534   0.00000  Uiso   1.00
H495   H     0.72019   0.80923   0.42021   0.00000  Uiso   1.00
H496   H     0.75299   0.81672   0.06456   0.00000  Uiso   1.00
H497   H     0.69711   0.80036   0.01857   0.00000  Uiso   1.00
H498   H     0.86343   0.89346   0.37421   0.00000  Uiso   1.00
H499   H     0.87749   0.96014   0.30165   0.00000  Uiso   1.00
N500   N     0.71426   0.83334   0.25001   0.00000  Uiso   1.00
N501   N     0.95239   0.83331   0.25000   0.00000  Uiso   1.00
O502   O     0.79512   0.89442   0.25000   0.00000  Uiso   1.00
O503   O     0.87157   0.89441   0.25000   0.00000  Uiso   1.00
O504   O     0.77613   0.83333   0.32681   0.00000  Uiso   1.00
O505   O     0.85258   0.83332   0.32681   0.00000  Uiso   1.00
O506   O     0.79510   0.77226   0.24999   0.00000  Uiso   1.00
O507   O     0.87154   0.77225   0.24999   0.00000  Uiso   1.00
O508   O     0.81409   0.83335   0.17319   0.00000  Uiso   1.00
O509   O     0.89053   0.83334   0.17319   0.00000  Uiso   1.00
Zn510  Zn    0.78229   0.83334   0.25000   0.00000  Uiso   1.00
Zn511  Zn    0.88438   0.83333   0.25000   0.00000  Uiso   1.00
C512   C     0.88275   0.70776   0.31370   0.00000  Uiso   1.00
N513   N     0.90247   0.72416   0.33932   0.00000  Uiso   1.00
C514   C     0.16653   0.24661   0.75028   0.00000  Uiso   1.00
C515   C     0.14345   0.17373   0.99240   0.00000  Uiso   1.00
C516   C     0.15265   0.18599   0.93838   0.00000  Uiso   1.00
C517   C     0.18013   0.17967   0.51488   0.00000  Uiso   1.00
C518   C     0.22167   0.20346   0.98684   0.00000  Uiso   1.00
C519   C     0.22647   0.22067   0.93662   0.00000  Uiso   1.00
C520   C     0.19227   0.21220   0.91272   0.00000  Uiso   1.00
C521   C     0.17689   0.16201   0.56429   0.00000  Uiso   1.00
C522   C     0.25070   0.19565   0.56209   0.00000  Uiso   1.00
C523   C     0.12230   0.17113   0.91112   0.00000  Uiso   1.00
C524   C     0.19153   0.31102   0.78015   0.00000  Uiso   1.00
C525   C     0.13992   0.16865   0.85211   0.00000  Uiso   1.00
C526   C     0.19140   0.02060   0.78167   0.00000  Uiso   1.00
C527   C     0.16593   0.04242   0.75341   0.00000  Uiso   1.00
C528   C     0.13976   0.02159   0.72590   0.00000  Uiso   1.00
C529   C     0.13960   0.31218   0.72527   0.00000  Uiso   1.00
C530   C     0.16596   0.29062   0.75178   0.00000  Uiso   1.00
C531   C     0.31849   0.13793   0.72037   0.00000  Uiso   1.00
C532   C     0.03311   0.13797   0.72033   0.00000  Uiso   1.00
C533   C     0.01485   0.19540   0.77962   0.00000  Uiso   1.00
C534   C     0.30031   0.19547   0.77948   0.00000  Uiso   1.00
C535   C     0.16634   0.08668   0.75141   0.00000  Uiso   1.00
C536   C     0.19338   0.16678   0.64785   0.00000  Uiso   1.00
C537   C     0.25725   0.21041   0.51015   0.00000  Uiso   1.00
C538   C     0.20948   0.17254   0.58964   0.00000  Uiso   1.00
C539   C     0.07777   0.15318   0.94042   0.00000  Uiso   1.00
C540   C     0.06505   0.14715   0.99587   0.00000  Uiso   1.00
C541   C     0.09794   0.15614   0.52163   0.00000  Uiso   1.00
H542   H     0.27623   0.20409   0.58164   0.00000  Uiso   1.00
H543   H     0.12021   0.03836   0.70411   0.00000  Uiso   1.00
H544   H     0.11987   0.29600   0.70329   0.00000  Uiso   1.00
H545   H     0.30767   0.11496   0.69663   0.00000  Uiso   1.00
H546   H     0.05858   0.11504   0.69652   0.00000  Uiso   1.00
H547   H     0.02567   0.21839   0.80334   0.00000  Uiso   1.00
H548   H     0.27506   0.21867   0.80281   0.00000  Uiso   1.00
H549   H     0.25700   0.24018   0.91543   0.00000  Uiso   1.00
H550   H     0.28892   0.22875   0.98924   0.00000  Uiso   1.00
H551   H     0.14785   0.14124   0.58534   0.00000  Uiso   1.00
H552   H     0.05353   0.14257   0.92021   0.00000  Uiso   1.00
H553   H     0.08632   0.15005   0.56456   0.00000  Uiso   1.00
H554   H     0.03045   0.13370   0.51857   0.00000  Uiso   1.00
H555   H     0.19676   0.22680   0.87421   0.00000  Uiso   1.00
H556   H     0.21082   0.29348   0.80165   0.00000  Uiso   1.00
N557   N     0.04760   0.16668   0.75001   0.00000  Uiso   1.00
N558   N     0.28573   0.16665   0.75000   0.00000  Uiso   1.00
O559   O     0.12846   0.22775   0.75000   0.00000  Uiso   1.00
O560   O     0.20490   0.22774   0.75000   0.00000  Uiso   1.00
O561   O     0.10947   0.16666   0.82681   0.00000  Uiso   1.00
O562   O     0.18591   0.16665   0.82681   0.00000  Uiso   1.00
O563   O     0.12843   0.10559   0.74999   0.00000  Uiso   1.00
O564   O     0.20488   0.10558   0.74999   0.00000  Uiso   1.00
O565   O     0.14742   0.16668   0.67319   0.00000  Uiso   1.00
O566   O     0.22387   0.16667   0.67319   0.00000  Uiso   1.00
Zn567  Zn    0.11562   0.16667   0.75000   0.00000  Uiso   1.00
Zn568  Zn    0.21771   0.16666   0.75000   0.00000  Uiso   1.00
C569   C     0.21608   0.04110   0.81370   0.00000  Uiso   1.00
N570   N     0.23581   0.05749   0.83932   0.00000  Uiso   1.00
C571   C     0.49986   0.24661   0.75028   0.00000  Uiso   1.00
C572   C     0.47678   0.17373   0.99240   0.00000  Uiso   1.00
C573   C     0.48599   0.18599   0.93838   0.00000  Uiso   1.00
C574   C     0.51346   0.17967   0.51488   0.00000  Uiso   1.00
C575   C     0.55500   0.20346   0.98684   0.00000  Uiso   1.00
C576   C     0.55980   0.22067   0.93662   0.00000  Uiso   1.00
C577   C     0.52560   0.21220   0.91272   0.00000  Uiso   1.00
C578   C     0.51023   0.16201   0.56429   0.00000  Uiso   1.00
C579   C     0.58403   0.19565   0.56209   0.00000  Uiso   1.00
C580   C     0.45563   0.17113   0.91112   0.00000  Uiso   1.00
C581   C     0.52487   0.31102   0.78015   0.00000  Uiso   1.00
C582   C     0.47325   0.16865   0.85211   0.00000  Uiso   1.00
C583   C     0.52473   0.02060   0.78167   0.00000  Uiso   1.00
C584   C     0.49927   0.04242   0.75341   0.00000  Uiso   1.00
C585   C     0.47309   0.02159   0.72590   0.00000  Uiso   1.00
C586   C     0.47293   0.31218   0.72527   0.00000  Uiso   1.00
C587   C     0.49929   0.29062   0.75178   0.00000  Uiso   1.00
C588   C     0.65182   0.13793   0.72037   0.00000  Uiso   1.00
C589   C     0.36644   0.13797   0.72033   0.00000  Uiso   1.00
C590   C     0.34818   0.19540   0.77962   0.00000  Uiso   1.00
C591   C     0.63364   0.19547   0.77948   0.00000  Uiso   1.00
C592   C     0.49967   0.08668   0.75141   0.00000  Uiso   1.00
C593   C     0.52671   0.16678   0.64785   0.00000  Uiso   1.00
C594   C     0.59058   0.21041   0.51015   0.00000  Uiso   1.00
C595   C     0.54282   0.17254   0.58964   0.00000  Uiso   1.00
C596   C     0.41111   0.15318   0.94042   0.00000  Uiso   1.00
C597   C     0.39839   0.14715   0.99587   0.00000  Uiso   1.00
C598   C     0.43127   0.15614   0.52163   0.00000  Uiso   1.00
H599   H     0.60957   0.20409   0.58164   0.00000  Uiso   1.00
H600   H     0.45354   0.03836   0.70411   0.00000  Uiso   1.00
H601   H     0.45320   0.29600   0.70329   0.00000  Uiso   1.00
H602   H     0.64100   0.11496   0.69663   0.00000  Uiso   1.00
H603   H     0.39191   0.11504   0.69652   0.00000  Uiso   1.00
H604   H     0.35900   0.21839   0.80334   0.00000  Uiso   1.00
H605   H     0.60839   0.21867   0.80281   0.00000  Uiso   1.00
H606   H     0.59033   0.24018   0.91543   0.00000  Uiso   1.00
H607   H     0.62225   0.22875   0.98924   0.00000  Uiso   1.00
H608   H     0.48118   0.14124   0.58534   0.00000  Uiso   1.00
H609   H     0.38686   0.14257   0.92021   0.00000  Uiso   1.00
H610   H     0.41965   0.15005   0.56456   0.00000  Uiso   1.00
H611   H     0.36378   0.13370   0.51857   0.00000  Uiso   1.00
H612   H     0.53009   0.22680   0.87421   0.00000  Uiso   1.00
H613   H     0.54416   0.29348   0.80165   0.00000  Uiso   1.00
N614   N     0.38093   0.16668   0.75001   0.00000  Uiso   1.00
N615   N     0.61906   0.16665   0.75000   0.00000  Uiso   1.00
O616   O     0.46179   0.22775   0.75000   0.00000  Uiso   1.00
O617   O     0.53823   0.22774   0.75000   0.00000  Uiso   1.00
O618   O     0.44280   0.16666   0.82681   0.00000  Uiso   1.00
O619   O     0.51924   0.16665   0.82681   0.00000  Uiso   1.00
O620   O     0.46177   0.10559   0.74999   0.00000  Uiso   1.00
O621   O     0.53821   0.10558   0.74999   0.00000  Uiso   1.00
O622   O     0.48076   0.16668   0.67319   0.00000  Uiso   1.00
O623   O     0.55720   0.16667   0.67319   0.00000  Uiso   1.00
Zn624  Zn    0.44896   0.16667   0.75000   0.00000  Uiso   1.00
Zn625  Zn    0.55104   0.16666   0.75000   0.00000  Uiso   1.00
C626   C     0.54941   0.04110   0.81370   0.00000  Uiso   1.00
N627   N     0.56914   0.05749   0.83932   0.00000  Uiso   1.00
C628   C     0.83320   0.24661   0.75028   0.00000  Uiso   1.00
C629   C     0.81012   0.17373   0.99240   0.00000  Uiso   1.00
C630   C     0.81932   0.18599   0.93838   0.00000  Uiso   1.00
C631   C     0.84679   0.17967   0.51488   0.00000  Uiso   1.00
C632   C     0.88833   0.20346   0.98684   0.00000  Uiso   1.00
C633   C     0.89313   0.22067   0.93662   0.00000  Uiso   1.00
C634   C     0.85893   0.21220   0.91272   0.00000  Uiso   1.00
C635   C     0.84356   0.16201   0.56429   0.00000  Uiso   1.00
C636   C     0.91736   0.19565   0.56209   0.00000  Uiso   1.00
C637   C     0.78896   0.17113   0.91112   0.00000  Uiso   1.00
C638   C     0.85820   0.31102   0.78015   0.00000  Uiso   1.00
C639   C     0.80658   0.16865   0.85211   0.00000  Uiso   1.00
C640   C     0.85806   0.02060   0.78167   0.00000  Uiso   1.00
C641   C     0.83260   0.04242   0.75341   0.00000  Uiso   1.00
C642   C     0.80643   0.02159   0.72590   0.00000  Uiso   1.00
C643   C     0.80627   0.31218   0.72527   0.00000  Uiso   1.00
C644   C     0.83262   0.29062   0.75178   0.00000  Uiso   1.00
C645   C     0.98516   0.13793   0.72037   0.00000  Uiso   1.00
C646   C     0.69978   0.13797   0.72033   0.00000  Uiso   1.00
C647   C     0.68151   0.19540   0.77962   0.00000  Uiso   1.00
C648   C     0.96697   0.19547   0.77948   0.00000  Uiso   1.00
C649   C     0.83300   0.08668   0.75141   0.00000  Uiso   1.00
C650   C     0.86005   0.16678   0.64785   0.00000  Uiso   1.00
C651   C     0.92392   0.21041   0.51015   0.00000  Uiso   1.00
C652   C     0.87615   0.17254   0.58964   0.00000  Uiso   1.00
C653   C     0.74444   0.15318   0.94042   0.00000  Uiso   1.00
C654   C     0.73172   0.14715   0.99587   0.00000  Uiso   1.00
C655   C     0.76461   0.15614   0.52163   0.00000  Uiso   1.00
H656   H     0.94290   0.20409   0.58164   0.00000  Uiso   1.00
H657   H     0.78687   0.03836   0.70411   0.00000  Uiso   1.00
H658   H     0.78653   0.29600   0.70329   0.00000  Uiso   1.00
H659   H     0.97434   0.11496   0.69663   0.00000  Uiso   1.00
H660   H     0.72524   0.11504   0.69652   0.00000  Uiso   1.00
H661   H     0.69233   0.21839   0.80334   0.00000  Uiso   1.00
H662   H     0.94173   0.21867   0.80281   0.00000  Uiso   1.00
H663   H     0.92366   0.24018   0.91543   0.00000  Uiso   1.00
H664   H     0.95558   0.22875   0.98924   0.00000  Uiso   1.00
H665   H     0.81451   0.14124   0.58534   0.00000  Uiso   1.00
H666   H     0.72019   0.14257   0.92021   0.00000  Uiso   1.00
H667   H     0.75299   0.15005   0.56456   0.00000  Uiso   1.00
H668   H     0.69711   0.13370   0.51857   0.00000  Uiso   1.00
H669   H     0.86343   0.22680   0.87421   0.00000  Uiso   1.00
H670   H     0.87749   0.29348   0.80165   0.00000  Uiso   1.00
N671   N     0.71426   0.16668   0.75001   0.00000  Uiso   1.00
N672   N     0.95239   0.16665   0.75000   0.00000  Uiso   1.00
O673   O     0.79512   0.22775   0.75000   0.00000  Uiso   1.00
O674   O     0.87157   0.22774   0.75000   0.00000  Uiso   1.00
O675   O     0.77613   0.16666   0.82681   0.00000  Uiso   1.00
O676   O     0.85258   0.16665   0.82681   0.00000  Uiso   1.00
O677   O     0.79510   0.10559   0.74999   0.00000  Uiso   1.00
O678   O     0.87154   0.10558   0.74999   0.00000  Uiso   1.00
O679   O     0.81409   0.16668   0.67319   0.00000  Uiso   1.00
O680   O     0.89053   0.16667   0.67319   0.00000  Uiso   1.00
Zn681  Zn    0.78229   0.16667   0.75000   0.00000  Uiso   1.00
Zn682  Zn    0.88438   0.16666   0.75000   0.00000  Uiso   1.00
C683   C     0.88275   0.04110   0.81370   0.00000  Uiso   1.00
N684   N     0.90247   0.05749   0.83932   0.00000  Uiso   1.00
C685   C     0.16653   0.57994   0.75028   0.00000  Uiso   1.00
C686   C     0.14345   0.50706   0.99240   0.00000  Uiso   1.00
C687   C     0.15265   0.51932   0.93838   0.00000  Uiso   1.00
C688   C     0.18013   0.51301   0.51488   0.00000  Uiso   1.00
C689   C     0.22167   0.53679   0.98684   0.00000  Uiso   1.00
C690   C     0.22647   0.55400   0.93662   0.00000  Uiso   1.00
C691   C     0.19227   0.54553   0.91272   0.00000  Uiso   1.00
C692   C     0.17689   0.49534   0.56429   0.00000  Uiso   1.00
C693   C     0.25070   0.52898   0.56209   0.00000  Uiso   1.00
C694   C     0.12230   0.50446   0.91112   0.00000  Uiso   1.00
C695   C     0.19153   0.64435   0.78015   0.00000  Uiso   1.00
C696   C     0.13992   0.50198   0.85211   0.00000  Uiso   1.00
C697   C     0.19140   0.35394   0.78167   0.00000  Uiso   1.00
C698   C     0.16593   0.37575   0.75341   0.00000  Uiso   1.00
C699   C     0.13976   0.35492   0.72590   0.00000  Uiso   1.00
C700   C     0.13960   0.64551   0.72527   0.00000  Uiso   1.00
C701   C     0.16596   0.62395   0.75178   0.00000  Uiso   1.00
C702   C     0.31849   0.47126   0.72037   0.00000  Uiso   1.00
C703   C     0.03311   0.47130   0.72033   0.00000  Uiso   1.00
C704   C     0.01485   0.52874   0.77962   0.00000  Uiso   1.00
C705   C     0.30031   0.52880   0.77948   0.00000  Uiso   1.00
C706   C     0.16634   0.42001   0.75141   0.00000  Uiso   1.00
C707   C     0.19338   0.50012   0.64785   0.00000  Uiso   1.00
C708   C     0.25725   0.54375   0.51015   0.00000  Uiso   1.00
C709   C     0.20948   0.50588   0.58964   0.00000  Uiso   1.00
C710   C     0.07777   0.48652   0.94042   0.00000  Uiso   1.00
C711   C     0.06505   0.48048   0.99587   0.00000  Uiso   1.00
C712   C     0.09794   0.48947   0.52163   0.00000  Uiso   1.00
H713   H     0.27623   0.53742   0.58164   0.00000  Uiso   1.00
H714   H     0.12021   0.37170   0.70411   0.00000  Uiso   1.00
H715   H     0.11987   0.62933   0.70329   0.00000  Uiso   1.00
H716   H     0.30767   0.44830   0.69663   0.00000  Uiso   1.00
H717   H     0.05858   0.44837   0.69652   0.00000  Uiso   1.00
H718   H     0.02567   0.55172   0.80334   0.00000  Uiso   1.00
H719   H     0.27506   0.55200   0.80281   0.00000  Uiso   1.00
H720   H     0.25700   0.57351   0.91543   0.00000  Uiso   1.00
H721   H     0.28892   0.56208   0.98924   0.00000  Uiso   1.00
H722   H     0.14785   0.47457   0.58534   0.00000  Uiso   1.00
H723   H     0.05353   0.47590   0.92021   0.00000  Uiso   1.00
H724   H     0.08632   0.48339   0.56456   0.00000  Uiso   1.00
H725   H     0.03045   0.46703   0.51857   0.00000  Uiso   1.00
H726   H     0.19676   0.56013   0.87421   0.00000  Uiso   1.00
H727   H     0.21082   0.62681   0.80165   0.00000  Uiso   1.00
N728   N     0.04760   0.50001   0.75001   0.00000  Uiso   1.00
N729   N     0.28573   0.49998   0.75000   0.00000  Uiso   1.00
O730   O     0.12846   0.56108   0.75000   0.00000  Uiso   1.00
O731   O     0.20490   0.56107   0.75000   0.00000  Uiso   1.00
O732   O     0.10947   0.50000   0.82681   0.00000  Uiso   1.00
O733   O     0.18591   0.49999   0.82681   0.00000  Uiso   1.00
O734   O     0.12843   0.43893   0.74999   0.00000  Uiso   1.00
O735   O     0.20488   0.43892   0.74999   0.00000  Uiso   1.00
O736   O     0.14742   0.50001   0.67319   0.00000  Uiso   1.00
O737   O     0.22387   0.50000   0.67319   0.00000  Uiso   1.00
Zn738  Zn    0.11562   0.50001   0.75000   0.00000  Uiso   1.00
Zn739  Zn    0.21771   0.49999   0.75000   0.00000  Uiso   1.00
C740   C     0.21608   0.37443   0.81370   0.00000  Uiso   1.00
N741   N     0.23581   0.39082   0.83932   0.00000  Uiso   1.00
C742   C     0.49986   0.57994   0.75028   0.00000  Uiso   1.00
C743   C     0.47678   0.50706   0.99240   0.00000  Uiso   1.00
C744   C     0.48599   0.51932   0.93838   0.00000  Uiso   1.00
C745   C     0.51346   0.51301   0.51488   0.00000  Uiso   1.00
C746   C     0.55500   0.53679   0.98684   0.00000  Uiso   1.00
C747   C     0.55980   0.55400   0.93662   0.00000  Uiso   1.00
C748   C     0.52560   0.54553   0.91272   0.00000  Uiso   1.00
C749   C     0.51023   0.49534   0.56429   0.00000  Uiso   1.00
C750   C     0.58403   0.52898   0.56209   0.00000  Uiso   1.00
C751   C     0.45563   0.50446   0.91112   0.00000  Uiso   1.00
C752   C     0.52487   0.64435   0.78015   0.00000  Uiso   1.00
C753   C     0.47325   0.50198   0.85211   0.00000  Uiso   1.00
C754   C     0.52473   0.35394   0.78167   0.00000  Uiso   1.00
C755   C     0.49927   0.37575   0.75341   0.00000  Uiso   1.00
C756   C     0.47309   0.35492   0.72590   0.00000  Uiso   1.00
C757   C     0.47293   0.64551   0.72527   0.00000  Uiso   1.00
C758   C     0.49929   0.62395   0.75178   0.00000  Uiso   1.00
C759   C     0.65182   0.47126   0.72037   0.00000  Uiso   1.00
C760   C     0.36644   0.47130   0.72033   0.00000  Uiso   1.00
C761   C     0.34818   0.52874   0.77962   0.00000  Uiso   1.00
C762   C     0.63364   0.52880   0.77948   0.00000  Uiso   1.00
C763   C     0.49967   0.42001   0.75141   0.00000  Uiso   1.00
C764   C     0.52671   0.50012   0.64785   0.00000  Uiso   1.00
C765   C     0.59058   0.54375   0.51015   0.00000  Uiso   1.00
C766   C     0.54282   0.50588   0.58964   0.00000  Uiso   1.00
C767   C     0.41111   0.48652   0.94042   0.00000  Uiso   1.00
C768   C     0.39839   0.48048   0.99587   0.00000  Uiso   1.00
C769   C     0.43127   0.48947   0.52163   0.00000  Uiso   1.00
H770   H     0.60957   0.53742   0.58164   0.00000  Uiso   1.00
H771   H     0.45354   0.37170   0.70411   0.00000  Uiso   1.00
H772   H     0.45320   0.62933   0.70329   0.00000  Uiso   1.00
H773   H     0.64100   0.44830   0.69663   0.00000  Uiso   1.00
H774   H     0.39191   0.44837   0.69652   0.00000  Uiso   1.00
H775   H     0.35900   0.55172   0.80334   0.00000  Uiso   1.00
H776   H     0.60839   0.55200   0.80281   0.00000  Uiso   1.00
H777   H     0.59033   0.57351   0.91543   0.00000  Uiso   1.00
H778   H     0.62225   0.56208   0.98924   0.00000  Uiso   1.00
H779   H     0.48118   0.47457   0.58534   0.00000  Uiso   1.00
H780   H     0.38686   0.47590   0.92021   0.00000  Uiso   1.00
H781   H     0.41965   0.48339   0.56456   0.00000  Uiso   1.00
H782   H     0.36378   0.46703   0.51857   0.00000  Uiso   1.00
H783   H     0.53009   0.56013   0.87421   0.00000  Uiso   1.00
H784   H     0.54416   0.62681   0.80165   0.00000  Uiso   1.00
N785   N     0.38093   0.50001   0.75001   0.00000  Uiso   1.00
N786   N     0.61906   0.49998   0.75000   0.00000  Uiso   1.00
O787   O     0.46179   0.56108   0.75000   0.00000  Uiso   1.00
O788   O     0.53823   0.56107   0.75000   0.00000  Uiso   1.00
O789   O     0.44280   0.50000   0.82681   0.00000  Uiso   1.00
O790   O     0.51924   0.49999   0.82681   0.00000  Uiso   1.00
O791   O     0.46177   0.43893   0.74999   0.00000  Uiso   1.00
O792   O     0.53821   0.43892   0.74999   0.00000  Uiso   1.00
O793   O     0.48076   0.50001   0.67319   0.00000  Uiso   1.00
O794   O     0.55720   0.50000   0.67319   0.00000  Uiso   1.00
Zn795  Zn    0.44896   0.50001   0.75000   0.00000  Uiso   1.00
Zn796  Zn    0.55104   0.49999   0.75000   0.00000  Uiso   1.00
C797   C     0.54941   0.37443   0.81370   0.00000  Uiso   1.00
N798   N     0.56914   0.39082   0.83932   0.00000  Uiso   1.00
C799   C     0.83320   0.57994   0.75028   0.00000  Uiso   1.00
C800   C     0.81012   0.50706   0.99240   0.00000  Uiso   1.00
C801   C     0.81932   0.51932   0.93838   0.00000  Uiso   1.00
C802   C     0.84679   0.51301   0.51488   0.00000  Uiso   1.00
C803   C     0.88833   0.53679   0.98684   0.00000  Uiso   1.00
C804   C     0.89313   0.55400   0.93662   0.00000  Uiso   1.00
C805   C     0.85893   0.54553   0.91272   0.00000  Uiso   1.00
C806   C     0.84356   0.49534   0.56429   0.00000  Uiso   1.00
C807   C     0.91736   0.52898   0.56209   0.00000  Uiso   1.00
C808   C     0.78896   0.50446   0.91112   0.00000  Uiso   1.00
C809   C     0.85820   0.64435   0.78015   0.00000  Uiso   1.00
C810   C     0.80658   0.50198   0.85211   0.00000  Uiso   1.00
C811   C     0.85806   0.35394   0.78167   0.00000  Uiso   1.00
C812   C     0.83260   0.37575   0.75341   0.00000  Uiso   1.00
C813   C     0.80643   0.35492   0.72590   0.00000  Uiso   1.00
C814   C     0.80627   0.64551   0.72527   0.00000  Uiso   1.00
C815   C     0.83262   0.62395   0.75178   0.00000  Uiso   1.00
C816   C     0.98516   0.47126   0.72037   0.00000  Uiso   1.00
C817   C     0.69978   0.47130   0.72033   0.00000  Uiso   1.00
C818   C     0.68151   0.52874   0.77962   0.00000  Uiso   1.00
C819   C     0.96697   0.52880   0.77948   0.00000  Uiso   1.00
C820   C     0.83300   0.42001   0.75141   0.00000  Uiso   1.00
C821   C     0.86005   0.50012   0.64785   0.00000  Uiso   1.00
C822   C     0.92392   0.54375   0.51015   0.00000  Uiso   1.00
C823   C     0.87615   0.50588   0.58964   0.00000  Uiso   1.00
C824   C     0.74444   0.48652   0.94042   0.00000  Uiso   1.00
C825   C     0.73172   0.48048   0.99587   0.00000  Uiso   1.00
C826   C     0.76461   0.48947   0.52163   0.00000  Uiso   1.00
H827   H     0.94290   0.53742   0.58164   0.00000  Uiso   1.00
H828   H     0.78687   0.37170   0.70411   0.00000  Uiso   1.00
H829   H     0.78653   0.62933   0.70329   0.00000  Uiso   1.00
H830   H     0.97434   0.44830   0.69663   0.00000  Uiso   1.00
H831   H     0.72524   0.44837   0.69652   0.00000  Uiso   1.00
H832   H     0.69233   0.55172   0.80334   0.00000  Uiso   1.00
H833   H     0.94173   0.55200   0.80281   0.00000  Uiso   1.00
H834   H     0.92366   0.57351   0.91543   0.00000  Uiso   1.00
H835   H     0.95558   0.56208   0.98924   0.00000  Uiso   1.00
H836   H     0.81451   0.47457   0.58534   0.00000  Uiso   1.00
H837   H     0.72019   0.47590   0.92021   0.00000  Uiso   1.00
H838   H     0.75299   0.48339   0.56456   0.00000  Uiso   1.00
H839   H     0.69711   0.46703   0.51857   0.00000  Uiso   1.00
H840   H     0.86343   0.56013   0.87421   0.00000  Uiso   1.00
H841   H     0.87749   0.62681   0.80165   0.00000  Uiso   1.00
N842   N     0.71426   0.50001   0.75001   0.00000  Uiso   1.00
N843   N     0.95239   0.49998   0.75000   0.00000  Uiso   1.00
O844   O     0.79512   0.56108   0.75000   0.00000  Uiso   1.00
O845   O     0.87157   0.56107   0.75000   0.00000  Uiso   1.00
O846   O     0.77613   0.50000   0.82681   0.00000  Uiso   1.00
O847   O     0.85258   0.49999   0.82681   0.00000  Uiso   1.00
O848   O     0.79510   0.43893   0.74999   0.00000  Uiso   1.00
O849   O     0.87154   0.43892   0.74999   0.00000  Uiso   1.00
O850   O     0.81409   0.50001   0.67319   0.00000  Uiso   1.00
O851   O     0.89053   0.50000   0.67319   0.00000  Uiso   1.00
Zn852  Zn    0.78229   0.50001   0.75000   0.00000  Uiso   1.00
Zn853  Zn    0.88438   0.49999   0.75000   0.00000  Uiso   1.00
C854   C     0.88275   0.37443   0.81370   0.00000  Uiso   1.00
N855   N     0.90247   0.39082   0.83932   0.00000  Uiso   1.00
C856   C     0.16653   0.91328   0.75028   0.00000  Uiso   1.00
C857   C     0.14345   0.84039   0.99240   0.00000  Uiso   1.00
C858   C     0.15265   0.85266   0.93838   0.00000  Uiso   1.00
C859   C     0.18013   0.84634   0.51488   0.00000  Uiso   1.00
C860   C     0.22167   0.87012   0.98684   0.00000  Uiso   1.00
C861   C     0.22647   0.88733   0.93662   0.00000  Uiso   1.00
C862   C     0.19227   0.87886   0.91272   0.00000  Uiso   1.00
C863   C     0.17689   0.82868   0.56429   0.00000  Uiso   1.00
C864   C     0.25070   0.86232   0.56209   0.00000  Uiso   1.00
C865   C     0.12230   0.83779   0.91112   0.00000  Uiso   1.00
C866   C     0.19153   0.97769   0.78015   0.00000  Uiso   1.00
C867   C     0.13992   0.83532   0.85211   0.00000  Uiso   1.00
C868   C     0.19140   0.68727   0.78167   0.00000  Uiso   1.00
C869   C     0.16593   0.70908   0.75341   0.00000  Uiso   1.00
C870   C     0.13976   0.68825   0.72590   0.00000  Uiso   1.00
C871   C     0.13960   0.97884   0.72527   0.00000  Uiso   1.00
C872   C     0.16596   0.95729   0.75178   0.00000  Uiso   1.00
C873   C     0.31849   0.80459   0.72037   0.00000  Uiso   1.00
C874   C     0.03311   0.80463   0.72033   0.00000  Uiso   1.00
C875   C     0.01485   0.86207   0.77962   0.00000  Uiso   1.00
C876   C     0.30031   0.86213   0.77948   0.00000  Uiso   1.00
C877   C     0.16634   0.75334   0.75141   0.00000  Uiso   1.00
C878   C     0.19338   0.83345   0.64785   0.00000  Uiso   1.00
C879   C     0.25725   0.87708   0.51015   0.00000  Uiso   1.00
C880   C     0.20948   0.83921   0.58964   0.00000  Uiso   1.00
C881   C     0.07777   0.81985   0.94042   0.00000  Uiso   1.00
C882   C     0.06505   0.81381   0.99587   0.00000  Uiso   1.00
C883   C     0.09794   0.82280   0.52163   0.00000  Uiso   1.00
H884   H     0.27623   0.87075   0.58164   0.00000  Uiso   1.00
H885   H     0.12021   0.70503   0.70411   0.00000  Uiso   1.00
H886   H     0.11987   0.96266   0.70329   0.00000  Uiso   1.00
H887   H     0.30767   0.78163   0.69663   0.00000  Uiso   1.00
H888   H     0.05858   0.78170   0.69652   0.00000  Uiso   1.00
H889   H     0.02567   0.88505   0.80334   0.00000  Uiso   1.00
H890   H     0.27506   0.88534   0.80281   0.00000  Uiso   1.00
H891   H     0.25700   0.90684   0.91543   0.00000  Uiso   1.00
H892   H     0.28892   0.89542   0.98924   0.00000  Uiso   1.00
H893   H     0.14785   0.80791   0.58534   0.00000  Uiso   1.00
H894   H     0.05353   0.80923   0.92021   0.00000  Uiso   1.00
H895   H     0.08632   0.81672   0.56456   0.00000  Uiso   1.00
H896   H     0.03045   0.80036   0.51857   0.00000  Uiso   1.00
H897   H     0.19676   0.89346   0.87421   0.00000  Uiso   1.00
H898   H     0.21082   0.96014   0.80165   0.00000  Uiso   1.00
N899   N     0.04760   0.83334   0.75001   0.00000  Uiso   1.00
N900   N     0.28573   0.83331   0.75000   0.00000  Uiso   1.00
O901   O     0.12846   0.89442   0.75000   0.00000  Uiso   1.00
O902   O     0.20490   0.89441   0.75000   0.00000  Uiso   1.00
O903   O     0.10947   0.83333   0.82681   0.00000  Uiso   1.00
O904   O     0.18591   0.83332   0.82681   0.00000  Uiso   1.00
O905   O     0.12843   0.77226   0.74999   0.00000  Uiso   1.00
O906   O     0.20488   0.77225   0.74999   0.00000  Uiso   1.00
O907   O     0.14742   0.83335   0.67319   0.00000  Uiso   1.00
O908   O     0.22387   0.83334   0.67319   0.00000  Uiso   1.00
Zn909  Zn    0.11562   0.83334   0.75000   0.00000  Uiso   1.00
Zn910  Zn    0.21771   0.83333   0.75000   0.00000  Uiso   1.00
C911   C     0.21608   0.70776   0.81370   0.00000  Uiso   1.00
N912   N     0.23581   0.72416   0.83932   0.00000  Uiso   1.00
C913   C     0.49986   0.91328   0.75028   0.00000  Uiso   1.00
C914   C     0.47678   0.84039   0.99240   0.00000  Uiso   1.00
C915   C     0.48599   0.85266   0.93838   0.00000  Uiso   1.00
C916   C     0.51346   0.84634   0.51488   0.00000  Uiso   1.00
C917   C     0.55500   0.87012   0.98684   0.00000  Uiso   1.00
C918   C     0.55980   0.88733   0.93662   0.00000  Uiso   1.00
C919   C     0.52560   0.87886   0.91272   0.00000  Uiso   1.00
C920   C     0.51023   0.82868   0.56429   0.00000  Uiso   1.00
C921   C     0.58403   0.86232   0.56209   0.00000  Uiso   1.00
C922   C     0.45563   0.83779   0.91112   0.00000  Uiso   1.00
C923   C     0.52487   0.97769   0.78015   0.00000  Uiso   1.00
C924   C     0.47325   0.83532   0.85211   0.00000  Uiso   1.00
C925   C     0.52473   0.68727   0.78167   0.00000  Uiso   1.00
C926   C     0.49927   0.70908   0.75341   0.00000  Uiso   1.00
C927   C     0.47309   0.68825   0.72590   0.00000  Uiso   1.00
C928   C     0.47293   0.97884   0.72527   0.00000  Uiso   1.00
C929   C     0.49929   0.95729   0.75178   0.00000  Uiso   1.00
C930   C     0.65182   0.80459   0.72037   0.00000  Uiso   1.00
C931   C     0.36644   0.80463   0.72033   0.00000  Uiso   1.00
C932   C     0.34818   0.86207   0.77962   0.00000  Uiso   1.00
C933   C     0.63364   0.86213   0.77948   0.00000  Uiso   1.00
C934   C     0.49967   0.75334   0.75141   0.00000  Uiso   1.00
C935   C     0.52671   0.83345   0.64785   0.00000  Uiso   1.00
C936   C     0.59058   0.87708   0.51015   0.00000  Uiso   1.00
C937   C     0.54282   0.83921   0.58964   0.00000  Uiso   1.00
C938   C     0.41111   0.81985   0.94042   0.00000  Uiso   1.00
C939   C     0.39839   0.81381   0.99587   0.00000  Uiso   1.00
C940   C     0.43127   0.82280   0.52163   0.00000  Uiso   1.00
H941   H     0.60957   0.87075   0.58164   0.00000  Uiso   1.00
H942   H     0.45354   0.70503   0.70411   0.00000  Uiso   1.00
H943   H     0.45320   0.96266   0.70329   0.00000  Uiso   1.00
H944   H     0.64100   0.78163   0.69663   0.00000  Uiso   1.00
H945   H     0.39191   0.78170   0.69652   0.00000  Uiso   1.00
H946   H     0.35900   0.88505   0.80334   0.00000  Uiso   1.00
H947   H     0.60839   0.88534   0.80281   0.00000  Uiso   1.00
H948   H     0.59033   0.90684   0.91543   0.00000  Uiso   1.00
H949   H     0.62225   0.89542   0.98924   0.00000  Uiso   1.00
H950   H     0.48118   0.80791   0.58534   0.00000  Uiso   1.00
H951   H     0.38686   0.80923   0.92021   0.00000  Uiso   1.00
H952   H     0.41965   0.81672   0.56456   0.00000  Uiso   1.00
H953   H     0.36378   0.80036   0.51857   0.00000  Uiso   1.00
H954   H     0.53009   0.89346   0.87421   0.00000  Uiso   1.00
H955   H     0.54416   0.96014   0.80165   0.00000  Uiso   1.00
N956   N     0.38093   0.83334   0.75001   0.00000  Uiso   1.00
N957   N     0.61906   0.83331   0.75000   0.00000  Uiso   1.00
O958   O     0.46179   0.89442   0.75000   0.00000  Uiso   1.00
O959   O     0.53823   0.89441   0.75000   0.00000  Uiso   1.00
O960   O     0.44280   0.83333   0.82681   0.00000  Uiso   1.00
O961   O     0.51924   0.83332   0.82681   0.00000  Uiso   1.00
O962   O     0.46177   0.77226   0.74999   0.00000  Uiso   1.00
O963   O     0.53821   0.77225   0.74999   0.00000  Uiso   1.00
O964   O     0.48076   0.83335   0.67319   0.00000  Uiso   1.00
O965   O     0.55720   0.83334   0.67319   0.00000  Uiso   1.00
Zn966  Zn    0.44896   0.83334   0.75000   0.00000  Uiso   1.00
Zn967  Zn    0.55104   0.83333   0.75000   0.00000  Uiso   1.00
C968   C     0.54941   0.70776   0.81370   0.00000  Uiso   1.00
N969   N     0.56914   0.72416   0.83932   0.00000  Uiso   1.00
C970   C     0.83320   0.91328   0.75028   0.00000  Uiso   1.00
C971   C     0.81012   0.84039   0.99240   0.00000  Uiso   1.00
C972   C     0.81932   0.85266   0.93838   0.00000  Uiso   1.00
C973   C     0.84679   0.84634   0.51488   0.00000  Uiso   1.00
C974   C     0.88833   0.87012   0.98684   0.00000  Uiso   1.00
C975   C     0.89313   0.88733   0.93662   0.00000  Uiso   1.00
C976   C     0.85893   0.87886   0.91272   0.00000  Uiso   1.00
C977   C     0.84356   0.82868   0.56429   0.00000  Uiso   1.00
C978   C     0.91736   0.86232   0.56209   0.00000  Uiso   1.00
C979   C     0.78896   0.83779   0.91112   0.00000  Uiso   1.00
C980   C     0.85820   0.97769   0.78015   0.00000  Uiso   1.00
C981   C     0.80658   0.83532   0.85211   0.00000  Uiso   1.00
C982   C     0.85806   0.68727   0.78167   0.00000  Uiso   1.00
C983   C     0.83260   0.70908   0.75341   0.00000  Uiso   1.00
C984   C     0.80643   0.68825   0.72590   0.00000  Uiso   1.00
C985   C     0.80627   0.97884   0.72527   0.00000  Uiso   1.00
C986   C     0.83262   0.95729   0.75178   0.00000  Uiso   1.00
C987   C     0.98516   0.80459   0.72037   0.00000  Uiso   1.00
C988   C     0.69978   0.80463   0.72033   0.00000  Uiso   1.00
C989   C     0.68151   0.86207   0.77962   0.00000  Uiso   1.00
C990   C     0.96697   0.86213   0.77948   0.00000  Uiso   1.00
C991   C     0.83300   0.75334   0.75141   0.00000  Uiso   1.00
C992   C     0.86005   0.83345   0.64785   0.00000  Uiso   1.00
C993   C     0.92392   0.87708   0.51015   0.00000  Uiso   1.00
C994   C     0.87615   0.83921   0.58964   0.00000  Uiso   1.00
C995   C     0.74444   0.81985   0.94042   0.00000  Uiso   1.00
C996   C     0.73172   0.81381   0.99587   0.00000  Uiso   1.00
C997   C     0.76461   0.82280   0.52163   0.00000  Uiso   1.00
H998   H     0.94290   0.87075   0.58164   0.00000  Uiso   1.00
H999   H     0.78687   0.70503   0.70411   0.00000  Uiso   1.00
H1000  H     0.78653   0.96266   0.70329   0.00000  Uiso   1.00
H1001  H     0.97434   0.78163   0.69663   0.00000  Uiso   1.00
H1002  H     0.72524   0.78170   0.69652   0.00000  Uiso   1.00
H1003  H     0.69233   0.88505   0.80334   0.00000  Uiso   1.00
H1004  H     0.94173   0.88534   0.80281   0.00000  Uiso   1.00
H1005  H     0.92366   0.90684   0.91543   0.00000  Uiso   1.00
H1006  H     0.95558   0.89542   0.98924   0.00000  Uiso   1.00
H1007  H     0.81451   0.80791   0.58534   0.00000  Uiso   1.00
H1008  H     0.72019   0.80923   0.92021   0.00000  Uiso   1.00
H1009  H     0.75299   0.81672   0.56456   0.00000  Uiso   1.00
H1010  H     0.69711   0.80036   0.51857   0.00000  Uiso   1.00
H1011  H     0.86343   0.89346   0.87421   0.00000  Uiso   1.00
H1012  H     0.87749   0.96014   0.80165   0.00000  Uiso   1.00
N1013  N     0.71426   0.83334   0.75001   0.00000  Uiso   1.00
N1014  N     0.95239   0.83331   0.75000   0.00000  Uiso   1.00
O1015  O     0.79512   0.89442   0.75000   0.00000  Uiso   1.00
O1016  O     0.87157   0.89441   0.75000   0.00000  Uiso   1.00
O1017  O     0.77613   0.83333   0.82681   0.00000  Uiso   1.00
O1018  O     0.85258   0.83332   0.82681   0.00000  Uiso   1.00
O1019  O     0.79510   0.77226   0.74999   0.00000  Uiso   1.00
O1020  O     0.87154   0.77225   0.74999   0.00000  Uiso   1.00
O1021  O     0.81409   0.83335   0.67319   0.00000  Uiso   1.00
O1022  O     0.89053   0.83334   0.67319   0.00000  Uiso   1.00
Zn1023 Zn    0.78229   0.83334   0.75000   0.00000  Uiso   1.00
Zn1024 Zn    0.88438   0.83333   0.75000   0.00000  Uiso   1.00
C1025  C     0.88275   0.70776   0.81370   0.00000  Uiso   1.00
N1026  N     0.90247   0.72416   0.83932   0.00000  Uiso   1.00
loop_
_geom_bond_atom_site_label_1
_geom_bond_atom_site_label_2
_geom_bond_distance
_geom_bond_site_symmetry_2
_ccdc_geom_bond_type
C1     C17     1.411   .     S
C1     O47     1.281   .     A
C1     O46     1.281   .     A
C2     C3      1.407   .     A
C2     C517    1.414   .     S
C2     C541    1.419   .     S
C3     C10     1.410   .     A
C3     C7      1.413   .     A
C4     C8      1.390   .     A
C4     C515    1.414   1_554 S
C4     C518    1.421   1_554 S
C5     C6      1.392   .     A
C5     C517    1.421   .     S
C5     C537    1.405   .     S
C6     C7      1.388   .     A
C6     H36     1.084   .     S
C7     H42     1.081   .     S
C8     C25     1.388   .     A
C8     H38     1.079   .     S
C9     C24     1.394   .     A
C9     H29     1.083   .     S
C9     C25     1.399   .     A
C10    C12     1.459   .     S
C10    C26     1.402   .     A
C11    H43     1.086   .     S
C11    C17     1.394   .     A
C11    C184    1.376   .     S
C12    O48     1.291   .     A
C12    O49     1.294   .     A
C13    C56     1.447   .     S
C13    C14     1.409   .     A
C13    C353    1.376   1_545 S
C14    C22     1.419   .     S
C14    C15     1.397   .     A
C15    H30     1.084   .     S
C15    C358    1.370   1_545 S
C16    H31     1.084   .     S
C16    C17     1.392   .     A
C16    C186    1.370   .     S
C18    H32     1.082   .     S
C18    N45     1.366   .     A
C18    C76     1.417   .     S
C19    N44     1.367   .     A
C19    H33     1.082   .     S
C19    C132    1.417   1_455 S
C20    H34     1.082   .     S
C20    N44     1.366   .     A
C20    C135    1.416   1_455 S
C21    H35     1.080   .     S
C21    N45     1.367   .     A
C21    C77     1.416   .     S
C22    O51     1.281   .     A
C22    O50     1.284   .     A
C23    C25     1.450   .     S
C23    O52     1.292   .     A
C23    O53     1.291   .     A
C24    C518    1.405   1_554 S
C24    H550    1.084   1_554 S
C26    C27     1.388   .     A
C26    H39     1.083   .     S
C27    C541    1.392   .     S
C27    H554    1.083   .     S
C28    H40     1.079   .     S
C28    C540    1.392   1_554 S
C28    C515    1.419   1_554 S
H37    C537    1.084   .     S
H41    C540    1.083   1_554 S
N44    Zn54    2.010   .     S
N45    Zn55    2.010   .     S
O46    Zn54    1.995   .     S
O47    Zn55    1.992   .     S
O48    Zn54    1.963   .     S
O49    Zn55    1.912   .     S
O50    Zn54    1.992   .     S
O51    Zn55    1.995   .     S
O52    Zn54    1.912   .     S
O53    Zn55    1.963   .     S
C56    N57     1.157   .     T
C58    C74     1.411   .     S
C58    O104    1.281   .     A
C58    O103    1.281   .     A
C59    C60     1.407   .     A
C59    C574    1.414   .     S
C59    C598    1.419   .     S
C60    C67     1.410   .     A
C60    C64     1.413   .     A
C61    C65     1.390   .     A
C61    C572    1.414   1_554 S
C61    C575    1.421   1_554 S
C62    C63     1.392   .     A
C62    C574    1.421   .     S
C62    C594    1.405   .     S
C63    C64     1.388   .     A
C63    H93     1.084   .     S
C64    H99     1.081   .     S
C65    C82     1.388   .     A
C65    H95     1.079   .     S
C66    C81     1.394   .     A
C66    H86     1.083   .     S
C66    C82     1.399   .     A
C67    C69     1.459   .     S
C67    C83     1.402   .     A
C68    H100    1.086   .     S
C68    C74     1.394   .     A
C68    C241    1.376   .     S
C69    O105    1.291   .     A
C69    O106    1.294   .     A
C70    C113    1.447   .     S
C70    C71     1.409   .     A
C70    C410    1.376   1_545 S
C71    C79     1.419   .     S
C71    C72     1.397   .     A
C72    H87     1.084   .     S
C72    C415    1.370   1_545 S
C73    H88     1.084   .     S
C73    C74     1.392   .     A
C73    C243    1.370   .     S
C75    H89     1.082   .     S
C75    N102    1.366   .     A
C75    C133    1.417   .     S
C76    N101    1.367   .     A
C76    H90     1.082   .     S
C77    H91     1.082   .     S
C77    N101    1.366   .     A
C78    H92     1.080   .     S
C78    N102    1.367   .     A
C78    C134    1.416   .     S
C79    O108    1.281   .     A
C79    O107    1.284   .     A
C80    C82     1.450   .     S
C80    O109    1.292   .     A
C80    O110    1.291   .     A
C81    C575    1.405   1_554 S
C81    H607    1.084   1_554 S
C83    C84     1.388   .     A
C83    H96     1.083   .     S
C84    C598    1.392   .     S
C84    H611    1.083   .     S
C85    H97     1.079   .     S
C85    C597    1.392   1_554 S
C85    C572    1.419   1_554 S
H94    C594    1.084   .     S
H98    C597    1.083   1_554 S
N101   Zn111   2.010   .     S
N102   Zn112   2.010   .     S
O103   Zn111   1.995   .     S
O104   Zn112   1.992   .     S
O105   Zn111   1.963   .     S
O106   Zn112   1.912   .     S
O107   Zn111   1.992   .     S
O108   Zn112   1.995   .     S
O109   Zn111   1.912   .     S
O110   Zn112   1.963   .     S
C113   N114    1.157   .     T
C115   C131    1.411   .     S
C115   O161    1.281   .     A
C115   O160    1.281   .     A
C116   C117    1.407   .     A
C116   C631    1.414   .     S
C116   C655    1.419   .     S
C117   C124    1.410   .     A
C117   C121    1.413   .     A
C118   C122    1.390   .     A
C118   C629    1.414   1_554 S
C118   C632    1.421   1_554 S
C119   C120    1.392   .     A
C119   C631    1.421   .     S
C119   C651    1.405   .     S
C120   C121    1.388   .     A
C120   H150    1.084   .     S
C121   H156    1.081   .     S
C122   C139    1.388   .     A
C122   H152    1.079   .     S
C123   C138    1.394   .     A
C123   H143    1.083   .     S
C123   C139    1.399   .     A
C124   C126    1.459   .     S
C124   C140    1.402   .     A
C125   H157    1.086   .     S
C125   C131    1.394   .     A
C125   C298    1.376   .     S
C126   O162    1.291   .     A
C126   O163    1.294   .     A
C127   C170    1.447   .     S
C127   C128    1.409   .     A
C127   C467    1.376   1_545 S
C128   C136    1.419   .     S
C128   C129    1.397   .     A
C129   H144    1.084   .     S
C129   C472    1.370   1_545 S
C130   H145    1.084   .     S
C130   C131    1.392   .     A
C130   C300    1.370   .     S
C132   H146    1.082   .     S
C132   N159    1.366   .     A
C132   C19     1.417   1_655 S
C133   N158    1.367   .     A
C133   H147    1.082   .     S
C134   H148    1.082   .     S
C134   N158    1.366   .     A
C135   H149    1.080   .     S
C135   N159    1.367   .     A
C135   C20     1.416   1_655 S
C136   O165    1.281   .     A
C136   O164    1.284   .     A
C137   C139    1.450   .     S
C137   O166    1.292   .     A
C137   O167    1.291   .     A
C138   C632    1.405   1_554 S
C138   H664    1.084   1_554 S
C140   C141    1.388   .     A
C140   H153    1.083   .     S
C141   C655    1.392   .     S
C141   H668    1.083   .     S
C142   H154    1.079   .     S
C142   C654    1.392   1_554 S
C142   C629    1.419   1_554 S
H151   C651    1.084   .     S
H155   C654    1.083   1_554 S
N158   Zn168   2.010   .     S
N159   Zn169   2.010   .     S
O160   Zn168   1.995   .     S
O161   Zn169   1.992   .     S
O162   Zn168   1.963   .     S
O163   Zn169   1.912   .     S
O164   Zn168   1.992   .     S
O165   Zn169   1.995   .     S
O166   Zn168   1.912   .     S
O167   Zn169   1.963   .     S
C170   N171    1.157   .     T
C172   C188    1.411   .     S
C172   O218    1.281   .     A
C172   O217    1.281   .     A
C173   C174    1.407   .     A
C173   C688    1.414   .     S
C173   C712    1.419   .     S
C174   C181    1.410   .     A
C174   C178    1.413   .     A
C175   C179    1.390   .     A
C175   C686    1.414   1_554 S
C175   C689    1.421   1_554 S
C176   C177    1.392   .     A
C176   C688    1.421   .     S
C176   C708    1.405   .     S
C177   C178    1.388   .     A
C177   H207    1.084   .     S
C178   H213    1.081   .     S
C179   C196    1.388   .     A
C179   H209    1.079   .     S
C180   C195    1.394   .     A
C180   H200    1.083   .     S
C180   C196    1.399   .     A
C181   C183    1.459   .     S
C181   C197    1.402   .     A
C182   H214    1.086   .     S
C182   C188    1.394   .     A
C182   C355    1.376   .     S
C183   O219    1.291   .     A
C183   O220    1.294   .     A
C184   C227    1.447   .     S
C184   C185    1.409   .     A
C185   C193    1.419   .     S
C185   C186    1.397   .     A
C186   H201    1.084   .     S
C187   H202    1.084   .     S
C187   C188    1.392   .     A
C187   C357    1.370   .     S
C189   H203    1.082   .     S
C189   N216    1.366   .     A
C189   C247    1.417   .     S
C190   N215    1.367   .     A
C190   H204    1.082   .     S
C190   C303    1.417   1_455 S
C191   H205    1.082   .     S
C191   N215    1.366   .     A
C191   C306    1.416   1_455 S
C192   H206    1.080   .     S
C192   N216    1.367   .     A
C192   C248    1.416   .     S
C193   O222    1.281   .     A
C193   O221    1.284   .     A
C194   C196    1.450   .     S
C194   O223    1.292   .     A
C194   O224    1.291   .     A
C195   C689    1.405   1_554 S
C195   H721    1.084   1_554 S
C197   C198    1.388   .     A
C197   H210    1.083   .     S
C198   C712    1.392   .     S
C198   H725    1.083   .     S
C199   H211    1.079   .     S
C199   C711    1.392   1_554 S
C199   C686    1.419   1_554 S
H208   C708    1.084   .     S
H212   C711    1.083   1_554 S
N215   Zn225   2.010   .     S
N216   Zn226   2.010   .     S
O217   Zn225   1.995   .     S
O218   Zn226   1.992   .     S
O219   Zn225   1.963   .     S
O220   Zn226   1.912   .     S
O221   Zn225   1.992   .     S
O222   Zn226   1.995   .     S
O223   Zn225   1.912   .     S
O224   Zn226   1.963   .     S
C227   N228    1.157   .     T
C229   C245    1.411   .     S
C229   O275    1.281   .     A
C229   O274    1.281   .     A
C230   C231    1.407   .     A
C230   C745    1.414   .     S
C230   C769    1.419   .     S
C231   C238    1.410   .     A
C231   C235    1.413   .     A
C232   C236    1.390   .     A
C232   C743    1.414   1_554 S
C232   C746    1.421   1_554 S
C233   C234    1.392   .     A
C233   C745    1.421   .     S
C233   C765    1.405   .     S
C234   C235    1.388   .     A
C234   H264    1.084   .     S
C235   H270    1.081   .     S
C236   C253    1.388   .     A
C236   H266    1.079   .     S
C237   C252    1.394   .     A
C237   H257    1.083   .     S
C237   C253    1.399   .     A
C238   C240    1.459   .     S
C238   C254    1.402   .     A
C239   H271    1.086   .     S
C239   C245    1.394   .     A
C239   C412    1.376   .     S
C240   O276    1.291   .     A
C240   O277    1.294   .     A
C241   C284    1.447   .     S
C241   C242    1.409   .     A
C242   C250    1.419   .     S
C242   C243    1.397   .     A
C243   H258    1.084   .     S
C244   H259    1.084   .     S
C244   C245    1.392   .     A
C244   C414    1.370   .     S
C246   H260    1.082   .     S
C246   N273    1.366   .     A
C246   C304    1.417   .     S
C247   N272    1.367   .     A
C247   H261    1.082   .     S
C248   H262    1.082   .     S
C248   N272    1.366   .     A
C249   H263    1.080   .     S
C249   N273    1.367   .     A
C249   C305    1.416   .     S
C250   O279    1.281   .     A
C250   O278    1.284   .     A
C251   C253    1.450   .     S
C251   O280    1.292   .     A
C251   O281    1.291   .     A
C252   C746    1.405   1_554 S
C252   H778    1.084   1_554 S
C254   C255    1.388   .     A
C254   H267    1.083   .     S
C255   C769    1.392   .     S
C255   H782    1.083   .     S
C256   H268    1.079   .     S
C256   C768    1.392   1_554 S
C256   C743    1.419   1_554 S
H265   C765    1.084   .     S
H269   C768    1.083   1_554 S
N272   Zn282   2.010   .     S
N273   Zn283   2.010   .     S
O274   Zn282   1.995   .     S
O275   Zn283   1.992   .     S
O276   Zn282   1.963   .     S
O277   Zn283   1.912   .     S
O278   Zn282   1.992   .     S
O279   Zn283   1.995   .     S
O280   Zn282   1.912   .     S
O281   Zn283   1.963   .     S
C284   N285    1.157   .     T
C286   C302    1.411   .     S
C286   O332    1.281   .     A
C286   O331    1.281   .     A
C287   C288    1.407   .     A
C287   C802    1.414   .     S
C287   C826    1.419   .     S
C288   C295    1.410   .     A
C288   C292    1.413   .     A
C289   C293    1.390   .     A
C289   C800    1.414   1_554 S
C289   C803    1.421   1_554 S
C290   C291    1.392   .     A
C290   C802    1.421   .     S
C290   C822    1.405   .     S
C291   C292    1.388   .     A
C291   H321    1.084   .     S
C292   H327    1.081   .     S
C293   C310    1.388   .     A
C293   H323    1.079   .     S
C294   C309    1.394   .     A
C294   H314    1.083   .     S
C294   C310    1.399   .     A
C295   C297    1.459   .     S
C295   C311    1.402   .     A
C296   H328    1.086   .     S
C296   C302    1.394   .     A
C296   C469    1.376   .     S
C297   O333    1.291   .     A
C297   O334    1.294   .     A
C298   C341    1.447   .     S
C298   C299    1.409   .     A
C299   C307    1.419   .     S
C299   C300    1.397   .     A
C300   H315    1.084   .     S
C301   H316    1.084   .     S
C301   C302    1.392   .     A
C301   C471    1.370   .     S
C303   H317    1.082   .     S
C303   N330    1.366   .     A
C303   C190    1.417   1_655 S
C304   N329    1.367   .     A
C304   H318    1.082   .     S
C305   H319    1.082   .     S
C305   N329    1.366   .     A
C306   H320    1.080   .     S
C306   N330    1.367   .     A
C306   C191    1.416   1_655 S
C307   O336    1.281   .     A
C307   O335    1.284   .     A
C308   C310    1.450   .     S
C308   O337    1.292   .     A
C308   O338    1.291   .     A
C309   C803    1.405   1_554 S
C309   H835    1.084   1_554 S
C311   C312    1.388   .     A
C311   H324    1.083   .     S
C312   C826    1.392   .     S
C312   H839    1.083   .     S
C313   H325    1.079   .     S
C313   C825    1.392   1_554 S
C313   C800    1.419   1_554 S
H322   C822    1.084   .     S
H326   C825    1.083   1_554 S
N329   Zn339   2.010   .     S
N330   Zn340   2.010   .     S
O331   Zn339   1.995   .     S
O332   Zn340   1.992   .     S
O333   Zn339   1.963   .     S
O334   Zn340   1.912   .     S
O335   Zn339   1.992   .     S
O336   Zn340   1.995   .     S
O337   Zn339   1.912   .     S
O338   Zn340   1.963   .     S
C341   N342    1.157   .     T
C343   C359    1.411   .     S
C343   O389    1.281   .     A
C343   O388    1.281   .     A
C344   C345    1.407   .     A
C344   C859    1.414   .     S
C344   C883    1.419   .     S
C345   C352    1.410   .     A
C345   C349    1.413   .     A
C346   C350    1.390   .     A
C346   C857    1.414   1_554 S
C346   C860    1.421   1_554 S
C347   C348    1.392   .     A
C347   C859    1.421   .     S
C347   C879    1.405   .     S
C348   C349    1.388   .     A
C348   H378    1.084   .     S
C349   H384    1.081   .     S
C350   C367    1.388   .     A
C350   H380    1.079   .     S
C351   C366    1.394   .     A
C351   H371    1.083   .     S
C351   C367    1.399   .     A
C352   C354    1.459   .     S
C352   C368    1.402   .     A
C353   H385    1.086   .     S
C353   C359    1.394   .     A
C353   C13     1.376   1_565 S
C354   O390    1.291   .     A
C354   O391    1.294   .     A
C355   C398    1.447   .     S
C355   C356    1.409   .     A
C356   C364    1.419   .     S
C356   C357    1.397   .     A
C357   H372    1.084   .     S
C358   H373    1.084   .     S
C358   C359    1.392   .     A
C358   C15     1.370   1_565 S
C360   H374    1.082   .     S
C360   N387    1.366   .     A
C360   C418    1.417   .     S
C361   N386    1.367   .     A
C361   H375    1.082   .     S
C361   C474    1.417   1_455 S
C362   H376    1.082   .     S
C362   N386    1.366   .     A
C362   C477    1.416   1_455 S
C363   H377    1.080   .     S
C363   N387    1.367   .     A
C363   C419    1.416   .     S
C364   O393    1.281   .     A
C364   O392    1.284   .     A
C365   C367    1.450   .     S
C365   O394    1.292   .     A
C365   O395    1.291   .     A
C366   C860    1.405   1_554 S
C366   H892    1.084   1_554 S
C368   C369    1.388   .     A
C368   H381    1.083   .     S
C369   C883    1.392   .     S
C369   H896    1.083   .     S
C370   H382    1.079   .     S
C370   C882    1.392   1_554 S
C370   C857    1.419   1_554 S
H379   C879    1.084   .     S
H383   C882    1.083   1_554 S
N386   Zn396   2.010   .     S
N387   Zn397   2.010   .     S
O388   Zn396   1.995   .     S
O389   Zn397   1.992   .     S
O390   Zn396   1.963   .     S
O391   Zn397   1.912   .     S
O392   Zn396   1.992   .     S
O393   Zn397   1.995   .     S
O394   Zn396   1.912   .     S
O395   Zn397   1.963   .     S
C398   N399    1.157   .     T
C400   C416    1.411   .     S
C400   O446    1.281   .     A
C400   O445    1.281   .     A
C401   C402    1.407   .     A
C401   C916    1.414   .     S
C401   C940    1.419   .     S
C402   C409    1.410   .     A
C402   C406    1.413   .     A
C403   C407    1.390   .     A
C403   C914    1.414   1_554 S
C403   C917    1.421   1_554 S
C404   C405    1.392   .     A
C404   C916    1.421   .     S
C404   C936    1.405   .     S
C405   C406    1.388   .     A
C405   H435    1.084   .     S
C406   H441    1.081   .     S
C407   C424    1.388   .     A
C407   H437    1.079   .     S
C408   C423    1.394   .     A
C408   H428    1.083   .     S
C408   C424    1.399   .     A
C409   C411    1.459   .     S
C409   C425    1.402   .     A
C410   H442    1.086   .     S
C410   C416    1.394   .     A
C410   C70     1.376   1_565 S
C411   O447    1.291   .     A
C411   O448    1.294   .     A
C412   C455    1.447   .     S
C412   C413    1.409   .     A
C413   C421    1.419   .     S
C413   C414    1.397   .     A
C414   H429    1.084   .     S
C415   H430    1.084   .     S
C415   C416    1.392   .     A
C415   C72     1.370   1_565 S
C417   H431    1.082   .     S
C417   N444    1.366   .     A
C417   C475    1.417   .     S
C418   N443    1.367   .     A
C418   H432    1.082   .     S
C419   H433    1.082   .     S
C419   N443    1.366   .     A
C420   H434    1.080   .     S
C420   N444    1.367   .     A
C420   C476    1.416   .     S
C421   O450    1.281   .     A
C421   O449    1.284   .     A
C422   C424    1.450   .     S
C422   O451    1.292   .     A
C422   O452    1.291   .     A
C423   C917    1.405   1_554 S
C423   H949    1.084   1_554 S
C425   C426    1.388   .     A
C425   H438    1.083   .     S
C426   C940    1.392   .     S
C426   H953    1.083   .     S
C427   H439    1.079   .     S
C427   C939    1.392   1_554 S
C427   C914    1.419   1_554 S
H436   C936    1.084   .     S
H440   C939    1.083   1_554 S
N443   Zn453   2.010   .     S
N444   Zn454   2.010   .     S
O445   Zn453   1.995   .     S
O446   Zn454   1.992   .     S
O447   Zn453   1.963   .     S
O448   Zn454   1.912   .     S
O449   Zn453   1.992   .     S
O450   Zn454   1.995   .     S
O451   Zn453   1.912   .     S
O452   Zn454   1.963   .     S
C455   N456    1.157   .     T
C457   C473    1.411   .     S
C457   O503    1.281   .     A
C457   O502    1.281   .     A
C458   C459    1.407   .     A
C458   C973    1.414   .     S
C458   C997    1.419   .     S
C459   C466    1.410   .     A
C459   C463    1.413   .     A
C460   C464    1.390   .     A
C460   C971    1.414   1_554 S
C460   C974    1.421   1_554 S
C461   C462    1.392   .     A
C461   C973    1.421   .     S
C461   C993    1.405   .     S
C462   C463    1.388   .     A
C462   H492    1.084   .     S
C463   H498    1.081   .     S
C464   C481    1.388   .     A
C464   H494    1.079   .     S
C465   C480    1.394   .     A
C465   H485    1.083   .     S
C465   C481    1.399   .     A
C466   C468    1.459   .     S
C466   C482    1.402   .     A
C467   H499    1.086   .     S
C467   C473    1.394   .     A
C467   C127    1.376   1_565 S
C468   O504    1.291   .     A
C468   O505    1.294   .     A
C469   C512    1.447   .     S
C469   C470    1.409   .     A
C470   C478    1.419   .     S
C470   C471    1.397   .     A
C471   H486    1.084   .     S
C472   H487    1.084   .     S
C472   C473    1.392   .     A
C472   C129    1.370   1_565 S
C474   H488    1.082   .     S
C474   N501    1.366   .     A
C474   C361    1.417   1_655 S
C475   N500    1.367   .     A
C475   H489    1.082   .     S
C476   H490    1.082   .     S
C476   N500    1.366   .     A
C477   H491    1.080   .     S
C477   N501    1.367   .     A
C477   C362    1.416   1_655 S
C478   O507    1.281   .     A
C478   O506    1.284   .     A
C479   C481    1.450   .     S
C479   O508    1.292   .     A
C479   O509    1.291   .     A
C480   C974    1.405   1_554 S
C480   H1006   1.084   1_554 S
C482   C483    1.388   .     A
C482   H495    1.083   .     S
C483   C997    1.392   .     S
C483   H1010   1.083   .     S
C484   H496    1.079   .     S
C484   C996    1.392   1_554 S
C484   C971    1.419   1_554 S
H493   C993    1.084   .     S
H497   C996    1.083   1_554 S
N500   Zn510   2.010   .     S
N501   Zn511   2.010   .     S
O502   Zn510   1.995   .     S
O503   Zn511   1.992   .     S
O504   Zn510   1.963   .     S
O505   Zn511   1.912   .     S
O506   Zn510   1.992   .     S
O507   Zn511   1.995   .     S
O508   Zn510   1.912   .     S
O509   Zn511   1.963   .     S
C512   N513    1.157   .     T
C514   C530    1.411   .     S
C514   O560    1.281   .     A
C514   O559    1.281   .     A
C515   C516    1.407   .     A
C515   C4      1.414   1_556 S
C515   C28     1.419   1_556 S
C516   C523    1.410   .     A
C516   C520    1.413   .     A
C517   C521    1.390   .     A
C518   C519    1.392   .     A
C518   C4      1.421   1_556 S
C518   C24     1.405   1_556 S
C519   C520    1.388   .     A
C519   H549    1.084   .     S
C520   H555    1.081   .     S
C521   C538    1.388   .     A
C521   H551    1.079   .     S
C522   C537    1.394   .     A
C522   H542    1.083   .     S
C522   C538    1.399   .     A
C523   C525    1.459   .     S
C523   C539    1.402   .     A
C524   H556    1.086   .     S
C524   C530    1.394   .     A
C524   C697    1.376   .     S
C525   O561    1.291   .     A
C525   O562    1.294   .     A
C526   C569    1.447   .     S
C526   C527    1.409   .     A
C526   C866    1.376   1_545 S
C527   C535    1.419   .     S
C527   C528    1.397   .     A
C528   H543    1.084   .     S
C528   C871    1.370   1_545 S
C529   H544    1.084   .     S
C529   C530    1.392   .     A
C529   C699    1.370   .     S
C531   H545    1.082   .     S
C531   N558    1.366   .     A
C531   C589    1.417   .     S
C532   N557    1.367   .     A
C532   H546    1.082   .     S
C532   C645    1.417   1_455 S
C533   H547    1.082   .     S
C533   N557    1.366   .     A
C533   C648    1.416   1_455 S
C534   H548    1.080   .     S
C534   N558    1.367   .     A
C534   C590    1.416   .     S
C535   O564    1.281   .     A
C535   O563    1.284   .     A
C536   C538    1.450   .     S
C536   O565    1.292   .     A
C536   O566    1.291   .     A
C539   C540    1.388   .     A
C539   H552    1.083   .     S
C540   C28     1.392   1_556 S
C540   H41     1.083   1_556 S
C541   H553    1.079   .     S
H550   C24     1.084   1_556 S
N557   Zn567   2.010   .     S
N558   Zn568   2.010   .     S
O559   Zn567   1.995   .     S
O560   Zn568   1.992   .     S
O561   Zn567   1.963   .     S
O562   Zn568   1.912   .     S
O563   Zn567   1.992   .     S
O564   Zn568   1.995   .     S
O565   Zn567   1.912   .     S
O566   Zn568   1.963   .     S
C569   N570    1.157   .     T
C571   C587    1.411   .     S
C571   O617    1.281   .     A
C571   O616    1.281   .     A
C572   C573    1.407   .     A
C572   C61     1.414   1_556 S
C572   C85     1.419   1_556 S
C573   C580    1.410   .     A
C573   C577    1.413   .     A
C574   C578    1.390   .     A
C575   C576    1.392   .     A
C575   C61     1.421   1_556 S
C575   C81     1.405   1_556 S
C576   C577    1.388   .     A
C576   H606    1.084   .     S
C577   H612    1.081   .     S
C578   C595    1.388   .     A
C578   H608    1.079   .     S
C579   C594    1.394   .     A
C579   H599    1.083   .     S
C579   C595    1.399   .     A
C580   C582    1.459   .     S
C580   C596    1.402   .     A
C581   H613    1.086   .     S
C581   C587    1.394   .     A
C581   C754    1.376   .     S
C582   O618    1.291   .     A
C582   O619    1.294   .     A
C583   C626    1.447   .     S
C583   C584    1.409   .     A
C583   C923    1.376   1_545 S
C584   C592    1.419   .     S
C584   C585    1.397   .     A
C585   H600    1.084   .     S
C585   C928    1.370   1_545 S
C586   H601    1.084   .     S
C586   C587    1.392   .     A
C586   C756    1.370   .     S
C588   H602    1.082   .     S
C588   N615    1.366   .     A
C588   C646    1.417   .     S
C589   N614    1.367   .     A
C589   H603    1.082   .     S
C590   H604    1.082   .     S
C590   N614    1.366   .     A
C591   H605    1.080   .     S
C591   N615    1.367   .     A
C591   C647    1.416   .     S
C592   O621    1.281   .     A
C592   O620    1.284   .     A
C593   C595    1.450   .     S
C593   O622    1.292   .     A
C593   O623    1.291   .     A
C596   C597    1.388   .     A
C596   H609    1.083   .     S
C597   C85     1.392   1_556 S
C597   H98     1.083   1_556 S
C598   H610    1.079   .     S
H607   C81     1.084   1_556 S
N614   Zn624   2.010   .     S
N615   Zn625   2.010   .     S
O616   Zn624   1.995   .     S
O617   Zn625   1.992   .     S
O618   Zn624   1.963   .     S
O619   Zn625   1.912   .     S
O620   Zn624   1.992   .     S
O621   Zn625   1.995   .     S
O622   Zn624   1.912   .     S
O623   Zn625   1.963   .     S
C626   N627    1.157   .     T
C628   C644    1.411   .     S
C628   O674    1.281   .     A
C628   O673    1.281   .     A
C629   C630    1.407   .     A
C629   C118    1.414   1_556 S
C629   C142    1.419   1_556 S
C630   C637    1.410   .     A
C630   C634    1.413   .     A
C631   C635    1.390   .     A
C632   C633    1.392   .     A
C632   C118    1.421   1_556 S
C632   C138    1.405   1_556 S
C633   C634    1.388   .     A
C633   H663    1.084   .     S
C634   H669    1.081   .     S
C635   C652    1.388   .     A
C635   H665    1.079   .     S
C636   C651    1.394   .     A
C636   H656    1.083   .     S
C636   C652    1.399   .     A
C637   C639    1.459   .     S
C637   C653    1.402   .     A
C638   H670    1.086   .     S
C638   C644    1.394   .     A
C638   C811    1.376   .     S
C639   O675    1.291   .     A
C639   O676    1.294   .     A
C640   C683    1.447   .     S
C640   C641    1.409   .     A
C640   C980    1.376   1_545 S
C641   C649    1.419   .     S
C641   C642    1.397   .     A
C642   H657    1.084   .     S
C642   C985    1.370   1_545 S
C643   H658    1.084   .     S
C643   C644    1.392   .     A
C643   C813    1.370   .     S
C645   H659    1.082   .     S
C645   N672    1.366   .     A
C645   C532    1.417   1_655 S
C646   N671    1.367   .     A
C646   H660    1.082   .     S
C647   H661    1.082   .     S
C647   N671    1.366   .     A
C648   H662    1.080   .     S
C648   N672    1.367   .     A
C648   C533    1.416   1_655 S
C649   O678    1.281   .     A
C649   O677    1.284   .     A
C650   C652    1.450   .     S
C650   O679    1.292   .     A
C650   O680    1.291   .     A
C653   C654    1.388   .     A
C653   H666    1.083   .     S
C654   C142    1.392   1_556 S
C654   H155    1.083   1_556 S
C655   H667    1.079   .     S
H664   C138    1.084   1_556 S
N671   Zn681   2.010   .     S
N672   Zn682   2.010   .     S
O673   Zn681   1.995   .     S
O674   Zn682   1.992   .     S
O675   Zn681   1.963   .     S
O676   Zn682   1.912   .     S
O677   Zn681   1.992   .     S
O678   Zn682   1.995   .     S
O679   Zn681   1.912   .     S
O680   Zn682   1.963   .     S
C683   N684    1.157   .     T
C685   C701    1.411   .     S
C685   O731    1.281   .     A
C685   O730    1.281   .     A
C686   C687    1.407   .     A
C686   C175    1.414   1_556 S
C686   C199    1.419   1_556 S
C687   C694    1.410   .     A
C687   C691    1.413   .     A
C688   C692    1.390   .     A
C689   C690    1.392   .     A
C689   C175    1.421   1_556 S
C689   C195    1.405   1_556 S
C690   C691    1.388   .     A
C690   H720    1.084   .     S
C691   H726    1.081   .     S
C692   C709    1.388   .     A
C692   H722    1.079   .     S
C693   C708    1.394   .     A
C693   H713    1.083   .     S
C693   C709    1.399   .     A
C694   C696    1.459   .     S
C694   C710    1.402   .     A
C695   H727    1.086   .     S
C695   C701    1.394   .     A
C695   C868    1.376   .     S
C696   O732    1.291   .     A
C696   O733    1.294   .     A
C697   C740    1.447   .     S
C697   C698    1.409   .     A
C698   C706    1.419   .     S
C698   C699    1.397   .     A
C699   H714    1.084   .     S
C700   H715    1.084   .     S
C700   C701    1.392   .     A
C700   C870    1.370   .     S
C702   H716    1.082   .     S
C702   N729    1.366   .     A
C702   C760    1.417   .     S
C703   N728    1.367   .     A
C703   H717    1.082   .     S
C703   C816    1.417   1_455 S
C704   H718    1.082   .     S
C704   N728    1.366   .     A
C704   C819    1.416   1_455 S
C705   H719    1.080   .     S
C705   N729    1.367   .     A
C705   C761    1.416   .     S
C706   O735    1.281   .     A
C706   O734    1.284   .     A
C707   C709    1.450   .     S
C707   O736    1.292   .     A
C707   O737    1.291   .     A
C710   C711    1.388   .     A
C710   H723    1.083   .     S
C711   C199    1.392   1_556 S
C711   H212    1.083   1_556 S
C712   H724    1.079   .     S
H721   C195    1.084   1_556 S
N728   Zn738   2.010   .     S
N729   Zn739   2.010   .     S
O730   Zn738   1.995   .     S
O731   Zn739   1.992   .     S
O732   Zn738   1.963   .     S
O733   Zn739   1.912   .     S
O734   Zn738   1.992   .     S
O735   Zn739   1.995   .     S
O736   Zn738   1.912   .     S
O737   Zn739   1.963   .     S
C740   N741    1.157   .     T
C742   C758    1.411   .     S
C742   O788    1.281   .     A
C742   O787    1.281   .     A
C743   C744    1.407   .     A
C743   C232    1.414   1_556 S
C743   C256    1.419   1_556 S
C744   C751    1.410   .     A
C744   C748    1.413   .     A
C745   C749    1.390   .     A
C746   C747    1.392   .     A
C746   C232    1.421   1_556 S
C746   C252    1.405   1_556 S
C747   C748    1.388   .     A
C747   H777    1.084   .     S
C748   H783    1.081   .     S
C749   C766    1.388   .     A
C749   H779    1.079   .     S
C750   C765    1.394   .     A
C750   H770    1.083   .     S
C750   C766    1.399   .     A
C751   C753    1.459   .     S
C751   C767    1.402   .     A
C752   H784    1.086   .     S
C752   C758    1.394   .     A
C752   C925    1.376   .     S
C753   O789    1.291   .     A
C753   O790    1.294   .     A
C754   C797    1.447   .     S
C754   C755    1.409   .     A
C755   C763    1.419   .     S
C755   C756    1.397   .     A
C756   H771    1.084   .     S
C757   H772    1.084   .     S
C757   C758    1.392   .     A
C757   C927    1.370   .     S
C759   H773    1.082   .     S
C759   N786    1.366   .     A
C759   C817    1.417   .     S
C760   N785    1.367   .     A
C760   H774    1.082   .     S
C761   H775    1.082   .     S
C761   N785    1.366   .     A
C762   H776    1.080   .     S
C762   N786    1.367   .     A
C762   C818    1.416   .     S
C763   O792    1.281   .     A
C763   O791    1.284   .     A
C764   C766    1.450   .     S
C764   O793    1.292   .     A
C764   O794    1.291   .     A
C767   C768    1.388   .     A
C767   H780    1.083   .     S
C768   C256    1.392   1_556 S
C768   H269    1.083   1_556 S
C769   H781    1.079   .     S
H778   C252    1.084   1_556 S
N785   Zn795   2.010   .     S
N786   Zn796   2.010   .     S
O787   Zn795   1.995   .     S
O788   Zn796   1.992   .     S
O789   Zn795   1.963   .     S
O790   Zn796   1.912   .     S
O791   Zn795   1.992   .     S
O792   Zn796   1.995   .     S
O793   Zn795   1.912   .     S
O794   Zn796   1.963   .     S
C797   N798    1.157   .     T
C799   C815    1.411   .     S
C799   O845    1.281   .     A
C799   O844    1.281   .     A
C800   C801    1.407   .     A
C800   C289    1.414   1_556 S
C800   C313    1.419   1_556 S
C801   C808    1.410   .     A
C801   C805    1.413   .     A
C802   C806    1.390   .     A
C803   C804    1.392   .     A
C803   C289    1.421   1_556 S
C803   C309    1.405   1_556 S
C804   C805    1.388   .     A
C804   H834    1.084   .     S
C805   H840    1.081   .     S
C806   C823    1.388   .     A
C806   H836    1.079   .     S
C807   C822    1.394   .     A
C807   H827    1.083   .     S
C807   C823    1.399   .     A
C808   C810    1.459   .     S
C808   C824    1.402   .     A
C809   H841    1.086   .     S
C809   C815    1.394   .     A
C809   C982    1.376   .     S
C810   O846    1.291   .     A
C810   O847    1.294   .     A
C811   C854    1.447   .     S
C811   C812    1.409   .     A
C812   C820    1.419   .     S
C812   C813    1.397   .     A
C813   H828    1.084   .     S
C814   H829    1.084   .     S
C814   C815    1.392   .     A
C814   C984    1.370   .     S
C816   H830    1.082   .     S
C816   N843    1.366   .     A
C816   C703    1.417   1_655 S
C817   N842    1.367   .     A
C817   H831    1.082   .     S
C818   H832    1.082   .     S
C818   N842    1.366   .     A
C819   H833    1.080   .     S
C819   N843    1.367   .     A
C819   C704    1.416   1_655 S
C820   O849    1.281   .     A
C820   O848    1.284   .     A
C821   C823    1.450   .     S
C821   O850    1.292   .     A
C821   O851    1.291   .     A
C824   C825    1.388   .     A
C824   H837    1.083   .     S
C825   C313    1.392   1_556 S
C825   H326    1.083   1_556 S
C826   H838    1.079   .     S
H835   C309    1.084   1_556 S
N842   Zn852   2.010   .     S
N843   Zn853   2.010   .     S
O844   Zn852   1.995   .     S
O845   Zn853   1.992   .     S
O846   Zn852   1.963   .     S
O847   Zn853   1.912   .     S
O848   Zn852   1.992   .     S
O849   Zn853   1.995   .     S
O850   Zn852   1.912   .     S
O851   Zn853   1.963   .     S
C854   N855    1.157   .     T
C856   C872    1.411   .     S
C856   O902    1.281   .     A
C856   O901    1.281   .     A
C857   C858    1.407   .     A
C857   C346    1.414   1_556 S
C857   C370    1.419   1_556 S
C858   C865    1.410   .     A
C858   C862    1.413   .     A
C859   C863    1.390   .     A
C860   C861    1.392   .     A
C860   C346    1.421   1_556 S
C860   C366    1.405   1_556 S
C861   C862    1.388   .     A
C861   H891    1.084   .     S
C862   H897    1.081   .     S
C863   C880    1.388   .     A
C863   H893    1.079   .     S
C864   C879    1.394   .     A
C864   H884    1.083   .     S
C864   C880    1.399   .     A
C865   C867    1.459   .     S
C865   C881    1.402   .     A
C866   H898    1.086   .     S
C866   C872    1.394   .     A
C866   C526    1.376   1_565 S
C867   O903    1.291   .     A
C867   O904    1.294   .     A
C868   C911    1.447   .     S
C868   C869    1.409   .     A
C869   C877    1.419   .     S
C869   C870    1.397   .     A
C870   H885    1.084   .     S
C871   H886    1.084   .     S
C871   C872    1.392   .     A
C871   C528    1.370   1_565 S
C873   H887    1.082   .     S
C873   N900    1.366   .     A
C873   C931    1.417   .     S
C874   N899    1.367   .     A
C874   H888    1.082   .     S
C874   C987    1.417   1_455 S
C875   H889    1.082   .     S
C875   N899    1.366   .     A
C875   C990    1.416   1_455 S
C876   H890    1.080   .     S
C876   N900    1.367   .     A
C876   C932    1.416   .     S
C877   O906    1.281   .     A
C877   O905    1.284   .     A
C878   C880    1.450   .     S
C878   O907    1.292   .     A
C878   O908    1.291   .     A
C881   C882    1.388   .     A
C881   H894    1.083   .     S
C882   C370    1.392   1_556 S
C882   H383    1.083   1_556 S
C883   H895    1.079   .     S
H892   C366    1.084   1_556 S
N899   Zn909   2.010   .     S
N900   Zn910   2.010   .     S
O901   Zn909   1.995   .     S
O902   Zn910   1.992   .     S
O903   Zn909   1.963   .     S
O904   Zn910   1.912   .     S
O905   Zn909   1.992   .     S
O906   Zn910   1.995   .     S
O907   Zn909   1.912   .     S
O908   Zn910   1.963   .     S
C911   N912    1.157   .     T
C913   C929    1.411   .     S
C913   O959    1.281   .     A
C913   O958    1.281   .     A
C914   C915    1.407   .     A
C914   C403    1.414   1_556 S
C914   C427    1.419   1_556 S
C915   C922    1.410   .     A
C915   C919    1.413   .     A
C916   C920    1.390   .     A
C917   C918    1.392   .     A
C917   C403    1.421   1_556 S
C917   C423    1.405   1_556 S
C918   C919    1.388   .     A
C918   H948    1.084   .     S
C919   H954    1.081   .     S
C920   C937    1.388   .     A
C920   H950    1.079   .     S
C921   C936    1.394   .     A
C921   H941    1.083   .     S
C921   C937    1.399   .     A
C922   C924    1.459   .     S
C922   C938    1.402   .     A
C923   H955    1.086   .     S
C923   C929    1.394   .     A
C923   C583    1.376   1_565 S
C924   O960    1.291   .     A
C924   O961    1.294   .     A
C925   C968    1.447   .     S
C925   C926    1.409   .     A
C926   C934    1.419   .     S
C926   C927    1.397   .     A
C927   H942    1.084   .     S
C928   H943    1.084   .     S
C928   C929    1.392   .     A
C928   C585    1.370   1_565 S
C930   H944    1.082   .     S
C930   N957    1.366   .     A
C930   C988    1.417   .     S
C931   N956    1.367   .     A
C931   H945    1.082   .     S
C932   H946    1.082   .     S
C932   N956    1.366   .     A
C933   H947    1.080   .     S
C933   N957    1.367   .     A
C933   C989    1.416   .     S
C934   O963    1.281   .     A
C934   O962    1.284   .     A
C935   C937    1.450   .     S
C935   O964    1.292   .     A
C935   O965    1.291   .     A
C938   C939    1.388   .     A
C938   H951    1.083   .     S
C939   C427    1.392   1_556 S
C939   H440    1.083   1_556 S
C940   H952    1.079   .     S
H949   C423    1.084   1_556 S
N956   Zn966   2.010   .     S
N957   Zn967   2.010   .     S
O958   Zn966   1.995   .     S
O959   Zn967   1.992   .     S
O960   Zn966   1.963   .     S
O961   Zn967   1.912   .     S
O962   Zn966   1.992   .     S
O963   Zn967   1.995   .     S
O964   Zn966   1.912   .     S
O965   Zn967   1.963   .     S
C968   N969    1.157   .     T
C970   C986    1.411   .     S
C970   O1016   1.281   .     A
C970   O1015   1.281   .     A
C971   C972    1.407   .     A
C971   C460    1.414   1_556 S
C971   C484    1.419   1_556 S
C972   C979    1.410   .     A
C972   C976    1.413   .     A
C973   C977    1.390   .     A
C974   C975    1.392   .     A
C974   C460    1.421   1_556 S
C974   C480    1.405   1_556 S
C975   C976    1.388   .     A
C975   H1005   1.084   .     S
C976   H1011   1.081   .     S
C977   C994    1.388   .     A
C977   H1007   1.079   .     S
C978   C993    1.394   .     A
C978   H998    1.083   .     S
C978   C994    1.399   .     A
C979   C981    1.459   .     S
C979   C995    1.402   .     A
C980   H1012   1.086   .     S
C980   C986    1.394   .     A
C980   C640    1.376   1_565 S
C981   O1017   1.291   .     A
C981   O1018   1.294   .     A
C982   C1025   1.447   .     S
C982   C983    1.409   .     A
C983   C991    1.419   .     S
C983   C984    1.397   .     A
C984   H999    1.084   .     S
C985   H1000   1.084   .     S
C985   C986    1.392   .     A
C985   C642    1.370   1_565 S
C987   H1001   1.082   .     S
C987   N1014   1.366   .     A
C987   C874    1.417   1_655 S
C988   N1013   1.367   .     A
C988   H1002   1.082   .     S
C989   H1003   1.082   .     S
C989   N1013   1.366   .     A
C990   H1004   1.080   .     S
C990   N1014   1.367   .     A
C990   C875    1.416   1_655 S
C991   O1020   1.281   .     A
C991   O1019   1.284   .     A
C992   C994    1.450   .     S
C992   O1021   1.292   .     A
C992   O1022   1.291   .     A
C995   C996    1.388   .     A
C995   H1008   1.083   .     S
C996   C484    1.392   1_556 S
C996   H497    1.083   1_556 S
C997   H1009   1.079   .     S
H1006  C480    1.084   1_556 S
N1013  Zn1023  2.010   .     S
N1014  Zn1024  2.010   .     S
O1015  Zn1023  1.995   .     S
O1016  Zn1024  1.992   .     S
O1017  Zn1023  1.963   .     S
O1018  Zn1024  1.912   .     S
O1019  Zn1023  1.992   .     S
O1020  Zn1024  1.995   .     S
O1021  Zn1023  1.912   .     S
O1022  Zn1024  1.963   .     S
C1025  N1026   1.157   .     T
