data_str_m3_o1_o17_pcu_sym.124
_audit_creation_date              2020-01-03
_audit_creation_method            'Materials Studio'
_symmetry_space_group_name_H-M    'P1'
_symmetry_Int_Tables_number       1
_symmetry_cell_setting            triclinic
loop_
_symmetry_equiv_pos_as_xyz
  x,y,z
_cell_length_a                    32.3762
_cell_length_b                    29.8043
_cell_length_c                    29.9820
_cell_angle_alpha                 90.0803
_cell_angle_beta                  90.7942
_cell_angle_gamma                 90.3047
loop_
_atom_site_label
_atom_site_type_symbol
_atom_site_fract_x
_atom_site_fract_y
_atom_site_fract_z
_atom_site_U_iso_or_equiv
_atom_site_adp_type
_atom_site_occupancy
C1     C     0.08670   0.16659   0.25213   0.00000  Uiso   1.00
C2     C     0.24654   0.16666   0.24676   0.00000  Uiso   1.00
C3     C     0.09394   0.14311   0.02228   0.00000  Uiso   1.00
C4     C     0.24258   0.17697   0.47834   0.00000  Uiso   1.00
C5     C     0.02103   0.12513   0.25375   0.00000  Uiso   1.00
C6     C     0.31248   0.20739   0.24119   0.00000  Uiso   1.00
C7     C     0.31215   0.12494   0.24443   0.00000  Uiso   1.00
C8     C     0.02104   0.20747   0.25055   0.00000  Uiso   1.00
C9     C     0.29091   0.16634   0.24258   0.00000  Uiso   1.00
C10    C     0.04223   0.16644   0.25330   0.00000  Uiso   1.00
C11    C     0.18797   0.02423   0.28222   0.00000  Uiso   1.00
C12    C     0.14515   0.30925   0.21803   0.00000  Uiso   1.00
C13    C     0.14609   0.02386   0.21719   0.00000  Uiso   1.00
C14    C     0.18868   0.30966   0.28147   0.00000  Uiso   1.00
C15    C     0.16648   0.16656   0.16379   0.00000  Uiso   1.00
C16    C     0.16736   0.16654   0.33636   0.00000  Uiso   1.00
C17    C     0.20531   0.16691   0.40722   0.00000  Uiso   1.00
C18    C     0.13031   0.15604   0.09332   0.00000  Uiso   1.00
C19    C     0.16727   0.16574   0.38416   0.00000  Uiso   1.00
C20    C     0.16711   0.16614   0.11622   0.00000  Uiso   1.00
C21    C     0.12953   0.16151   0.40641   0.00000  Uiso   1.00
C22    C     0.20470   0.17228   0.09440   0.00000  Uiso   1.00
C23    C     0.13014   0.15774   0.45297   0.00000  Uiso   1.00
C24    C     0.20496   0.17061   0.04774   0.00000  Uiso   1.00
C25    C     0.16773   0.16380   0.47686   0.00000  Uiso   1.00
C26    C     0.16758   0.16308   0.02375   0.00000  Uiso   1.00
C27    C     0.20554   0.16929   0.45394   0.00000  Uiso   1.00
C28    C     0.13030   0.15389   0.04658   0.00000  Uiso   1.00
C29    C     0.09427   0.14559   0.47586   0.00000  Uiso   1.00
C30    C     0.24177   0.17719   0.02464   0.00000  Uiso   1.00
H31    H     0.06658   0.13580   0.45774   0.00000  Uiso   1.00
H32    H     0.27064   0.18276   0.04218   0.00000  Uiso   1.00
N33    N     0.16667   0.28573   0.25000   0.00000  Uiso   1.00
N34    N     0.16667   0.04760   0.25000   0.00000  Uiso   1.00
O35    O     0.10559   0.20487   0.25000   0.00000  Uiso   1.00
O36    O     0.22774   0.12846   0.25000   0.00000  Uiso   1.00
O37    O     0.22774   0.20487   0.25000   0.00000  Uiso   1.00
O38    O     0.10559   0.12846   0.25000   0.00000  Uiso   1.00
O39    O     0.16666   0.20489   0.18393   0.00000  Uiso   1.00
O40    O     0.16667   0.12844   0.31608   0.00000  Uiso   1.00
O41    O     0.16667   0.20489   0.31608   0.00000  Uiso   1.00
O42    O     0.16666   0.12844   0.18392   0.00000  Uiso   1.00
Zn43   Zn    0.16667   0.21771   0.25000   0.00000  Uiso   1.00
Zn44   Zn    0.16667   0.11563   0.25000   0.00000  Uiso   1.00
O45    O     0.24159   0.15753   0.38496   0.00000  Uiso   1.00
C46    C     0.25764   0.19673   0.36532   0.00000  Uiso   1.00
H47    H     0.25071   0.22794   0.38414   0.00000  Uiso   1.00
H48    H     0.24604   0.19960   0.33083   0.00000  Uiso   1.00
H49    H     0.29172   0.19368   0.36364   0.00000  Uiso   1.00
O50    O     0.09518   0.14509   0.11708   0.00000  Uiso   1.00
C51    C     0.07372   0.18464   0.12793   0.00000  Uiso   1.00
H52    H     0.08755   0.20042   0.15804   0.00000  Uiso   1.00
H53    H     0.04143   0.17549   0.13611   0.00000  Uiso   1.00
H54    H     0.07249   0.20924   0.09999   0.00000  Uiso   1.00
C55    C     0.08945   0.16067   0.38138   0.00000  Uiso   1.00
H56    H     0.06358   0.18010   0.39335   0.00000  Uiso   1.00
O57    O     0.08444   0.13675   0.34872   0.00000  Uiso   1.00
C58    C     0.24369   0.17908   0.12052   0.00000  Uiso   1.00
H59    H     0.27077   0.15914   0.11346   0.00000  Uiso   1.00
O60    O     0.24596   0.20775   0.14946   0.00000  Uiso   1.00
O61    O     0.05991   0.12526   0.04387   0.00000  Uiso   1.00
C62    C     0.02389   0.14976   0.03347   0.00000  Uiso   1.00
H63    H     0.00967   0.13759   0.00177   0.00000  Uiso   1.00
H64    H     0.02971   0.18660   0.03207   0.00000  Uiso   1.00
H65    H     0.00122   0.14378   0.06022   0.00000  Uiso   1.00
O66    O     0.28000   0.18272   0.45714   0.00000  Uiso   1.00
C67    C     0.29502   0.22677   0.46466   0.00000  Uiso   1.00
H68    H     0.30783   0.23068   0.49897   0.00000  Uiso   1.00
H69    H     0.27085   0.25254   0.45833   0.00000  Uiso   1.00
H70    H     0.32059   0.23330   0.44125   0.00000  Uiso   1.00
O71    O     0.04018   0.08803   0.27311   0.00000  Uiso   1.00
C72    C     0.03921   0.05005   0.24500   0.00000  Uiso   1.00
H73    H     0.06661   0.02931   0.25298   0.00000  Uiso   1.00
H74    H     0.04048   0.05866   0.20899   0.00000  Uiso   1.00
H75    H     0.01195   0.02878   0.25229   0.00000  Uiso   1.00
O76    O     0.29181   0.24775   0.23545   0.00000  Uiso   1.00
C77    C     0.30596   0.27044   0.19713   0.00000  Uiso   1.00
H78    H     0.33017   0.29525   0.20654   0.00000  Uiso   1.00
H79    H     0.27976   0.28940   0.18237   0.00000  Uiso   1.00
H80    H     0.31776   0.24763   0.17072   0.00000  Uiso   1.00
O81    O     0.29144   0.08423   0.24188   0.00000  Uiso   1.00
C82    C     0.28276   0.07440   0.19650   0.00000  Uiso   1.00
H83    H     0.26119   0.09906   0.18123   0.00000  Uiso   1.00
H84    H     0.26763   0.04097   0.19450   0.00000  Uiso   1.00
H85    H     0.31128   0.07308   0.17637   0.00000  Uiso   1.00
O86    O     0.04091   0.24816   0.25739   0.00000  Uiso   1.00
C87    C     0.03890   0.25917   0.30306   0.00000  Uiso   1.00
H88    H     0.05494   0.29173   0.30852   0.00000  Uiso   1.00
H89    H     0.05491   0.23369   0.32404   0.00000  Uiso   1.00
H90    H     0.00637   0.26315   0.31387   0.00000  Uiso   1.00
C91    C     0.21059   0.04891   0.31791   0.00000  Uiso   1.00
H92    H     0.22916   0.07794   0.31032   0.00000  Uiso   1.00
O93    O     0.20836   0.03707   0.35678   0.00000  Uiso   1.00
C94    C     0.11996   0.28510   0.18451   0.00000  Uiso   1.00
H95    H     0.13444   0.27014   0.15582   0.00000  Uiso   1.00
O96    O     0.08238   0.28550   0.18657   0.00000  Uiso   1.00
C97    C     0.12481   0.04829   0.18065   0.00000  Uiso   1.00
H98    H     0.10768   0.07836   0.18743   0.00000  Uiso   1.00
O99    O     0.12676   0.03537   0.14207   0.00000  Uiso   1.00
C100   C     0.21484   0.28598   0.31390   0.00000  Uiso   1.00
H101   H     0.20112   0.27073   0.34290   0.00000  Uiso   1.00
O102   O     0.25232   0.28686   0.31032   0.00000  Uiso   1.00
C103   C     0.42003   0.16659   0.25213   0.00000  Uiso   1.00
C104   C     0.57987   0.16666   0.24676   0.00000  Uiso   1.00
C105   C     0.42727   0.14311   0.02228   0.00000  Uiso   1.00
C106   C     0.57591   0.17697   0.47834   0.00000  Uiso   1.00
C107   C     0.35436   0.12513   0.25375   0.00000  Uiso   1.00
C108   C     0.64582   0.20739   0.24119   0.00000  Uiso   1.00
C109   C     0.64548   0.12494   0.24443   0.00000  Uiso   1.00
C110   C     0.35438   0.20747   0.25055   0.00000  Uiso   1.00
C111   C     0.62425   0.16634   0.24258   0.00000  Uiso   1.00
C112   C     0.37557   0.16644   0.25330   0.00000  Uiso   1.00
C113   C     0.52131   0.02423   0.28222   0.00000  Uiso   1.00
C114   C     0.47848   0.30925   0.21803   0.00000  Uiso   1.00
C115   C     0.47943   0.02386   0.21719   0.00000  Uiso   1.00
C116   C     0.52201   0.30966   0.28147   0.00000  Uiso   1.00
C117   C     0.49981   0.16656   0.16379   0.00000  Uiso   1.00
C118   C     0.50070   0.16654   0.33636   0.00000  Uiso   1.00
C119   C     0.53864   0.16691   0.40722   0.00000  Uiso   1.00
C120   C     0.46364   0.15604   0.09332   0.00000  Uiso   1.00
C121   C     0.50060   0.16574   0.38416   0.00000  Uiso   1.00
C122   C     0.50045   0.16614   0.11622   0.00000  Uiso   1.00
C123   C     0.46286   0.16151   0.40641   0.00000  Uiso   1.00
C124   C     0.53804   0.17228   0.09440   0.00000  Uiso   1.00
C125   C     0.46347   0.15774   0.45297   0.00000  Uiso   1.00
C126   C     0.53829   0.17061   0.04774   0.00000  Uiso   1.00
C127   C     0.50106   0.16380   0.47686   0.00000  Uiso   1.00
C128   C     0.50092   0.16308   0.02375   0.00000  Uiso   1.00
C129   C     0.53888   0.16929   0.45394   0.00000  Uiso   1.00
C130   C     0.46363   0.15389   0.04658   0.00000  Uiso   1.00
C131   C     0.42760   0.14559   0.47586   0.00000  Uiso   1.00
C132   C     0.57510   0.17719   0.02464   0.00000  Uiso   1.00
H133   H     0.39991   0.13580   0.45774   0.00000  Uiso   1.00
H134   H     0.60398   0.18276   0.04218   0.00000  Uiso   1.00
N135   N     0.50000   0.28573   0.25000   0.00000  Uiso   1.00
N136   N     0.50000   0.04760   0.25000   0.00000  Uiso   1.00
O137   O     0.43892   0.20487   0.25000   0.00000  Uiso   1.00
O138   O     0.56108   0.12846   0.25000   0.00000  Uiso   1.00
O139   O     0.56108   0.20487   0.25000   0.00000  Uiso   1.00
O140   O     0.43892   0.12846   0.25000   0.00000  Uiso   1.00
O141   O     0.49999   0.20489   0.18393   0.00000  Uiso   1.00
O142   O     0.50001   0.12844   0.31608   0.00000  Uiso   1.00
O143   O     0.50001   0.20489   0.31608   0.00000  Uiso   1.00
O144   O     0.49999   0.12844   0.18392   0.00000  Uiso   1.00
Zn145  Zn    0.50000   0.21771   0.25000   0.00000  Uiso   1.00
Zn146  Zn    0.50000   0.11563   0.25000   0.00000  Uiso   1.00
O147   O     0.57493   0.15753   0.38496   0.00000  Uiso   1.00
C148   C     0.59097   0.19673   0.36532   0.00000  Uiso   1.00
H149   H     0.58404   0.22794   0.38414   0.00000  Uiso   1.00
H150   H     0.57938   0.19960   0.33083   0.00000  Uiso   1.00
H151   H     0.62505   0.19368   0.36364   0.00000  Uiso   1.00
O152   O     0.42851   0.14509   0.11708   0.00000  Uiso   1.00
C153   C     0.40705   0.18464   0.12793   0.00000  Uiso   1.00
H154   H     0.42089   0.20042   0.15804   0.00000  Uiso   1.00
H155   H     0.37477   0.17549   0.13611   0.00000  Uiso   1.00
H156   H     0.40582   0.20924   0.09999   0.00000  Uiso   1.00
C157   C     0.42278   0.16067   0.38138   0.00000  Uiso   1.00
H158   H     0.39691   0.18010   0.39335   0.00000  Uiso   1.00
O159   O     0.41778   0.13675   0.34872   0.00000  Uiso   1.00
C160   C     0.57702   0.17908   0.12052   0.00000  Uiso   1.00
H161   H     0.60410   0.15914   0.11346   0.00000  Uiso   1.00
O162   O     0.57929   0.20775   0.14946   0.00000  Uiso   1.00
O163   O     0.39325   0.12526   0.04387   0.00000  Uiso   1.00
C164   C     0.35722   0.14976   0.03347   0.00000  Uiso   1.00
H165   H     0.34300   0.13759   0.00177   0.00000  Uiso   1.00
H166   H     0.36304   0.18660   0.03207   0.00000  Uiso   1.00
H167   H     0.33455   0.14378   0.06022   0.00000  Uiso   1.00
O168   O     0.61334   0.18272   0.45714   0.00000  Uiso   1.00
C169   C     0.62835   0.22677   0.46466   0.00000  Uiso   1.00
H170   H     0.64117   0.23068   0.49897   0.00000  Uiso   1.00
H171   H     0.60418   0.25254   0.45833   0.00000  Uiso   1.00
H172   H     0.65392   0.23330   0.44125   0.00000  Uiso   1.00
O173   O     0.37351   0.08803   0.27311   0.00000  Uiso   1.00
C174   C     0.37255   0.05005   0.24500   0.00000  Uiso   1.00
H175   H     0.39994   0.02931   0.25298   0.00000  Uiso   1.00
H176   H     0.37381   0.05866   0.20899   0.00000  Uiso   1.00
H177   H     0.34529   0.02878   0.25229   0.00000  Uiso   1.00
O178   O     0.62515   0.24775   0.23545   0.00000  Uiso   1.00
C179   C     0.63929   0.27044   0.19713   0.00000  Uiso   1.00
H180   H     0.66350   0.29525   0.20654   0.00000  Uiso   1.00
H181   H     0.61309   0.28940   0.18237   0.00000  Uiso   1.00
H182   H     0.65109   0.24763   0.17072   0.00000  Uiso   1.00
O183   O     0.62477   0.08423   0.24188   0.00000  Uiso   1.00
C184   C     0.61609   0.07440   0.19650   0.00000  Uiso   1.00
H185   H     0.59453   0.09906   0.18123   0.00000  Uiso   1.00
H186   H     0.60097   0.04097   0.19450   0.00000  Uiso   1.00
H187   H     0.64461   0.07308   0.17637   0.00000  Uiso   1.00
O188   O     0.37424   0.24816   0.25739   0.00000  Uiso   1.00
C189   C     0.37223   0.25917   0.30306   0.00000  Uiso   1.00
H190   H     0.38827   0.29173   0.30852   0.00000  Uiso   1.00
H191   H     0.38824   0.23369   0.32404   0.00000  Uiso   1.00
H192   H     0.33970   0.26315   0.31387   0.00000  Uiso   1.00
C193   C     0.54392   0.04891   0.31791   0.00000  Uiso   1.00
H194   H     0.56249   0.07794   0.31032   0.00000  Uiso   1.00
O195   O     0.54169   0.03707   0.35678   0.00000  Uiso   1.00
C196   C     0.45329   0.28510   0.18451   0.00000  Uiso   1.00
H197   H     0.46777   0.27014   0.15582   0.00000  Uiso   1.00
O198   O     0.41571   0.28550   0.18657   0.00000  Uiso   1.00
C199   C     0.45815   0.04829   0.18065   0.00000  Uiso   1.00
H200   H     0.44101   0.07836   0.18743   0.00000  Uiso   1.00
O201   O     0.46009   0.03537   0.14207   0.00000  Uiso   1.00
C202   C     0.54817   0.28598   0.31390   0.00000  Uiso   1.00
H203   H     0.53445   0.27073   0.34290   0.00000  Uiso   1.00
O204   O     0.58566   0.28686   0.31032   0.00000  Uiso   1.00
C205   C     0.75336   0.16659   0.25213   0.00000  Uiso   1.00
C206   C     0.91320   0.16666   0.24676   0.00000  Uiso   1.00
C207   C     0.76061   0.14311   0.02228   0.00000  Uiso   1.00
C208   C     0.90924   0.17697   0.47834   0.00000  Uiso   1.00
C209   C     0.68770   0.12513   0.25375   0.00000  Uiso   1.00
C210   C     0.97915   0.20739   0.24119   0.00000  Uiso   1.00
C211   C     0.97881   0.12494   0.24443   0.00000  Uiso   1.00
C212   C     0.68771   0.20747   0.25055   0.00000  Uiso   1.00
C213   C     0.95758   0.16634   0.24258   0.00000  Uiso   1.00
C214   C     0.70890   0.16644   0.25330   0.00000  Uiso   1.00
C215   C     0.85464   0.02423   0.28222   0.00000  Uiso   1.00
C216   C     0.81182   0.30925   0.21803   0.00000  Uiso   1.00
C217   C     0.81276   0.02386   0.21719   0.00000  Uiso   1.00
C218   C     0.85535   0.30966   0.28147   0.00000  Uiso   1.00
C219   C     0.83315   0.16656   0.16379   0.00000  Uiso   1.00
C220   C     0.83403   0.16654   0.33636   0.00000  Uiso   1.00
C221   C     0.87197   0.16691   0.40722   0.00000  Uiso   1.00
C222   C     0.79698   0.15604   0.09332   0.00000  Uiso   1.00
C223   C     0.83394   0.16574   0.38416   0.00000  Uiso   1.00
C224   C     0.83378   0.16614   0.11622   0.00000  Uiso   1.00
C225   C     0.79620   0.16151   0.40641   0.00000  Uiso   1.00
C226   C     0.87137   0.17228   0.09440   0.00000  Uiso   1.00
C227   C     0.79681   0.15774   0.45297   0.00000  Uiso   1.00
C228   C     0.87162   0.17061   0.04774   0.00000  Uiso   1.00
C229   C     0.83439   0.16380   0.47686   0.00000  Uiso   1.00
C230   C     0.83425   0.16308   0.02375   0.00000  Uiso   1.00
C231   C     0.87221   0.16929   0.45394   0.00000  Uiso   1.00
C232   C     0.79697   0.15389   0.04658   0.00000  Uiso   1.00
C233   C     0.76094   0.14559   0.47586   0.00000  Uiso   1.00
C234   C     0.90844   0.17719   0.02464   0.00000  Uiso   1.00
H235   H     0.73325   0.13580   0.45774   0.00000  Uiso   1.00
H236   H     0.93731   0.18276   0.04218   0.00000  Uiso   1.00
N237   N     0.83333   0.28573   0.25000   0.00000  Uiso   1.00
N238   N     0.83333   0.04760   0.25000   0.00000  Uiso   1.00
O239   O     0.77226   0.20487   0.25000   0.00000  Uiso   1.00
O240   O     0.89441   0.12846   0.25000   0.00000  Uiso   1.00
O241   O     0.89441   0.20487   0.25000   0.00000  Uiso   1.00
O242   O     0.77226   0.12846   0.25000   0.00000  Uiso   1.00
O243   O     0.83333   0.20489   0.18393   0.00000  Uiso   1.00
O244   O     0.83334   0.12844   0.31608   0.00000  Uiso   1.00
O245   O     0.83334   0.20489   0.31608   0.00000  Uiso   1.00
O246   O     0.83333   0.12844   0.18392   0.00000  Uiso   1.00
Zn247  Zn    0.83333   0.21771   0.25000   0.00000  Uiso   1.00
Zn248  Zn    0.83333   0.11563   0.25000   0.00000  Uiso   1.00
O249   O     0.90826   0.15753   0.38496   0.00000  Uiso   1.00
C250   C     0.92430   0.19673   0.36532   0.00000  Uiso   1.00
H251   H     0.91737   0.22794   0.38414   0.00000  Uiso   1.00
H252   H     0.91271   0.19960   0.33083   0.00000  Uiso   1.00
H253   H     0.95839   0.19368   0.36364   0.00000  Uiso   1.00
O254   O     0.76185   0.14509   0.11708   0.00000  Uiso   1.00
C255   C     0.74039   0.18464   0.12793   0.00000  Uiso   1.00
H256   H     0.75422   0.20042   0.15804   0.00000  Uiso   1.00
H257   H     0.70810   0.17549   0.13611   0.00000  Uiso   1.00
H258   H     0.73915   0.20924   0.09999   0.00000  Uiso   1.00
C259   C     0.75611   0.16067   0.38138   0.00000  Uiso   1.00
H260   H     0.73024   0.18010   0.39335   0.00000  Uiso   1.00
O261   O     0.75111   0.13675   0.34872   0.00000  Uiso   1.00
C262   C     0.91035   0.17908   0.12052   0.00000  Uiso   1.00
H263   H     0.93744   0.15914   0.11346   0.00000  Uiso   1.00
O264   O     0.91263   0.20775   0.14946   0.00000  Uiso   1.00
O265   O     0.72658   0.12526   0.04387   0.00000  Uiso   1.00
C266   C     0.69055   0.14976   0.03347   0.00000  Uiso   1.00
H267   H     0.67634   0.13759   0.00177   0.00000  Uiso   1.00
H268   H     0.69638   0.18660   0.03207   0.00000  Uiso   1.00
H269   H     0.66788   0.14378   0.06022   0.00000  Uiso   1.00
O270   O     0.94667   0.18272   0.45714   0.00000  Uiso   1.00
C271   C     0.96169   0.22677   0.46466   0.00000  Uiso   1.00
H272   H     0.97450   0.23068   0.49897   0.00000  Uiso   1.00
H273   H     0.93751   0.25254   0.45833   0.00000  Uiso   1.00
H274   H     0.98725   0.23330   0.44125   0.00000  Uiso   1.00
O275   O     0.70685   0.08803   0.27311   0.00000  Uiso   1.00
C276   C     0.70588   0.05005   0.24500   0.00000  Uiso   1.00
H277   H     0.73328   0.02931   0.25298   0.00000  Uiso   1.00
H278   H     0.70714   0.05866   0.20899   0.00000  Uiso   1.00
H279   H     0.67862   0.02878   0.25229   0.00000  Uiso   1.00
O280   O     0.95848   0.24775   0.23545   0.00000  Uiso   1.00
C281   C     0.97262   0.27044   0.19713   0.00000  Uiso   1.00
H282   H     0.99683   0.29525   0.20654   0.00000  Uiso   1.00
H283   H     0.94642   0.28940   0.18237   0.00000  Uiso   1.00
H284   H     0.98443   0.24763   0.17072   0.00000  Uiso   1.00
O285   O     0.95811   0.08423   0.24188   0.00000  Uiso   1.00
C286   C     0.94942   0.07440   0.19650   0.00000  Uiso   1.00
H287   H     0.92786   0.09906   0.18123   0.00000  Uiso   1.00
H288   H     0.93430   0.04097   0.19450   0.00000  Uiso   1.00
H289   H     0.97794   0.07308   0.17637   0.00000  Uiso   1.00
O290   O     0.70758   0.24816   0.25739   0.00000  Uiso   1.00
C291   C     0.70556   0.25917   0.30306   0.00000  Uiso   1.00
H292   H     0.72160   0.29173   0.30852   0.00000  Uiso   1.00
H293   H     0.72157   0.23369   0.32404   0.00000  Uiso   1.00
H294   H     0.67304   0.26315   0.31387   0.00000  Uiso   1.00
C295   C     0.87726   0.04891   0.31791   0.00000  Uiso   1.00
H296   H     0.89583   0.07794   0.31032   0.00000  Uiso   1.00
O297   O     0.87503   0.03707   0.35678   0.00000  Uiso   1.00
C298   C     0.78663   0.28510   0.18451   0.00000  Uiso   1.00
H299   H     0.80110   0.27014   0.15582   0.00000  Uiso   1.00
O300   O     0.74905   0.28550   0.18657   0.00000  Uiso   1.00
C301   C     0.79148   0.04829   0.18065   0.00000  Uiso   1.00
H302   H     0.77434   0.07836   0.18743   0.00000  Uiso   1.00
O303   O     0.79343   0.03537   0.14207   0.00000  Uiso   1.00
C304   C     0.88151   0.28598   0.31390   0.00000  Uiso   1.00
H305   H     0.86779   0.27073   0.34290   0.00000  Uiso   1.00
O306   O     0.91899   0.28686   0.31032   0.00000  Uiso   1.00
C307   C     0.08670   0.49993   0.25213   0.00000  Uiso   1.00
C308   C     0.24654   0.49999   0.24676   0.00000  Uiso   1.00
C309   C     0.09394   0.47644   0.02228   0.00000  Uiso   1.00
C310   C     0.24258   0.51030   0.47834   0.00000  Uiso   1.00
C311   C     0.02103   0.45847   0.25375   0.00000  Uiso   1.00
C312   C     0.31248   0.54072   0.24119   0.00000  Uiso   1.00
C313   C     0.31215   0.45827   0.24443   0.00000  Uiso   1.00
C314   C     0.02104   0.54080   0.25055   0.00000  Uiso   1.00
C315   C     0.29091   0.49967   0.24258   0.00000  Uiso   1.00
C316   C     0.04223   0.49978   0.25330   0.00000  Uiso   1.00
C317   C     0.18797   0.35756   0.28222   0.00000  Uiso   1.00
C318   C     0.14515   0.64259   0.21803   0.00000  Uiso   1.00
C319   C     0.14609   0.35720   0.21719   0.00000  Uiso   1.00
C320   C     0.18868   0.64299   0.28147   0.00000  Uiso   1.00
C321   C     0.16648   0.49989   0.16379   0.00000  Uiso   1.00
C322   C     0.16736   0.49987   0.33636   0.00000  Uiso   1.00
C323   C     0.20531   0.50024   0.40722   0.00000  Uiso   1.00
C324   C     0.13031   0.48937   0.09332   0.00000  Uiso   1.00
C325   C     0.16727   0.49908   0.38416   0.00000  Uiso   1.00
C326   C     0.16711   0.49947   0.11622   0.00000  Uiso   1.00
C327   C     0.12953   0.49484   0.40641   0.00000  Uiso   1.00
C328   C     0.20470   0.50561   0.09440   0.00000  Uiso   1.00
C329   C     0.13014   0.49107   0.45297   0.00000  Uiso   1.00
C330   C     0.20496   0.50395   0.04774   0.00000  Uiso   1.00
C331   C     0.16773   0.49713   0.47686   0.00000  Uiso   1.00
C332   C     0.16758   0.49641   0.02375   0.00000  Uiso   1.00
C333   C     0.20554   0.50262   0.45394   0.00000  Uiso   1.00
C334   C     0.13030   0.48722   0.04658   0.00000  Uiso   1.00
C335   C     0.09427   0.47893   0.47586   0.00000  Uiso   1.00
C336   C     0.24177   0.51052   0.02464   0.00000  Uiso   1.00
H337   H     0.06658   0.46913   0.45774   0.00000  Uiso   1.00
H338   H     0.27064   0.51609   0.04218   0.00000  Uiso   1.00
N339   N     0.16667   0.61907   0.25000   0.00000  Uiso   1.00
N340   N     0.16667   0.38093   0.25000   0.00000  Uiso   1.00
O341   O     0.10559   0.53821   0.25000   0.00000  Uiso   1.00
O342   O     0.22774   0.46179   0.25000   0.00000  Uiso   1.00
O343   O     0.22774   0.53821   0.25000   0.00000  Uiso   1.00
O344   O     0.10559   0.46179   0.25000   0.00000  Uiso   1.00
O345   O     0.16666   0.53823   0.18393   0.00000  Uiso   1.00
O346   O     0.16667   0.46177   0.31608   0.00000  Uiso   1.00
O347   O     0.16667   0.53823   0.31608   0.00000  Uiso   1.00
O348   O     0.16666   0.46177   0.18392   0.00000  Uiso   1.00
Zn349  Zn    0.16667   0.55104   0.25000   0.00000  Uiso   1.00
Zn350  Zn    0.16667   0.44896   0.25000   0.00000  Uiso   1.00
O351   O     0.24159   0.49086   0.38496   0.00000  Uiso   1.00
C352   C     0.25764   0.53007   0.36532   0.00000  Uiso   1.00
H353   H     0.25071   0.56127   0.38414   0.00000  Uiso   1.00
H354   H     0.24604   0.53294   0.33083   0.00000  Uiso   1.00
H355   H     0.29172   0.52701   0.36364   0.00000  Uiso   1.00
O356   O     0.09518   0.47842   0.11708   0.00000  Uiso   1.00
C357   C     0.07372   0.51797   0.12793   0.00000  Uiso   1.00
H358   H     0.08755   0.53376   0.15804   0.00000  Uiso   1.00
H359   H     0.04143   0.50883   0.13611   0.00000  Uiso   1.00
H360   H     0.07249   0.54258   0.09999   0.00000  Uiso   1.00
C361   C     0.08945   0.49400   0.38138   0.00000  Uiso   1.00
H362   H     0.06358   0.51343   0.39335   0.00000  Uiso   1.00
O363   O     0.08444   0.47009   0.34872   0.00000  Uiso   1.00
C364   C     0.24369   0.51241   0.12052   0.00000  Uiso   1.00
H365   H     0.27077   0.49247   0.11346   0.00000  Uiso   1.00
O366   O     0.24596   0.54108   0.14946   0.00000  Uiso   1.00
O367   O     0.05991   0.45860   0.04387   0.00000  Uiso   1.00
C368   C     0.02389   0.48309   0.03347   0.00000  Uiso   1.00
H369   H     0.00967   0.47093   0.00177   0.00000  Uiso   1.00
H370   H     0.02971   0.51993   0.03207   0.00000  Uiso   1.00
H371   H     0.00122   0.47711   0.06022   0.00000  Uiso   1.00
O372   O     0.28000   0.51605   0.45714   0.00000  Uiso   1.00
C373   C     0.29502   0.56010   0.46466   0.00000  Uiso   1.00
H374   H     0.30783   0.56401   0.49897   0.00000  Uiso   1.00
H375   H     0.27085   0.58588   0.45833   0.00000  Uiso   1.00
H376   H     0.32059   0.56663   0.44125   0.00000  Uiso   1.00
O377   O     0.04018   0.42136   0.27311   0.00000  Uiso   1.00
C378   C     0.03921   0.38339   0.24500   0.00000  Uiso   1.00
H379   H     0.06661   0.36264   0.25298   0.00000  Uiso   1.00
H380   H     0.04048   0.39199   0.20899   0.00000  Uiso   1.00
H381   H     0.01195   0.36211   0.25229   0.00000  Uiso   1.00
O382   O     0.29181   0.58108   0.23545   0.00000  Uiso   1.00
C383   C     0.30596   0.60378   0.19713   0.00000  Uiso   1.00
H384   H     0.33017   0.62859   0.20654   0.00000  Uiso   1.00
H385   H     0.27976   0.62274   0.18237   0.00000  Uiso   1.00
H386   H     0.31776   0.58096   0.17072   0.00000  Uiso   1.00
O387   O     0.29144   0.41756   0.24188   0.00000  Uiso   1.00
C388   C     0.28276   0.40773   0.19650   0.00000  Uiso   1.00
H389   H     0.26119   0.43239   0.18123   0.00000  Uiso   1.00
H390   H     0.26763   0.37431   0.19450   0.00000  Uiso   1.00
H391   H     0.31128   0.40641   0.17637   0.00000  Uiso   1.00
O392   O     0.04091   0.58150   0.25739   0.00000  Uiso   1.00
C393   C     0.03890   0.59250   0.30306   0.00000  Uiso   1.00
H394   H     0.05494   0.62507   0.30852   0.00000  Uiso   1.00
H395   H     0.05491   0.56702   0.32404   0.00000  Uiso   1.00
H396   H     0.00637   0.59648   0.31387   0.00000  Uiso   1.00
C397   C     0.21059   0.38225   0.31791   0.00000  Uiso   1.00
H398   H     0.22916   0.41127   0.31032   0.00000  Uiso   1.00
O399   O     0.20836   0.37041   0.35678   0.00000  Uiso   1.00
C400   C     0.11996   0.61843   0.18451   0.00000  Uiso   1.00
H401   H     0.13444   0.60348   0.15582   0.00000  Uiso   1.00
O402   O     0.08238   0.61883   0.18657   0.00000  Uiso   1.00
C403   C     0.12481   0.38163   0.18065   0.00000  Uiso   1.00
H404   H     0.10768   0.41170   0.18743   0.00000  Uiso   1.00
O405   O     0.12676   0.36870   0.14207   0.00000  Uiso   1.00
C406   C     0.21484   0.61931   0.31390   0.00000  Uiso   1.00
H407   H     0.20112   0.60406   0.34290   0.00000  Uiso   1.00
O408   O     0.25232   0.62019   0.31032   0.00000  Uiso   1.00
C409   C     0.42003   0.49993   0.25213   0.00000  Uiso   1.00
C410   C     0.57987   0.49999   0.24676   0.00000  Uiso   1.00
C411   C     0.42727   0.47644   0.02228   0.00000  Uiso   1.00
C412   C     0.57591   0.51030   0.47834   0.00000  Uiso   1.00
C413   C     0.35436   0.45847   0.25375   0.00000  Uiso   1.00
C414   C     0.64582   0.54072   0.24119   0.00000  Uiso   1.00
C415   C     0.64548   0.45827   0.24443   0.00000  Uiso   1.00
C416   C     0.35438   0.54080   0.25055   0.00000  Uiso   1.00
C417   C     0.62425   0.49967   0.24258   0.00000  Uiso   1.00
C418   C     0.37557   0.49978   0.25330   0.00000  Uiso   1.00
C419   C     0.52131   0.35756   0.28222   0.00000  Uiso   1.00
C420   C     0.47848   0.64259   0.21803   0.00000  Uiso   1.00
C421   C     0.47943   0.35720   0.21719   0.00000  Uiso   1.00
C422   C     0.52201   0.64299   0.28147   0.00000  Uiso   1.00
C423   C     0.49981   0.49989   0.16379   0.00000  Uiso   1.00
C424   C     0.50070   0.49987   0.33636   0.00000  Uiso   1.00
C425   C     0.53864   0.50024   0.40722   0.00000  Uiso   1.00
C426   C     0.46364   0.48937   0.09332   0.00000  Uiso   1.00
C427   C     0.50060   0.49908   0.38416   0.00000  Uiso   1.00
C428   C     0.50045   0.49947   0.11622   0.00000  Uiso   1.00
C429   C     0.46286   0.49484   0.40641   0.00000  Uiso   1.00
C430   C     0.53804   0.50561   0.09440   0.00000  Uiso   1.00
C431   C     0.46347   0.49107   0.45297   0.00000  Uiso   1.00
C432   C     0.53829   0.50395   0.04774   0.00000  Uiso   1.00
C433   C     0.50106   0.49713   0.47686   0.00000  Uiso   1.00
C434   C     0.50092   0.49641   0.02375   0.00000  Uiso   1.00
C435   C     0.53888   0.50262   0.45394   0.00000  Uiso   1.00
C436   C     0.46363   0.48722   0.04658   0.00000  Uiso   1.00
C437   C     0.42760   0.47893   0.47586   0.00000  Uiso   1.00
C438   C     0.57510   0.51052   0.02464   0.00000  Uiso   1.00
H439   H     0.39991   0.46913   0.45774   0.00000  Uiso   1.00
H440   H     0.60398   0.51609   0.04218   0.00000  Uiso   1.00
N441   N     0.50000   0.61907   0.25000   0.00000  Uiso   1.00
N442   N     0.50000   0.38093   0.25000   0.00000  Uiso   1.00
O443   O     0.43892   0.53821   0.25000   0.00000  Uiso   1.00
O444   O     0.56108   0.46179   0.25000   0.00000  Uiso   1.00
O445   O     0.56108   0.53821   0.25000   0.00000  Uiso   1.00
O446   O     0.43892   0.46179   0.25000   0.00000  Uiso   1.00
O447   O     0.49999   0.53823   0.18393   0.00000  Uiso   1.00
O448   O     0.50001   0.46177   0.31608   0.00000  Uiso   1.00
O449   O     0.50001   0.53823   0.31608   0.00000  Uiso   1.00
O450   O     0.49999   0.46177   0.18392   0.00000  Uiso   1.00
Zn451  Zn    0.50000   0.55104   0.25000   0.00000  Uiso   1.00
Zn452  Zn    0.50000   0.44896   0.25000   0.00000  Uiso   1.00
O453   O     0.57493   0.49086   0.38496   0.00000  Uiso   1.00
C454   C     0.59097   0.53007   0.36532   0.00000  Uiso   1.00
H455   H     0.58404   0.56127   0.38414   0.00000  Uiso   1.00
H456   H     0.57938   0.53294   0.33083   0.00000  Uiso   1.00
H457   H     0.62505   0.52701   0.36364   0.00000  Uiso   1.00
O458   O     0.42851   0.47842   0.11708   0.00000  Uiso   1.00
C459   C     0.40705   0.51797   0.12793   0.00000  Uiso   1.00
H460   H     0.42089   0.53376   0.15804   0.00000  Uiso   1.00
H461   H     0.37477   0.50883   0.13611   0.00000  Uiso   1.00
H462   H     0.40582   0.54258   0.09999   0.00000  Uiso   1.00
C463   C     0.42278   0.49400   0.38138   0.00000  Uiso   1.00
H464   H     0.39691   0.51343   0.39335   0.00000  Uiso   1.00
O465   O     0.41778   0.47009   0.34872   0.00000  Uiso   1.00
C466   C     0.57702   0.51241   0.12052   0.00000  Uiso   1.00
H467   H     0.60410   0.49247   0.11346   0.00000  Uiso   1.00
O468   O     0.57929   0.54108   0.14946   0.00000  Uiso   1.00
O469   O     0.39325   0.45860   0.04387   0.00000  Uiso   1.00
C470   C     0.35722   0.48309   0.03347   0.00000  Uiso   1.00
H471   H     0.34300   0.47093   0.00177   0.00000  Uiso   1.00
H472   H     0.36304   0.51993   0.03207   0.00000  Uiso   1.00
H473   H     0.33455   0.47711   0.06022   0.00000  Uiso   1.00
O474   O     0.61334   0.51605   0.45714   0.00000  Uiso   1.00
C475   C     0.62835   0.56010   0.46466   0.00000  Uiso   1.00
H476   H     0.64117   0.56401   0.49897   0.00000  Uiso   1.00
H477   H     0.60418   0.58588   0.45833   0.00000  Uiso   1.00
H478   H     0.65392   0.56663   0.44125   0.00000  Uiso   1.00
O479   O     0.37351   0.42136   0.27311   0.00000  Uiso   1.00
C480   C     0.37255   0.38339   0.24500   0.00000  Uiso   1.00
H481   H     0.39994   0.36264   0.25298   0.00000  Uiso   1.00
H482   H     0.37381   0.39199   0.20899   0.00000  Uiso   1.00
H483   H     0.34529   0.36211   0.25229   0.00000  Uiso   1.00
O484   O     0.62515   0.58108   0.23545   0.00000  Uiso   1.00
C485   C     0.63929   0.60378   0.19713   0.00000  Uiso   1.00
H486   H     0.66350   0.62859   0.20654   0.00000  Uiso   1.00
H487   H     0.61309   0.62274   0.18237   0.00000  Uiso   1.00
H488   H     0.65109   0.58096   0.17072   0.00000  Uiso   1.00
O489   O     0.62477   0.41756   0.24188   0.00000  Uiso   1.00
C490   C     0.61609   0.40773   0.19650   0.00000  Uiso   1.00
H491   H     0.59453   0.43239   0.18123   0.00000  Uiso   1.00
H492   H     0.60097   0.37431   0.19450   0.00000  Uiso   1.00
H493   H     0.64461   0.40641   0.17637   0.00000  Uiso   1.00
O494   O     0.37424   0.58150   0.25739   0.00000  Uiso   1.00
C495   C     0.37223   0.59250   0.30306   0.00000  Uiso   1.00
H496   H     0.38827   0.62507   0.30852   0.00000  Uiso   1.00
H497   H     0.38824   0.56702   0.32404   0.00000  Uiso   1.00
H498   H     0.33970   0.59648   0.31387   0.00000  Uiso   1.00
C499   C     0.54392   0.38225   0.31791   0.00000  Uiso   1.00
H500   H     0.56249   0.41127   0.31032   0.00000  Uiso   1.00
O501   O     0.54169   0.37041   0.35678   0.00000  Uiso   1.00
C502   C     0.45329   0.61843   0.18451   0.00000  Uiso   1.00
H503   H     0.46777   0.60348   0.15582   0.00000  Uiso   1.00
O504   O     0.41571   0.61883   0.18657   0.00000  Uiso   1.00
C505   C     0.45815   0.38163   0.18065   0.00000  Uiso   1.00
H506   H     0.44101   0.41170   0.18743   0.00000  Uiso   1.00
O507   O     0.46009   0.36870   0.14207   0.00000  Uiso   1.00
C508   C     0.54817   0.61931   0.31390   0.00000  Uiso   1.00
H509   H     0.53445   0.60406   0.34290   0.00000  Uiso   1.00
O510   O     0.58566   0.62019   0.31032   0.00000  Uiso   1.00
C511   C     0.75336   0.49993   0.25213   0.00000  Uiso   1.00
C512   C     0.91320   0.49999   0.24676   0.00000  Uiso   1.00
C513   C     0.76061   0.47644   0.02228   0.00000  Uiso   1.00
C514   C     0.90924   0.51030   0.47834   0.00000  Uiso   1.00
C515   C     0.68770   0.45847   0.25375   0.00000  Uiso   1.00
C516   C     0.97915   0.54072   0.24119   0.00000  Uiso   1.00
C517   C     0.97881   0.45827   0.24443   0.00000  Uiso   1.00
C518   C     0.68771   0.54080   0.25055   0.00000  Uiso   1.00
C519   C     0.95758   0.49967   0.24258   0.00000  Uiso   1.00
C520   C     0.70890   0.49978   0.25330   0.00000  Uiso   1.00
C521   C     0.85464   0.35756   0.28222   0.00000  Uiso   1.00
C522   C     0.81182   0.64259   0.21803   0.00000  Uiso   1.00
C523   C     0.81276   0.35720   0.21719   0.00000  Uiso   1.00
C524   C     0.85535   0.64299   0.28147   0.00000  Uiso   1.00
C525   C     0.83315   0.49989   0.16379   0.00000  Uiso   1.00
C526   C     0.83403   0.49987   0.33636   0.00000  Uiso   1.00
C527   C     0.87197   0.50024   0.40722   0.00000  Uiso   1.00
C528   C     0.79698   0.48937   0.09332   0.00000  Uiso   1.00
C529   C     0.83394   0.49908   0.38416   0.00000  Uiso   1.00
C530   C     0.83378   0.49947   0.11622   0.00000  Uiso   1.00
C531   C     0.79620   0.49484   0.40641   0.00000  Uiso   1.00
C532   C     0.87137   0.50561   0.09440   0.00000  Uiso   1.00
C533   C     0.79681   0.49107   0.45297   0.00000  Uiso   1.00
C534   C     0.87162   0.50395   0.04774   0.00000  Uiso   1.00
C535   C     0.83439   0.49713   0.47686   0.00000  Uiso   1.00
C536   C     0.83425   0.49641   0.02375   0.00000  Uiso   1.00
C537   C     0.87221   0.50262   0.45394   0.00000  Uiso   1.00
C538   C     0.79697   0.48722   0.04658   0.00000  Uiso   1.00
C539   C     0.76094   0.47893   0.47586   0.00000  Uiso   1.00
C540   C     0.90844   0.51052   0.02464   0.00000  Uiso   1.00
H541   H     0.73325   0.46913   0.45774   0.00000  Uiso   1.00
H542   H     0.93731   0.51609   0.04218   0.00000  Uiso   1.00
N543   N     0.83333   0.61907   0.25000   0.00000  Uiso   1.00
N544   N     0.83333   0.38093   0.25000   0.00000  Uiso   1.00
O545   O     0.77226   0.53821   0.25000   0.00000  Uiso   1.00
O546   O     0.89441   0.46179   0.25000   0.00000  Uiso   1.00
O547   O     0.89441   0.53821   0.25000   0.00000  Uiso   1.00
O548   O     0.77226   0.46179   0.25000   0.00000  Uiso   1.00
O549   O     0.83333   0.53823   0.18393   0.00000  Uiso   1.00
O550   O     0.83334   0.46177   0.31608   0.00000  Uiso   1.00
O551   O     0.83334   0.53823   0.31608   0.00000  Uiso   1.00
O552   O     0.83333   0.46177   0.18392   0.00000  Uiso   1.00
Zn553  Zn    0.83333   0.55104   0.25000   0.00000  Uiso   1.00
Zn554  Zn    0.83333   0.44896   0.25000   0.00000  Uiso   1.00
O555   O     0.90826   0.49086   0.38496   0.00000  Uiso   1.00
C556   C     0.92430   0.53007   0.36532   0.00000  Uiso   1.00
H557   H     0.91737   0.56127   0.38414   0.00000  Uiso   1.00
H558   H     0.91271   0.53294   0.33083   0.00000  Uiso   1.00
H559   H     0.95839   0.52701   0.36364   0.00000  Uiso   1.00
O560   O     0.76185   0.47842   0.11708   0.00000  Uiso   1.00
C561   C     0.74039   0.51797   0.12793   0.00000  Uiso   1.00
H562   H     0.75422   0.53376   0.15804   0.00000  Uiso   1.00
H563   H     0.70810   0.50883   0.13611   0.00000  Uiso   1.00
H564   H     0.73915   0.54258   0.09999   0.00000  Uiso   1.00
C565   C     0.75611   0.49400   0.38138   0.00000  Uiso   1.00
H566   H     0.73024   0.51343   0.39335   0.00000  Uiso   1.00
O567   O     0.75111   0.47009   0.34872   0.00000  Uiso   1.00
C568   C     0.91035   0.51241   0.12052   0.00000  Uiso   1.00
H569   H     0.93744   0.49247   0.11346   0.00000  Uiso   1.00
O570   O     0.91263   0.54108   0.14946   0.00000  Uiso   1.00
O571   O     0.72658   0.45860   0.04387   0.00000  Uiso   1.00
C572   C     0.69055   0.48309   0.03347   0.00000  Uiso   1.00
H573   H     0.67634   0.47093   0.00177   0.00000  Uiso   1.00
H574   H     0.69638   0.51993   0.03207   0.00000  Uiso   1.00
H575   H     0.66788   0.47711   0.06022   0.00000  Uiso   1.00
O576   O     0.94667   0.51605   0.45714   0.00000  Uiso   1.00
C577   C     0.96169   0.56010   0.46466   0.00000  Uiso   1.00
H578   H     0.97450   0.56401   0.49897   0.00000  Uiso   1.00
H579   H     0.93751   0.58588   0.45833   0.00000  Uiso   1.00
H580   H     0.98725   0.56663   0.44125   0.00000  Uiso   1.00
O581   O     0.70685   0.42136   0.27311   0.00000  Uiso   1.00
C582   C     0.70588   0.38339   0.24500   0.00000  Uiso   1.00
H583   H     0.73328   0.36264   0.25298   0.00000  Uiso   1.00
H584   H     0.70714   0.39199   0.20899   0.00000  Uiso   1.00
H585   H     0.67862   0.36211   0.25229   0.00000  Uiso   1.00
O586   O     0.95848   0.58108   0.23545   0.00000  Uiso   1.00
C587   C     0.97262   0.60378   0.19713   0.00000  Uiso   1.00
H588   H     0.99683   0.62859   0.20654   0.00000  Uiso   1.00
H589   H     0.94642   0.62274   0.18237   0.00000  Uiso   1.00
H590   H     0.98443   0.58096   0.17072   0.00000  Uiso   1.00
O591   O     0.95811   0.41756   0.24188   0.00000  Uiso   1.00
C592   C     0.94942   0.40773   0.19650   0.00000  Uiso   1.00
H593   H     0.92786   0.43239   0.18123   0.00000  Uiso   1.00
H594   H     0.93430   0.37431   0.19450   0.00000  Uiso   1.00
H595   H     0.97794   0.40641   0.17637   0.00000  Uiso   1.00
O596   O     0.70758   0.58150   0.25739   0.00000  Uiso   1.00
C597   C     0.70556   0.59250   0.30306   0.00000  Uiso   1.00
H598   H     0.72160   0.62507   0.30852   0.00000  Uiso   1.00
H599   H     0.72157   0.56702   0.32404   0.00000  Uiso   1.00
H600   H     0.67304   0.59648   0.31387   0.00000  Uiso   1.00
C601   C     0.87726   0.38225   0.31791   0.00000  Uiso   1.00
H602   H     0.89583   0.41127   0.31032   0.00000  Uiso   1.00
O603   O     0.87503   0.37041   0.35678   0.00000  Uiso   1.00
C604   C     0.78663   0.61843   0.18451   0.00000  Uiso   1.00
H605   H     0.80110   0.60348   0.15582   0.00000  Uiso   1.00
O606   O     0.74905   0.61883   0.18657   0.00000  Uiso   1.00
C607   C     0.79148   0.38163   0.18065   0.00000  Uiso   1.00
H608   H     0.77434   0.41170   0.18743   0.00000  Uiso   1.00
O609   O     0.79343   0.36870   0.14207   0.00000  Uiso   1.00
C610   C     0.88151   0.61931   0.31390   0.00000  Uiso   1.00
H611   H     0.86779   0.60406   0.34290   0.00000  Uiso   1.00
O612   O     0.91899   0.62019   0.31032   0.00000  Uiso   1.00
C613   C     0.08670   0.83326   0.25213   0.00000  Uiso   1.00
C614   C     0.24654   0.83332   0.24676   0.00000  Uiso   1.00
C615   C     0.09394   0.80977   0.02228   0.00000  Uiso   1.00
C616   C     0.24258   0.84364   0.47834   0.00000  Uiso   1.00
C617   C     0.02103   0.79180   0.25375   0.00000  Uiso   1.00
C618   C     0.31248   0.87406   0.24119   0.00000  Uiso   1.00
C619   C     0.31215   0.79160   0.24443   0.00000  Uiso   1.00
C620   C     0.02104   0.87413   0.25055   0.00000  Uiso   1.00
C621   C     0.29091   0.83301   0.24258   0.00000  Uiso   1.00
C622   C     0.04223   0.83311   0.25330   0.00000  Uiso   1.00
C623   C     0.18797   0.69089   0.28222   0.00000  Uiso   1.00
C624   C     0.14515   0.97592   0.21803   0.00000  Uiso   1.00
C625   C     0.14609   0.69053   0.21719   0.00000  Uiso   1.00
C626   C     0.18868   0.97633   0.28147   0.00000  Uiso   1.00
C627   C     0.16648   0.83322   0.16379   0.00000  Uiso   1.00
C628   C     0.16736   0.83321   0.33636   0.00000  Uiso   1.00
C629   C     0.20531   0.83358   0.40722   0.00000  Uiso   1.00
C630   C     0.13031   0.82270   0.09332   0.00000  Uiso   1.00
C631   C     0.16727   0.83241   0.38416   0.00000  Uiso   1.00
C632   C     0.16711   0.83281   0.11622   0.00000  Uiso   1.00
C633   C     0.12953   0.82817   0.40641   0.00000  Uiso   1.00
C634   C     0.20470   0.83895   0.09440   0.00000  Uiso   1.00
C635   C     0.13014   0.82440   0.45297   0.00000  Uiso   1.00
C636   C     0.20496   0.83728   0.04774   0.00000  Uiso   1.00
C637   C     0.16773   0.83046   0.47686   0.00000  Uiso   1.00
C638   C     0.16758   0.82974   0.02375   0.00000  Uiso   1.00
C639   C     0.20554   0.83596   0.45394   0.00000  Uiso   1.00
C640   C     0.13030   0.82056   0.04658   0.00000  Uiso   1.00
C641   C     0.09427   0.81226   0.47586   0.00000  Uiso   1.00
C642   C     0.24177   0.84386   0.02464   0.00000  Uiso   1.00
H643   H     0.06658   0.80247   0.45774   0.00000  Uiso   1.00
H644   H     0.27064   0.84943   0.04218   0.00000  Uiso   1.00
N645   N     0.16667   0.95240   0.25000   0.00000  Uiso   1.00
N646   N     0.16667   0.71427   0.25000   0.00000  Uiso   1.00
O647   O     0.10559   0.87154   0.25000   0.00000  Uiso   1.00
O648   O     0.22774   0.79513   0.25000   0.00000  Uiso   1.00
O649   O     0.22774   0.87154   0.25000   0.00000  Uiso   1.00
O650   O     0.10559   0.79513   0.25000   0.00000  Uiso   1.00
O651   O     0.16666   0.87156   0.18393   0.00000  Uiso   1.00
O652   O     0.16667   0.79511   0.31608   0.00000  Uiso   1.00
O653   O     0.16667   0.87156   0.31608   0.00000  Uiso   1.00
O654   O     0.16666   0.79511   0.18392   0.00000  Uiso   1.00
Zn655  Zn    0.16667   0.88437   0.25000   0.00000  Uiso   1.00
Zn656  Zn    0.16667   0.78229   0.25000   0.00000  Uiso   1.00
O657   O     0.24159   0.82420   0.38496   0.00000  Uiso   1.00
C658   C     0.25764   0.86340   0.36532   0.00000  Uiso   1.00
H659   H     0.25071   0.89460   0.38414   0.00000  Uiso   1.00
H660   H     0.24604   0.86627   0.33083   0.00000  Uiso   1.00
H661   H     0.29172   0.86035   0.36364   0.00000  Uiso   1.00
O662   O     0.09518   0.81175   0.11708   0.00000  Uiso   1.00
C663   C     0.07372   0.85131   0.12793   0.00000  Uiso   1.00
H664   H     0.08755   0.86709   0.15804   0.00000  Uiso   1.00
H665   H     0.04143   0.84216   0.13611   0.00000  Uiso   1.00
H666   H     0.07249   0.87591   0.09999   0.00000  Uiso   1.00
C667   C     0.08945   0.82733   0.38138   0.00000  Uiso   1.00
H668   H     0.06358   0.84676   0.39335   0.00000  Uiso   1.00
O669   O     0.08444   0.80342   0.34872   0.00000  Uiso   1.00
C670   C     0.24369   0.84574   0.12052   0.00000  Uiso   1.00
H671   H     0.27077   0.82581   0.11346   0.00000  Uiso   1.00
O672   O     0.24596   0.87442   0.14946   0.00000  Uiso   1.00
O673   O     0.05991   0.79193   0.04387   0.00000  Uiso   1.00
C674   C     0.02389   0.81643   0.03347   0.00000  Uiso   1.00
H675   H     0.00967   0.80426   0.00177   0.00000  Uiso   1.00
H676   H     0.02971   0.85326   0.03207   0.00000  Uiso   1.00
H677   H     0.00122   0.81045   0.06022   0.00000  Uiso   1.00
O678   O     0.28000   0.84938   0.45714   0.00000  Uiso   1.00
C679   C     0.29502   0.89343   0.46466   0.00000  Uiso   1.00
H680   H     0.30783   0.89735   0.49897   0.00000  Uiso   1.00
H681   H     0.27085   0.91921   0.45833   0.00000  Uiso   1.00
H682   H     0.32059   0.89996   0.44125   0.00000  Uiso   1.00
O683   O     0.04018   0.75469   0.27311   0.00000  Uiso   1.00
C684   C     0.03921   0.71672   0.24500   0.00000  Uiso   1.00
H685   H     0.06661   0.69597   0.25298   0.00000  Uiso   1.00
H686   H     0.04048   0.72532   0.20899   0.00000  Uiso   1.00
H687   H     0.01195   0.69545   0.25229   0.00000  Uiso   1.00
O688   O     0.29181   0.91442   0.23545   0.00000  Uiso   1.00
C689   C     0.30596   0.93711   0.19713   0.00000  Uiso   1.00
H690   H     0.33017   0.96192   0.20654   0.00000  Uiso   1.00
H691   H     0.27976   0.95607   0.18237   0.00000  Uiso   1.00
H692   H     0.31776   0.91429   0.17072   0.00000  Uiso   1.00
O693   O     0.29144   0.75089   0.24188   0.00000  Uiso   1.00
C694   C     0.28276   0.74107   0.19650   0.00000  Uiso   1.00
H695   H     0.26119   0.76572   0.18123   0.00000  Uiso   1.00
H696   H     0.26763   0.70764   0.19450   0.00000  Uiso   1.00
H697   H     0.31128   0.73974   0.17637   0.00000  Uiso   1.00
O698   O     0.04091   0.91483   0.25739   0.00000  Uiso   1.00
C699   C     0.03890   0.92583   0.30306   0.00000  Uiso   1.00
H700   H     0.05494   0.95840   0.30852   0.00000  Uiso   1.00
H701   H     0.05491   0.90036   0.32404   0.00000  Uiso   1.00
H702   H     0.00637   0.92982   0.31387   0.00000  Uiso   1.00
C703   C     0.21059   0.71558   0.31791   0.00000  Uiso   1.00
H704   H     0.22916   0.74460   0.31032   0.00000  Uiso   1.00
O705   O     0.20836   0.70374   0.35678   0.00000  Uiso   1.00
C706   C     0.11996   0.95176   0.18451   0.00000  Uiso   1.00
H707   H     0.13444   0.93681   0.15582   0.00000  Uiso   1.00
O708   O     0.08238   0.95217   0.18657   0.00000  Uiso   1.00
C709   C     0.12481   0.71496   0.18065   0.00000  Uiso   1.00
H710   H     0.10768   0.74503   0.18743   0.00000  Uiso   1.00
O711   O     0.12676   0.70203   0.14207   0.00000  Uiso   1.00
C712   C     0.21484   0.95264   0.31390   0.00000  Uiso   1.00
H713   H     0.20112   0.93740   0.34290   0.00000  Uiso   1.00
O714   O     0.25232   0.95352   0.31032   0.00000  Uiso   1.00
C715   C     0.42003   0.83326   0.25213   0.00000  Uiso   1.00
C716   C     0.57987   0.83332   0.24676   0.00000  Uiso   1.00
C717   C     0.42727   0.80977   0.02228   0.00000  Uiso   1.00
C718   C     0.57591   0.84364   0.47834   0.00000  Uiso   1.00
C719   C     0.35436   0.79180   0.25375   0.00000  Uiso   1.00
C720   C     0.64582   0.87406   0.24119   0.00000  Uiso   1.00
C721   C     0.64548   0.79160   0.24443   0.00000  Uiso   1.00
C722   C     0.35438   0.87413   0.25055   0.00000  Uiso   1.00
C723   C     0.62425   0.83301   0.24258   0.00000  Uiso   1.00
C724   C     0.37557   0.83311   0.25330   0.00000  Uiso   1.00
C725   C     0.52131   0.69089   0.28222   0.00000  Uiso   1.00
C726   C     0.47848   0.97592   0.21803   0.00000  Uiso   1.00
C727   C     0.47943   0.69053   0.21719   0.00000  Uiso   1.00
C728   C     0.52201   0.97633   0.28147   0.00000  Uiso   1.00
C729   C     0.49981   0.83322   0.16379   0.00000  Uiso   1.00
C730   C     0.50070   0.83321   0.33636   0.00000  Uiso   1.00
C731   C     0.53864   0.83358   0.40722   0.00000  Uiso   1.00
C732   C     0.46364   0.82270   0.09332   0.00000  Uiso   1.00
C733   C     0.50060   0.83241   0.38416   0.00000  Uiso   1.00
C734   C     0.50045   0.83281   0.11622   0.00000  Uiso   1.00
C735   C     0.46286   0.82817   0.40641   0.00000  Uiso   1.00
C736   C     0.53804   0.83895   0.09440   0.00000  Uiso   1.00
C737   C     0.46347   0.82440   0.45297   0.00000  Uiso   1.00
C738   C     0.53829   0.83728   0.04774   0.00000  Uiso   1.00
C739   C     0.50106   0.83046   0.47686   0.00000  Uiso   1.00
C740   C     0.50092   0.82974   0.02375   0.00000  Uiso   1.00
C741   C     0.53888   0.83596   0.45394   0.00000  Uiso   1.00
C742   C     0.46363   0.82056   0.04658   0.00000  Uiso   1.00
C743   C     0.42760   0.81226   0.47586   0.00000  Uiso   1.00
C744   C     0.57510   0.84386   0.02464   0.00000  Uiso   1.00
H745   H     0.39991   0.80247   0.45774   0.00000  Uiso   1.00
H746   H     0.60398   0.84943   0.04218   0.00000  Uiso   1.00
N747   N     0.50000   0.95240   0.25000   0.00000  Uiso   1.00
N748   N     0.50000   0.71427   0.25000   0.00000  Uiso   1.00
O749   O     0.43892   0.87154   0.25000   0.00000  Uiso   1.00
O750   O     0.56108   0.79513   0.25000   0.00000  Uiso   1.00
O751   O     0.56108   0.87154   0.25000   0.00000  Uiso   1.00
O752   O     0.43892   0.79513   0.25000   0.00000  Uiso   1.00
O753   O     0.49999   0.87156   0.18393   0.00000  Uiso   1.00
O754   O     0.50001   0.79511   0.31608   0.00000  Uiso   1.00
O755   O     0.50001   0.87156   0.31608   0.00000  Uiso   1.00
O756   O     0.49999   0.79511   0.18392   0.00000  Uiso   1.00
Zn757  Zn    0.50000   0.88437   0.25000   0.00000  Uiso   1.00
Zn758  Zn    0.50000   0.78229   0.25000   0.00000  Uiso   1.00
O759   O     0.57493   0.82420   0.38496   0.00000  Uiso   1.00
C760   C     0.59097   0.86340   0.36532   0.00000  Uiso   1.00
H761   H     0.58404   0.89460   0.38414   0.00000  Uiso   1.00
H762   H     0.57938   0.86627   0.33083   0.00000  Uiso   1.00
H763   H     0.62505   0.86035   0.36364   0.00000  Uiso   1.00
O764   O     0.42851   0.81175   0.11708   0.00000  Uiso   1.00
C765   C     0.40705   0.85131   0.12793   0.00000  Uiso   1.00
H766   H     0.42089   0.86709   0.15804   0.00000  Uiso   1.00
H767   H     0.37477   0.84216   0.13611   0.00000  Uiso   1.00
H768   H     0.40582   0.87591   0.09999   0.00000  Uiso   1.00
C769   C     0.42278   0.82733   0.38138   0.00000  Uiso   1.00
H770   H     0.39691   0.84676   0.39335   0.00000  Uiso   1.00
O771   O     0.41778   0.80342   0.34872   0.00000  Uiso   1.00
C772   C     0.57702   0.84574   0.12052   0.00000  Uiso   1.00
H773   H     0.60410   0.82581   0.11346   0.00000  Uiso   1.00
O774   O     0.57929   0.87442   0.14946   0.00000  Uiso   1.00
O775   O     0.39325   0.79193   0.04387   0.00000  Uiso   1.00
C776   C     0.35722   0.81643   0.03347   0.00000  Uiso   1.00
H777   H     0.34300   0.80426   0.00177   0.00000  Uiso   1.00
H778   H     0.36304   0.85326   0.03207   0.00000  Uiso   1.00
H779   H     0.33455   0.81045   0.06022   0.00000  Uiso   1.00
O780   O     0.61334   0.84938   0.45714   0.00000  Uiso   1.00
C781   C     0.62835   0.89343   0.46466   0.00000  Uiso   1.00
H782   H     0.64117   0.89735   0.49897   0.00000  Uiso   1.00
H783   H     0.60418   0.91921   0.45833   0.00000  Uiso   1.00
H784   H     0.65392   0.89996   0.44125   0.00000  Uiso   1.00
O785   O     0.37351   0.75469   0.27311   0.00000  Uiso   1.00
C786   C     0.37255   0.71672   0.24500   0.00000  Uiso   1.00
H787   H     0.39994   0.69597   0.25298   0.00000  Uiso   1.00
H788   H     0.37381   0.72532   0.20899   0.00000  Uiso   1.00
H789   H     0.34529   0.69545   0.25229   0.00000  Uiso   1.00
O790   O     0.62515   0.91442   0.23545   0.00000  Uiso   1.00
C791   C     0.63929   0.93711   0.19713   0.00000  Uiso   1.00
H792   H     0.66350   0.96192   0.20654   0.00000  Uiso   1.00
H793   H     0.61309   0.95607   0.18237   0.00000  Uiso   1.00
H794   H     0.65109   0.91429   0.17072   0.00000  Uiso   1.00
O795   O     0.62477   0.75089   0.24188   0.00000  Uiso   1.00
C796   C     0.61609   0.74107   0.19650   0.00000  Uiso   1.00
H797   H     0.59453   0.76572   0.18123   0.00000  Uiso   1.00
H798   H     0.60097   0.70764   0.19450   0.00000  Uiso   1.00
H799   H     0.64461   0.73974   0.17637   0.00000  Uiso   1.00
O800   O     0.37424   0.91483   0.25739   0.00000  Uiso   1.00
C801   C     0.37223   0.92583   0.30306   0.00000  Uiso   1.00
H802   H     0.38827   0.95840   0.30852   0.00000  Uiso   1.00
H803   H     0.38824   0.90036   0.32404   0.00000  Uiso   1.00
H804   H     0.33970   0.92982   0.31387   0.00000  Uiso   1.00
C805   C     0.54392   0.71558   0.31791   0.00000  Uiso   1.00
H806   H     0.56249   0.74460   0.31032   0.00000  Uiso   1.00
O807   O     0.54169   0.70374   0.35678   0.00000  Uiso   1.00
C808   C     0.45329   0.95176   0.18451   0.00000  Uiso   1.00
H809   H     0.46777   0.93681   0.15582   0.00000  Uiso   1.00
O810   O     0.41571   0.95217   0.18657   0.00000  Uiso   1.00
C811   C     0.45815   0.71496   0.18065   0.00000  Uiso   1.00
H812   H     0.44101   0.74503   0.18743   0.00000  Uiso   1.00
O813   O     0.46009   0.70203   0.14207   0.00000  Uiso   1.00
C814   C     0.54817   0.95264   0.31390   0.00000  Uiso   1.00
H815   H     0.53445   0.93740   0.34290   0.00000  Uiso   1.00
O816   O     0.58566   0.95352   0.31032   0.00000  Uiso   1.00
C817   C     0.75336   0.83326   0.25213   0.00000  Uiso   1.00
C818   C     0.91320   0.83332   0.24676   0.00000  Uiso   1.00
C819   C     0.76061   0.80977   0.02228   0.00000  Uiso   1.00
C820   C     0.90924   0.84364   0.47834   0.00000  Uiso   1.00
C821   C     0.68770   0.79180   0.25375   0.00000  Uiso   1.00
C822   C     0.97915   0.87406   0.24119   0.00000  Uiso   1.00
C823   C     0.97881   0.79160   0.24443   0.00000  Uiso   1.00
C824   C     0.68771   0.87413   0.25055   0.00000  Uiso   1.00
C825   C     0.95758   0.83301   0.24258   0.00000  Uiso   1.00
C826   C     0.70890   0.83311   0.25330   0.00000  Uiso   1.00
C827   C     0.85464   0.69089   0.28222   0.00000  Uiso   1.00
C828   C     0.81182   0.97592   0.21803   0.00000  Uiso   1.00
C829   C     0.81276   0.69053   0.21719   0.00000  Uiso   1.00
C830   C     0.85535   0.97633   0.28147   0.00000  Uiso   1.00
C831   C     0.83315   0.83322   0.16379   0.00000  Uiso   1.00
C832   C     0.83403   0.83321   0.33636   0.00000  Uiso   1.00
C833   C     0.87197   0.83358   0.40722   0.00000  Uiso   1.00
C834   C     0.79698   0.82270   0.09332   0.00000  Uiso   1.00
C835   C     0.83394   0.83241   0.38416   0.00000  Uiso   1.00
C836   C     0.83378   0.83281   0.11622   0.00000  Uiso   1.00
C837   C     0.79620   0.82817   0.40641   0.00000  Uiso   1.00
C838   C     0.87137   0.83895   0.09440   0.00000  Uiso   1.00
C839   C     0.79681   0.82440   0.45297   0.00000  Uiso   1.00
C840   C     0.87162   0.83728   0.04774   0.00000  Uiso   1.00
C841   C     0.83439   0.83046   0.47686   0.00000  Uiso   1.00
C842   C     0.83425   0.82974   0.02375   0.00000  Uiso   1.00
C843   C     0.87221   0.83596   0.45394   0.00000  Uiso   1.00
C844   C     0.79697   0.82056   0.04658   0.00000  Uiso   1.00
C845   C     0.76094   0.81226   0.47586   0.00000  Uiso   1.00
C846   C     0.90844   0.84386   0.02464   0.00000  Uiso   1.00
H847   H     0.73325   0.80247   0.45774   0.00000  Uiso   1.00
H848   H     0.93731   0.84943   0.04218   0.00000  Uiso   1.00
N849   N     0.83333   0.95240   0.25000   0.00000  Uiso   1.00
N850   N     0.83333   0.71427   0.25000   0.00000  Uiso   1.00
O851   O     0.77226   0.87154   0.25000   0.00000  Uiso   1.00
O852   O     0.89441   0.79513   0.25000   0.00000  Uiso   1.00
O853   O     0.89441   0.87154   0.25000   0.00000  Uiso   1.00
O854   O     0.77226   0.79513   0.25000   0.00000  Uiso   1.00
O855   O     0.83333   0.87156   0.18393   0.00000  Uiso   1.00
O856   O     0.83334   0.79511   0.31608   0.00000  Uiso   1.00
O857   O     0.83334   0.87156   0.31608   0.00000  Uiso   1.00
O858   O     0.83333   0.79511   0.18392   0.00000  Uiso   1.00
Zn859  Zn    0.83333   0.88437   0.25000   0.00000  Uiso   1.00
Zn860  Zn    0.83333   0.78229   0.25000   0.00000  Uiso   1.00
O861   O     0.90826   0.82420   0.38496   0.00000  Uiso   1.00
C862   C     0.92430   0.86340   0.36532   0.00000  Uiso   1.00
H863   H     0.91737   0.89460   0.38414   0.00000  Uiso   1.00
H864   H     0.91271   0.86627   0.33083   0.00000  Uiso   1.00
H865   H     0.95839   0.86035   0.36364   0.00000  Uiso   1.00
O866   O     0.76185   0.81175   0.11708   0.00000  Uiso   1.00
C867   C     0.74039   0.85131   0.12793   0.00000  Uiso   1.00
H868   H     0.75422   0.86709   0.15804   0.00000  Uiso   1.00
H869   H     0.70810   0.84216   0.13611   0.00000  Uiso   1.00
H870   H     0.73915   0.87591   0.09999   0.00000  Uiso   1.00
C871   C     0.75611   0.82733   0.38138   0.00000  Uiso   1.00
H872   H     0.73024   0.84676   0.39335   0.00000  Uiso   1.00
O873   O     0.75111   0.80342   0.34872   0.00000  Uiso   1.00
C874   C     0.91035   0.84574   0.12052   0.00000  Uiso   1.00
H875   H     0.93744   0.82581   0.11346   0.00000  Uiso   1.00
O876   O     0.91263   0.87442   0.14946   0.00000  Uiso   1.00
O877   O     0.72658   0.79193   0.04387   0.00000  Uiso   1.00
C878   C     0.69055   0.81643   0.03347   0.00000  Uiso   1.00
H879   H     0.67634   0.80426   0.00177   0.00000  Uiso   1.00
H880   H     0.69638   0.85326   0.03207   0.00000  Uiso   1.00
H881   H     0.66788   0.81045   0.06022   0.00000  Uiso   1.00
O882   O     0.94667   0.84938   0.45714   0.00000  Uiso   1.00
C883   C     0.96169   0.89343   0.46466   0.00000  Uiso   1.00
H884   H     0.97450   0.89735   0.49897   0.00000  Uiso   1.00
H885   H     0.93751   0.91921   0.45833   0.00000  Uiso   1.00
H886   H     0.98725   0.89996   0.44125   0.00000  Uiso   1.00
O887   O     0.70685   0.75469   0.27311   0.00000  Uiso   1.00
C888   C     0.70588   0.71672   0.24500   0.00000  Uiso   1.00
H889   H     0.73328   0.69597   0.25298   0.00000  Uiso   1.00
H890   H     0.70714   0.72532   0.20899   0.00000  Uiso   1.00
H891   H     0.67862   0.69545   0.25229   0.00000  Uiso   1.00
O892   O     0.95848   0.91442   0.23545   0.00000  Uiso   1.00
C893   C     0.97262   0.93711   0.19713   0.00000  Uiso   1.00
H894   H     0.99683   0.96192   0.20654   0.00000  Uiso   1.00
H895   H     0.94642   0.95607   0.18237   0.00000  Uiso   1.00
H896   H     0.98443   0.91429   0.17072   0.00000  Uiso   1.00
O897   O     0.95811   0.75089   0.24188   0.00000  Uiso   1.00
C898   C     0.94942   0.74107   0.19650   0.00000  Uiso   1.00
H899   H     0.92786   0.76572   0.18123   0.00000  Uiso   1.00
H900   H     0.93430   0.70764   0.19450   0.00000  Uiso   1.00
H901   H     0.97794   0.73974   0.17637   0.00000  Uiso   1.00
O902   O     0.70758   0.91483   0.25739   0.00000  Uiso   1.00
C903   C     0.70556   0.92583   0.30306   0.00000  Uiso   1.00
H904   H     0.72160   0.95840   0.30852   0.00000  Uiso   1.00
H905   H     0.72157   0.90036   0.32404   0.00000  Uiso   1.00
H906   H     0.67304   0.92982   0.31387   0.00000  Uiso   1.00
C907   C     0.87726   0.71558   0.31791   0.00000  Uiso   1.00
H908   H     0.89583   0.74460   0.31032   0.00000  Uiso   1.00
O909   O     0.87503   0.70374   0.35678   0.00000  Uiso   1.00
C910   C     0.78663   0.95176   0.18451   0.00000  Uiso   1.00
H911   H     0.80110   0.93681   0.15582   0.00000  Uiso   1.00
O912   O     0.74905   0.95217   0.18657   0.00000  Uiso   1.00
C913   C     0.79148   0.71496   0.18065   0.00000  Uiso   1.00
H914   H     0.77434   0.74503   0.18743   0.00000  Uiso   1.00
O915   O     0.79343   0.70203   0.14207   0.00000  Uiso   1.00
C916   C     0.88151   0.95264   0.31390   0.00000  Uiso   1.00
H917   H     0.86779   0.93740   0.34290   0.00000  Uiso   1.00
O918   O     0.91899   0.95352   0.31032   0.00000  Uiso   1.00
C919   C     0.08670   0.16659   0.75213   0.00000  Uiso   1.00
C920   C     0.24654   0.16666   0.74676   0.00000  Uiso   1.00
C921   C     0.09394   0.14311   0.52228   0.00000  Uiso   1.00
C922   C     0.24258   0.17697   0.97834   0.00000  Uiso   1.00
C923   C     0.02103   0.12513   0.75375   0.00000  Uiso   1.00
C924   C     0.31248   0.20739   0.74119   0.00000  Uiso   1.00
C925   C     0.31215   0.12494   0.74443   0.00000  Uiso   1.00
C926   C     0.02104   0.20747   0.75055   0.00000  Uiso   1.00
C927   C     0.29091   0.16634   0.74258   0.00000  Uiso   1.00
C928   C     0.04223   0.16644   0.75330   0.00000  Uiso   1.00
C929   C     0.18797   0.02423   0.78222   0.00000  Uiso   1.00
C930   C     0.14515   0.30925   0.71803   0.00000  Uiso   1.00
C931   C     0.14609   0.02386   0.71719   0.00000  Uiso   1.00
C932   C     0.18868   0.30966   0.78147   0.00000  Uiso   1.00
C933   C     0.16648   0.16656   0.66379   0.00000  Uiso   1.00
C934   C     0.16736   0.16654   0.83636   0.00000  Uiso   1.00
C935   C     0.20531   0.16691   0.90722   0.00000  Uiso   1.00
C936   C     0.13031   0.15604   0.59332   0.00000  Uiso   1.00
C937   C     0.16727   0.16574   0.88416   0.00000  Uiso   1.00
C938   C     0.16711   0.16614   0.61622   0.00000  Uiso   1.00
C939   C     0.12953   0.16151   0.90641   0.00000  Uiso   1.00
C940   C     0.20470   0.17228   0.59440   0.00000  Uiso   1.00
C941   C     0.13014   0.15774   0.95297   0.00000  Uiso   1.00
C942   C     0.20496   0.17061   0.54774   0.00000  Uiso   1.00
C943   C     0.16773   0.16380   0.97686   0.00000  Uiso   1.00
C944   C     0.16758   0.16308   0.52375   0.00000  Uiso   1.00
C945   C     0.20554   0.16929   0.95394   0.00000  Uiso   1.00
C946   C     0.13030   0.15389   0.54658   0.00000  Uiso   1.00
C947   C     0.09427   0.14559   0.97586   0.00000  Uiso   1.00
C948   C     0.24177   0.17719   0.52464   0.00000  Uiso   1.00
H949   H     0.06658   0.13580   0.95774   0.00000  Uiso   1.00
H950   H     0.27064   0.18276   0.54218   0.00000  Uiso   1.00
N951   N     0.16667   0.28573   0.75000   0.00000  Uiso   1.00
N952   N     0.16667   0.04760   0.75000   0.00000  Uiso   1.00
O953   O     0.10559   0.20487   0.75000   0.00000  Uiso   1.00
O954   O     0.22774   0.12846   0.75000   0.00000  Uiso   1.00
O955   O     0.22774   0.20487   0.75000   0.00000  Uiso   1.00
O956   O     0.10559   0.12846   0.75000   0.00000  Uiso   1.00
O957   O     0.16666   0.20489   0.68393   0.00000  Uiso   1.00
O958   O     0.16667   0.12844   0.81608   0.00000  Uiso   1.00
O959   O     0.16667   0.20489   0.81608   0.00000  Uiso   1.00
O960   O     0.16666   0.12844   0.68392   0.00000  Uiso   1.00
Zn961  Zn    0.16667   0.21771   0.75000   0.00000  Uiso   1.00
Zn962  Zn    0.16667   0.11563   0.75000   0.00000  Uiso   1.00
O963   O     0.24159   0.15753   0.88496   0.00000  Uiso   1.00
C964   C     0.25764   0.19673   0.86532   0.00000  Uiso   1.00
H965   H     0.25071   0.22794   0.88414   0.00000  Uiso   1.00
H966   H     0.24604   0.19960   0.83083   0.00000  Uiso   1.00
H967   H     0.29172   0.19368   0.86364   0.00000  Uiso   1.00
O968   O     0.09518   0.14509   0.61708   0.00000  Uiso   1.00
C969   C     0.07372   0.18464   0.62793   0.00000  Uiso   1.00
H970   H     0.08755   0.20042   0.65804   0.00000  Uiso   1.00
H971   H     0.04143   0.17549   0.63611   0.00000  Uiso   1.00
H972   H     0.07249   0.20924   0.59999   0.00000  Uiso   1.00
C973   C     0.08945   0.16067   0.88138   0.00000  Uiso   1.00
H974   H     0.06358   0.18010   0.89335   0.00000  Uiso   1.00
O975   O     0.08444   0.13675   0.84872   0.00000  Uiso   1.00
C976   C     0.24369   0.17908   0.62052   0.00000  Uiso   1.00
H977   H     0.27077   0.15914   0.61346   0.00000  Uiso   1.00
O978   O     0.24596   0.20775   0.64946   0.00000  Uiso   1.00
O979   O     0.05991   0.12526   0.54387   0.00000  Uiso   1.00
C980   C     0.02389   0.14976   0.53347   0.00000  Uiso   1.00
H981   H     0.00967   0.13759   0.50177   0.00000  Uiso   1.00
H982   H     0.02971   0.18660   0.53207   0.00000  Uiso   1.00
H983   H     0.00122   0.14378   0.56022   0.00000  Uiso   1.00
O984   O     0.28000   0.18272   0.95714   0.00000  Uiso   1.00
C985   C     0.29502   0.22677   0.96466   0.00000  Uiso   1.00
H986   H     0.30783   0.23068   0.99897   0.00000  Uiso   1.00
H987   H     0.27085   0.25254   0.95833   0.00000  Uiso   1.00
H988   H     0.32059   0.23330   0.94125   0.00000  Uiso   1.00
O989   O     0.04018   0.08803   0.77311   0.00000  Uiso   1.00
C990   C     0.03921   0.05005   0.74500   0.00000  Uiso   1.00
H991   H     0.06661   0.02931   0.75298   0.00000  Uiso   1.00
H992   H     0.04048   0.05866   0.70899   0.00000  Uiso   1.00
H993   H     0.01195   0.02878   0.75229   0.00000  Uiso   1.00
O994   O     0.29181   0.24775   0.73545   0.00000  Uiso   1.00
C995   C     0.30596   0.27044   0.69713   0.00000  Uiso   1.00
H996   H     0.33017   0.29525   0.70654   0.00000  Uiso   1.00
H997   H     0.27976   0.28940   0.68237   0.00000  Uiso   1.00
H998   H     0.31776   0.24763   0.67072   0.00000  Uiso   1.00
O999   O     0.29144   0.08423   0.74188   0.00000  Uiso   1.00
C1000  C     0.28276   0.07440   0.69650   0.00000  Uiso   1.00
H1001  H     0.26119   0.09906   0.68123   0.00000  Uiso   1.00
H1002  H     0.26763   0.04097   0.69450   0.00000  Uiso   1.00
H1003  H     0.31128   0.07308   0.67637   0.00000  Uiso   1.00
O1004  O     0.04091   0.24816   0.75739   0.00000  Uiso   1.00
C1005  C     0.03890   0.25917   0.80306   0.00000  Uiso   1.00
H1006  H     0.05494   0.29173   0.80852   0.00000  Uiso   1.00
H1007  H     0.05491   0.23369   0.82404   0.00000  Uiso   1.00
H1008  H     0.00637   0.26315   0.81387   0.00000  Uiso   1.00
C1009  C     0.21059   0.04891   0.81791   0.00000  Uiso   1.00
H1010  H     0.22916   0.07794   0.81032   0.00000  Uiso   1.00
O1011  O     0.20836   0.03707   0.85678   0.00000  Uiso   1.00
C1012  C     0.11996   0.28510   0.68451   0.00000  Uiso   1.00
H1013  H     0.13444   0.27014   0.65582   0.00000  Uiso   1.00
O1014  O     0.08238   0.28550   0.68657   0.00000  Uiso   1.00
C1015  C     0.12481   0.04829   0.68065   0.00000  Uiso   1.00
H1016  H     0.10768   0.07836   0.68743   0.00000  Uiso   1.00
O1017  O     0.12676   0.03537   0.64207   0.00000  Uiso   1.00
C1018  C     0.21484   0.28598   0.81390   0.00000  Uiso   1.00
H1019  H     0.20112   0.27073   0.84290   0.00000  Uiso   1.00
O1020  O     0.25232   0.28686   0.81032   0.00000  Uiso   1.00
C1021  C     0.42003   0.16659   0.75213   0.00000  Uiso   1.00
C1022  C     0.57987   0.16666   0.74676   0.00000  Uiso   1.00
C1023  C     0.42727   0.14311   0.52228   0.00000  Uiso   1.00
C1024  C     0.57591   0.17697   0.97834   0.00000  Uiso   1.00
C1025  C     0.35436   0.12513   0.75375   0.00000  Uiso   1.00
C1026  C     0.64582   0.20739   0.74119   0.00000  Uiso   1.00
C1027  C     0.64548   0.12494   0.74443   0.00000  Uiso   1.00
C1028  C     0.35438   0.20747   0.75055   0.00000  Uiso   1.00
C1029  C     0.62425   0.16634   0.74258   0.00000  Uiso   1.00
C1030  C     0.37557   0.16644   0.75330   0.00000  Uiso   1.00
C1031  C     0.52131   0.02423   0.78222   0.00000  Uiso   1.00
C1032  C     0.47848   0.30925   0.71803   0.00000  Uiso   1.00
C1033  C     0.47943   0.02386   0.71719   0.00000  Uiso   1.00
C1034  C     0.52201   0.30966   0.78147   0.00000  Uiso   1.00
C1035  C     0.49981   0.16656   0.66379   0.00000  Uiso   1.00
C1036  C     0.50070   0.16654   0.83636   0.00000  Uiso   1.00
C1037  C     0.53864   0.16691   0.90722   0.00000  Uiso   1.00
C1038  C     0.46364   0.15604   0.59332   0.00000  Uiso   1.00
C1039  C     0.50060   0.16574   0.88416   0.00000  Uiso   1.00
C1040  C     0.50045   0.16614   0.61622   0.00000  Uiso   1.00
C1041  C     0.46286   0.16151   0.90641   0.00000  Uiso   1.00
C1042  C     0.53804   0.17228   0.59440   0.00000  Uiso   1.00
C1043  C     0.46347   0.15774   0.95297   0.00000  Uiso   1.00
C1044  C     0.53829   0.17061   0.54774   0.00000  Uiso   1.00
C1045  C     0.50106   0.16380   0.97686   0.00000  Uiso   1.00
C1046  C     0.50092   0.16308   0.52375   0.00000  Uiso   1.00
C1047  C     0.53888   0.16929   0.95394   0.00000  Uiso   1.00
C1048  C     0.46363   0.15389   0.54658   0.00000  Uiso   1.00
C1049  C     0.42760   0.14559   0.97586   0.00000  Uiso   1.00
C1050  C     0.57510   0.17719   0.52464   0.00000  Uiso   1.00
H1051  H     0.39991   0.13580   0.95774   0.00000  Uiso   1.00
H1052  H     0.60398   0.18276   0.54218   0.00000  Uiso   1.00
N1053  N     0.50000   0.28573   0.75000   0.00000  Uiso   1.00
N1054  N     0.50000   0.04760   0.75000   0.00000  Uiso   1.00
O1055  O     0.43892   0.20487   0.75000   0.00000  Uiso   1.00
O1056  O     0.56108   0.12846   0.75000   0.00000  Uiso   1.00
O1057  O     0.56108   0.20487   0.75000   0.00000  Uiso   1.00
O1058  O     0.43892   0.12846   0.75000   0.00000  Uiso   1.00
O1059  O     0.49999   0.20489   0.68393   0.00000  Uiso   1.00
O1060  O     0.50001   0.12844   0.81608   0.00000  Uiso   1.00
O1061  O     0.50001   0.20489   0.81608   0.00000  Uiso   1.00
O1062  O     0.49999   0.12844   0.68392   0.00000  Uiso   1.00
Zn1063 Zn    0.50000   0.21771   0.75000   0.00000  Uiso   1.00
Zn1064 Zn    0.50000   0.11563   0.75000   0.00000  Uiso   1.00
O1065  O     0.57493   0.15753   0.88496   0.00000  Uiso   1.00
C1066  C     0.59097   0.19673   0.86532   0.00000  Uiso   1.00
H1067  H     0.58404   0.22794   0.88414   0.00000  Uiso   1.00
H1068  H     0.57938   0.19960   0.83083   0.00000  Uiso   1.00
H1069  H     0.62505   0.19368   0.86364   0.00000  Uiso   1.00
O1070  O     0.42851   0.14509   0.61708   0.00000  Uiso   1.00
C1071  C     0.40705   0.18464   0.62793   0.00000  Uiso   1.00
H1072  H     0.42089   0.20042   0.65804   0.00000  Uiso   1.00
H1073  H     0.37477   0.17549   0.63611   0.00000  Uiso   1.00
H1074  H     0.40582   0.20924   0.59999   0.00000  Uiso   1.00
C1075  C     0.42278   0.16067   0.88138   0.00000  Uiso   1.00
H1076  H     0.39691   0.18010   0.89335   0.00000  Uiso   1.00
O1077  O     0.41778   0.13675   0.84872   0.00000  Uiso   1.00
C1078  C     0.57702   0.17908   0.62052   0.00000  Uiso   1.00
H1079  H     0.60410   0.15914   0.61346   0.00000  Uiso   1.00
O1080  O     0.57929   0.20775   0.64946   0.00000  Uiso   1.00
O1081  O     0.39325   0.12526   0.54387   0.00000  Uiso   1.00
C1082  C     0.35722   0.14976   0.53347   0.00000  Uiso   1.00
H1083  H     0.34300   0.13759   0.50177   0.00000  Uiso   1.00
H1084  H     0.36304   0.18660   0.53207   0.00000  Uiso   1.00
H1085  H     0.33455   0.14378   0.56022   0.00000  Uiso   1.00
O1086  O     0.61334   0.18272   0.95714   0.00000  Uiso   1.00
C1087  C     0.62835   0.22677   0.96466   0.00000  Uiso   1.00
H1088  H     0.64117   0.23068   0.99897   0.00000  Uiso   1.00
H1089  H     0.60418   0.25254   0.95833   0.00000  Uiso   1.00
H1090  H     0.65392   0.23330   0.94125   0.00000  Uiso   1.00
O1091  O     0.37351   0.08803   0.77311   0.00000  Uiso   1.00
C1092  C     0.37255   0.05005   0.74500   0.00000  Uiso   1.00
H1093  H     0.39994   0.02931   0.75298   0.00000  Uiso   1.00
H1094  H     0.37381   0.05866   0.70899   0.00000  Uiso   1.00
H1095  H     0.34529   0.02878   0.75229   0.00000  Uiso   1.00
O1096  O     0.62515   0.24775   0.73545   0.00000  Uiso   1.00
C1097  C     0.63929   0.27044   0.69713   0.00000  Uiso   1.00
H1098  H     0.66350   0.29525   0.70654   0.00000  Uiso   1.00
H1099  H     0.61309   0.28940   0.68237   0.00000  Uiso   1.00
H1100  H     0.65109   0.24763   0.67072   0.00000  Uiso   1.00
O1101  O     0.62477   0.08423   0.74188   0.00000  Uiso   1.00
C1102  C     0.61609   0.07440   0.69650   0.00000  Uiso   1.00
H1103  H     0.59453   0.09906   0.68123   0.00000  Uiso   1.00
H1104  H     0.60097   0.04097   0.69450   0.00000  Uiso   1.00
H1105  H     0.64461   0.07308   0.67637   0.00000  Uiso   1.00
O1106  O     0.37424   0.24816   0.75739   0.00000  Uiso   1.00
C1107  C     0.37223   0.25917   0.80306   0.00000  Uiso   1.00
H1108  H     0.38827   0.29173   0.80852   0.00000  Uiso   1.00
H1109  H     0.38824   0.23369   0.82404   0.00000  Uiso   1.00
H1110  H     0.33970   0.26315   0.81387   0.00000  Uiso   1.00
C1111  C     0.54392   0.04891   0.81791   0.00000  Uiso   1.00
H1112  H     0.56249   0.07794   0.81032   0.00000  Uiso   1.00
O1113  O     0.54169   0.03707   0.85678   0.00000  Uiso   1.00
C1114  C     0.45329   0.28510   0.68451   0.00000  Uiso   1.00
H1115  H     0.46777   0.27014   0.65582   0.00000  Uiso   1.00
O1116  O     0.41571   0.28550   0.68657   0.00000  Uiso   1.00
C1117  C     0.45815   0.04829   0.68065   0.00000  Uiso   1.00
H1118  H     0.44101   0.07836   0.68743   0.00000  Uiso   1.00
O1119  O     0.46009   0.03537   0.64207   0.00000  Uiso   1.00
C1120  C     0.54817   0.28598   0.81390   0.00000  Uiso   1.00
H1121  H     0.53445   0.27073   0.84290   0.00000  Uiso   1.00
O1122  O     0.58566   0.28686   0.81032   0.00000  Uiso   1.00
C1123  C     0.75336   0.16659   0.75213   0.00000  Uiso   1.00
C1124  C     0.91320   0.16666   0.74676   0.00000  Uiso   1.00
C1125  C     0.76061   0.14311   0.52228   0.00000  Uiso   1.00
C1126  C     0.90924   0.17697   0.97834   0.00000  Uiso   1.00
C1127  C     0.68770   0.12513   0.75375   0.00000  Uiso   1.00
C1128  C     0.97915   0.20739   0.74119   0.00000  Uiso   1.00
C1129  C     0.97881   0.12494   0.74443   0.00000  Uiso   1.00
C1130  C     0.68771   0.20747   0.75055   0.00000  Uiso   1.00
C1131  C     0.95758   0.16634   0.74258   0.00000  Uiso   1.00
C1132  C     0.70890   0.16644   0.75330   0.00000  Uiso   1.00
C1133  C     0.85464   0.02423   0.78222   0.00000  Uiso   1.00
C1134  C     0.81182   0.30925   0.71803   0.00000  Uiso   1.00
C1135  C     0.81276   0.02386   0.71719   0.00000  Uiso   1.00
C1136  C     0.85535   0.30966   0.78147   0.00000  Uiso   1.00
C1137  C     0.83315   0.16656   0.66379   0.00000  Uiso   1.00
C1138  C     0.83403   0.16654   0.83636   0.00000  Uiso   1.00
C1139  C     0.87197   0.16691   0.90722   0.00000  Uiso   1.00
C1140  C     0.79698   0.15604   0.59332   0.00000  Uiso   1.00
C1141  C     0.83394   0.16574   0.88416   0.00000  Uiso   1.00
C1142  C     0.83378   0.16614   0.61622   0.00000  Uiso   1.00
C1143  C     0.79620   0.16151   0.90641   0.00000  Uiso   1.00
C1144  C     0.87137   0.17228   0.59440   0.00000  Uiso   1.00
C1145  C     0.79681   0.15774   0.95297   0.00000  Uiso   1.00
C1146  C     0.87162   0.17061   0.54774   0.00000  Uiso   1.00
C1147  C     0.83439   0.16380   0.97686   0.00000  Uiso   1.00
C1148  C     0.83425   0.16308   0.52375   0.00000  Uiso   1.00
C1149  C     0.87221   0.16929   0.95394   0.00000  Uiso   1.00
C1150  C     0.79697   0.15389   0.54658   0.00000  Uiso   1.00
C1151  C     0.76094   0.14559   0.97586   0.00000  Uiso   1.00
C1152  C     0.90844   0.17719   0.52464   0.00000  Uiso   1.00
H1153  H     0.73325   0.13580   0.95774   0.00000  Uiso   1.00
H1154  H     0.93731   0.18276   0.54218   0.00000  Uiso   1.00
N1155  N     0.83333   0.28573   0.75000   0.00000  Uiso   1.00
N1156  N     0.83333   0.04760   0.75000   0.00000  Uiso   1.00
O1157  O     0.77226   0.20487   0.75000   0.00000  Uiso   1.00
O1158  O     0.89441   0.12846   0.75000   0.00000  Uiso   1.00
O1159  O     0.89441   0.20487   0.75000   0.00000  Uiso   1.00
O1160  O     0.77226   0.12846   0.75000   0.00000  Uiso   1.00
O1161  O     0.83333   0.20489   0.68393   0.00000  Uiso   1.00
O1162  O     0.83334   0.12844   0.81608   0.00000  Uiso   1.00
O1163  O     0.83334   0.20489   0.81608   0.00000  Uiso   1.00
O1164  O     0.83333   0.12844   0.68392   0.00000  Uiso   1.00
Zn1165 Zn    0.83333   0.21771   0.75000   0.00000  Uiso   1.00
Zn1166 Zn    0.83333   0.11563   0.75000   0.00000  Uiso   1.00
O1167  O     0.90826   0.15753   0.88496   0.00000  Uiso   1.00
C1168  C     0.92430   0.19673   0.86532   0.00000  Uiso   1.00
H1169  H     0.91737   0.22794   0.88414   0.00000  Uiso   1.00
H1170  H     0.91271   0.19960   0.83083   0.00000  Uiso   1.00
H1171  H     0.95839   0.19368   0.86364   0.00000  Uiso   1.00
O1172  O     0.76185   0.14509   0.61708   0.00000  Uiso   1.00
C1173  C     0.74039   0.18464   0.62793   0.00000  Uiso   1.00
H1174  H     0.75422   0.20042   0.65804   0.00000  Uiso   1.00
H1175  H     0.70810   0.17549   0.63611   0.00000  Uiso   1.00
H1176  H     0.73915   0.20924   0.59999   0.00000  Uiso   1.00
C1177  C     0.75611   0.16067   0.88138   0.00000  Uiso   1.00
H1178  H     0.73024   0.18010   0.89335   0.00000  Uiso   1.00
O1179  O     0.75111   0.13675   0.84872   0.00000  Uiso   1.00
C1180  C     0.91035   0.17908   0.62052   0.00000  Uiso   1.00
H1181  H     0.93744   0.15914   0.61346   0.00000  Uiso   1.00
O1182  O     0.91263   0.20775   0.64946   0.00000  Uiso   1.00
O1183  O     0.72658   0.12526   0.54387   0.00000  Uiso   1.00
C1184  C     0.69055   0.14976   0.53347   0.00000  Uiso   1.00
H1185  H     0.67634   0.13759   0.50177   0.00000  Uiso   1.00
H1186  H     0.69638   0.18660   0.53207   0.00000  Uiso   1.00
H1187  H     0.66788   0.14378   0.56022   0.00000  Uiso   1.00
O1188  O     0.94667   0.18272   0.95714   0.00000  Uiso   1.00
C1189  C     0.96169   0.22677   0.96466   0.00000  Uiso   1.00
H1190  H     0.97450   0.23068   0.99897   0.00000  Uiso   1.00
H1191  H     0.93751   0.25254   0.95833   0.00000  Uiso   1.00
H1192  H     0.98725   0.23330   0.94125   0.00000  Uiso   1.00
O1193  O     0.70685   0.08803   0.77311   0.00000  Uiso   1.00
C1194  C     0.70588   0.05005   0.74500   0.00000  Uiso   1.00
H1195  H     0.73328   0.02931   0.75298   0.00000  Uiso   1.00
H1196  H     0.70714   0.05866   0.70899   0.00000  Uiso   1.00
H1197  H     0.67862   0.02878   0.75229   0.00000  Uiso   1.00
O1198  O     0.95848   0.24775   0.73545   0.00000  Uiso   1.00
C1199  C     0.97262   0.27044   0.69713   0.00000  Uiso   1.00
H1200  H     0.99683   0.29525   0.70654   0.00000  Uiso   1.00
H1201  H     0.94642   0.28940   0.68237   0.00000  Uiso   1.00
H1202  H     0.98443   0.24763   0.67072   0.00000  Uiso   1.00
O1203  O     0.95811   0.08423   0.74188   0.00000  Uiso   1.00
C1204  C     0.94942   0.07440   0.69650   0.00000  Uiso   1.00
H1205  H     0.92786   0.09906   0.68123   0.00000  Uiso   1.00
H1206  H     0.93430   0.04097   0.69450   0.00000  Uiso   1.00
H1207  H     0.97794   0.07308   0.67637   0.00000  Uiso   1.00
O1208  O     0.70758   0.24816   0.75739   0.00000  Uiso   1.00
C1209  C     0.70556   0.25917   0.80306   0.00000  Uiso   1.00
H1210  H     0.72160   0.29173   0.80852   0.00000  Uiso   1.00
H1211  H     0.72157   0.23369   0.82404   0.00000  Uiso   1.00
H1212  H     0.67304   0.26315   0.81387   0.00000  Uiso   1.00
C1213  C     0.87726   0.04891   0.81791   0.00000  Uiso   1.00
H1214  H     0.89583   0.07794   0.81032   0.00000  Uiso   1.00
O1215  O     0.87503   0.03707   0.85678   0.00000  Uiso   1.00
C1216  C     0.78663   0.28510   0.68451   0.00000  Uiso   1.00
H1217  H     0.80110   0.27014   0.65582   0.00000  Uiso   1.00
O1218  O     0.74905   0.28550   0.68657   0.00000  Uiso   1.00
C1219  C     0.79148   0.04829   0.68065   0.00000  Uiso   1.00
H1220  H     0.77434   0.07836   0.68743   0.00000  Uiso   1.00
O1221  O     0.79343   0.03537   0.64207   0.00000  Uiso   1.00
C1222  C     0.88151   0.28598   0.81390   0.00000  Uiso   1.00
H1223  H     0.86779   0.27073   0.84290   0.00000  Uiso   1.00
O1224  O     0.91899   0.28686   0.81032   0.00000  Uiso   1.00
C1225  C     0.08670   0.49993   0.75213   0.00000  Uiso   1.00
C1226  C     0.24654   0.49999   0.74676   0.00000  Uiso   1.00
C1227  C     0.09394   0.47644   0.52228   0.00000  Uiso   1.00
C1228  C     0.24258   0.51030   0.97834   0.00000  Uiso   1.00
C1229  C     0.02103   0.45847   0.75375   0.00000  Uiso   1.00
C1230  C     0.31248   0.54072   0.74119   0.00000  Uiso   1.00
C1231  C     0.31215   0.45827   0.74443   0.00000  Uiso   1.00
C1232  C     0.02104   0.54080   0.75055   0.00000  Uiso   1.00
C1233  C     0.29091   0.49967   0.74258   0.00000  Uiso   1.00
C1234  C     0.04223   0.49978   0.75330   0.00000  Uiso   1.00
C1235  C     0.18797   0.35756   0.78222   0.00000  Uiso   1.00
C1236  C     0.14515   0.64259   0.71803   0.00000  Uiso   1.00
C1237  C     0.14609   0.35720   0.71719   0.00000  Uiso   1.00
C1238  C     0.18868   0.64299   0.78147   0.00000  Uiso   1.00
C1239  C     0.16648   0.49989   0.66379   0.00000  Uiso   1.00
C1240  C     0.16736   0.49987   0.83636   0.00000  Uiso   1.00
C1241  C     0.20531   0.50024   0.90722   0.00000  Uiso   1.00
C1242  C     0.13031   0.48937   0.59332   0.00000  Uiso   1.00
C1243  C     0.16727   0.49908   0.88416   0.00000  Uiso   1.00
C1244  C     0.16711   0.49947   0.61622   0.00000  Uiso   1.00
C1245  C     0.12953   0.49484   0.90641   0.00000  Uiso   1.00
C1246  C     0.20470   0.50561   0.59440   0.00000  Uiso   1.00
C1247  C     0.13014   0.49107   0.95297   0.00000  Uiso   1.00
C1248  C     0.20496   0.50395   0.54774   0.00000  Uiso   1.00
C1249  C     0.16773   0.49713   0.97686   0.00000  Uiso   1.00
C1250  C     0.16758   0.49641   0.52375   0.00000  Uiso   1.00
C1251  C     0.20554   0.50262   0.95394   0.00000  Uiso   1.00
C1252  C     0.13030   0.48722   0.54658   0.00000  Uiso   1.00
C1253  C     0.09427   0.47893   0.97586   0.00000  Uiso   1.00
C1254  C     0.24177   0.51052   0.52464   0.00000  Uiso   1.00
H1255  H     0.06658   0.46913   0.95774   0.00000  Uiso   1.00
H1256  H     0.27064   0.51609   0.54218   0.00000  Uiso   1.00
N1257  N     0.16667   0.61907   0.75000   0.00000  Uiso   1.00
N1258  N     0.16667   0.38093   0.75000   0.00000  Uiso   1.00
O1259  O     0.10559   0.53821   0.75000   0.00000  Uiso   1.00
O1260  O     0.22774   0.46179   0.75000   0.00000  Uiso   1.00
O1261  O     0.22774   0.53821   0.75000   0.00000  Uiso   1.00
O1262  O     0.10559   0.46179   0.75000   0.00000  Uiso   1.00
O1263  O     0.16666   0.53823   0.68393   0.00000  Uiso   1.00
O1264  O     0.16667   0.46177   0.81608   0.00000  Uiso   1.00
O1265  O     0.16667   0.53823   0.81608   0.00000  Uiso   1.00
O1266  O     0.16666   0.46177   0.68392   0.00000  Uiso   1.00
Zn1267 Zn    0.16667   0.55104   0.75000   0.00000  Uiso   1.00
Zn1268 Zn    0.16667   0.44896   0.75000   0.00000  Uiso   1.00
O1269  O     0.24159   0.49086   0.88496   0.00000  Uiso   1.00
C1270  C     0.25764   0.53007   0.86532   0.00000  Uiso   1.00
H1271  H     0.25071   0.56127   0.88414   0.00000  Uiso   1.00
H1272  H     0.24604   0.53294   0.83083   0.00000  Uiso   1.00
H1273  H     0.29172   0.52701   0.86364   0.00000  Uiso   1.00
O1274  O     0.09518   0.47842   0.61708   0.00000  Uiso   1.00
C1275  C     0.07372   0.51797   0.62793   0.00000  Uiso   1.00
H1276  H     0.08755   0.53376   0.65804   0.00000  Uiso   1.00
H1277  H     0.04143   0.50883   0.63611   0.00000  Uiso   1.00
H1278  H     0.07249   0.54258   0.59999   0.00000  Uiso   1.00
C1279  C     0.08945   0.49400   0.88138   0.00000  Uiso   1.00
H1280  H     0.06358   0.51343   0.89335   0.00000  Uiso   1.00
O1281  O     0.08444   0.47009   0.84872   0.00000  Uiso   1.00
C1282  C     0.24369   0.51241   0.62052   0.00000  Uiso   1.00
H1283  H     0.27077   0.49247   0.61346   0.00000  Uiso   1.00
O1284  O     0.24596   0.54108   0.64946   0.00000  Uiso   1.00
O1285  O     0.05991   0.45860   0.54387   0.00000  Uiso   1.00
C1286  C     0.02389   0.48309   0.53347   0.00000  Uiso   1.00
H1287  H     0.00967   0.47093   0.50177   0.00000  Uiso   1.00
H1288  H     0.02971   0.51993   0.53207   0.00000  Uiso   1.00
H1289  H     0.00122   0.47711   0.56022   0.00000  Uiso   1.00
O1290  O     0.28000   0.51605   0.95714   0.00000  Uiso   1.00
C1291  C     0.29502   0.56010   0.96466   0.00000  Uiso   1.00
H1292  H     0.30783   0.56401   0.99897   0.00000  Uiso   1.00
H1293  H     0.27085   0.58588   0.95833   0.00000  Uiso   1.00
H1294  H     0.32059   0.56663   0.94125   0.00000  Uiso   1.00
O1295  O     0.04018   0.42136   0.77311   0.00000  Uiso   1.00
C1296  C     0.03921   0.38339   0.74500   0.00000  Uiso   1.00
H1297  H     0.06661   0.36264   0.75298   0.00000  Uiso   1.00
H1298  H     0.04048   0.39199   0.70899   0.00000  Uiso   1.00
H1299  H     0.01195   0.36211   0.75229   0.00000  Uiso   1.00
O1300  O     0.29181   0.58108   0.73545   0.00000  Uiso   1.00
C1301  C     0.30596   0.60378   0.69713   0.00000  Uiso   1.00
H1302  H     0.33017   0.62859   0.70654   0.00000  Uiso   1.00
H1303  H     0.27976   0.62274   0.68237   0.00000  Uiso   1.00
H1304  H     0.31776   0.58096   0.67072   0.00000  Uiso   1.00
O1305  O     0.29144   0.41756   0.74188   0.00000  Uiso   1.00
C1306  C     0.28276   0.40773   0.69650   0.00000  Uiso   1.00
H1307  H     0.26119   0.43239   0.68123   0.00000  Uiso   1.00
H1308  H     0.26763   0.37431   0.69450   0.00000  Uiso   1.00
H1309  H     0.31128   0.40641   0.67637   0.00000  Uiso   1.00
O1310  O     0.04091   0.58150   0.75739   0.00000  Uiso   1.00
C1311  C     0.03890   0.59250   0.80306   0.00000  Uiso   1.00
H1312  H     0.05494   0.62507   0.80852   0.00000  Uiso   1.00
H1313  H     0.05491   0.56702   0.82404   0.00000  Uiso   1.00
H1314  H     0.00637   0.59648   0.81387   0.00000  Uiso   1.00
C1315  C     0.21059   0.38225   0.81791   0.00000  Uiso   1.00
H1316  H     0.22916   0.41127   0.81032   0.00000  Uiso   1.00
O1317  O     0.20836   0.37041   0.85678   0.00000  Uiso   1.00
C1318  C     0.11996   0.61843   0.68451   0.00000  Uiso   1.00
H1319  H     0.13444   0.60348   0.65582   0.00000  Uiso   1.00
O1320  O     0.08238   0.61883   0.68657   0.00000  Uiso   1.00
C1321  C     0.12481   0.38163   0.68065   0.00000  Uiso   1.00
H1322  H     0.10768   0.41170   0.68743   0.00000  Uiso   1.00
O1323  O     0.12676   0.36870   0.64207   0.00000  Uiso   1.00
C1324  C     0.21484   0.61931   0.81390   0.00000  Uiso   1.00
H1325  H     0.20112   0.60406   0.84290   0.00000  Uiso   1.00
O1326  O     0.25232   0.62019   0.81032   0.00000  Uiso   1.00
C1327  C     0.42003   0.49993   0.75213   0.00000  Uiso   1.00
C1328  C     0.57987   0.49999   0.74676   0.00000  Uiso   1.00
C1329  C     0.42727   0.47644   0.52228   0.00000  Uiso   1.00
C1330  C     0.57591   0.51030   0.97834   0.00000  Uiso   1.00
C1331  C     0.35436   0.45847   0.75375   0.00000  Uiso   1.00
C1332  C     0.64582   0.54072   0.74119   0.00000  Uiso   1.00
C1333  C     0.64548   0.45827   0.74443   0.00000  Uiso   1.00
C1334  C     0.35438   0.54080   0.75055   0.00000  Uiso   1.00
C1335  C     0.62425   0.49967   0.74258   0.00000  Uiso   1.00
C1336  C     0.37557   0.49978   0.75330   0.00000  Uiso   1.00
C1337  C     0.52131   0.35756   0.78222   0.00000  Uiso   1.00
C1338  C     0.47848   0.64259   0.71803   0.00000  Uiso   1.00
C1339  C     0.47943   0.35720   0.71719   0.00000  Uiso   1.00
C1340  C     0.52201   0.64299   0.78147   0.00000  Uiso   1.00
C1341  C     0.49981   0.49989   0.66379   0.00000  Uiso   1.00
C1342  C     0.50070   0.49987   0.83636   0.00000  Uiso   1.00
C1343  C     0.53864   0.50024   0.90722   0.00000  Uiso   1.00
C1344  C     0.46364   0.48937   0.59332   0.00000  Uiso   1.00
C1345  C     0.50060   0.49908   0.88416   0.00000  Uiso   1.00
C1346  C     0.50045   0.49947   0.61622   0.00000  Uiso   1.00
C1347  C     0.46286   0.49484   0.90641   0.00000  Uiso   1.00
C1348  C     0.53804   0.50561   0.59440   0.00000  Uiso   1.00
C1349  C     0.46347   0.49107   0.95297   0.00000  Uiso   1.00
C1350  C     0.53829   0.50395   0.54774   0.00000  Uiso   1.00
C1351  C     0.50106   0.49713   0.97686   0.00000  Uiso   1.00
C1352  C     0.50092   0.49641   0.52375   0.00000  Uiso   1.00
C1353  C     0.53888   0.50262   0.95394   0.00000  Uiso   1.00
C1354  C     0.46363   0.48722   0.54658   0.00000  Uiso   1.00
C1355  C     0.42760   0.47893   0.97586   0.00000  Uiso   1.00
C1356  C     0.57510   0.51052   0.52464   0.00000  Uiso   1.00
H1357  H     0.39991   0.46913   0.95774   0.00000  Uiso   1.00
H1358  H     0.60398   0.51609   0.54218   0.00000  Uiso   1.00
N1359  N     0.50000   0.61907   0.75000   0.00000  Uiso   1.00
N1360  N     0.50000   0.38093   0.75000   0.00000  Uiso   1.00
O1361  O     0.43892   0.53821   0.75000   0.00000  Uiso   1.00
O1362  O     0.56108   0.46179   0.75000   0.00000  Uiso   1.00
O1363  O     0.56108   0.53821   0.75000   0.00000  Uiso   1.00
O1364  O     0.43892   0.46179   0.75000   0.00000  Uiso   1.00
O1365  O     0.49999   0.53823   0.68393   0.00000  Uiso   1.00
O1366  O     0.50001   0.46177   0.81608   0.00000  Uiso   1.00
O1367  O     0.50001   0.53823   0.81608   0.00000  Uiso   1.00
O1368  O     0.49999   0.46177   0.68392   0.00000  Uiso   1.00
Zn1369 Zn    0.50000   0.55104   0.75000   0.00000  Uiso   1.00
Zn1370 Zn    0.50000   0.44896   0.75000   0.00000  Uiso   1.00
O1371  O     0.57493   0.49086   0.88496   0.00000  Uiso   1.00
C1372  C     0.59097   0.53007   0.86532   0.00000  Uiso   1.00
H1373  H     0.58404   0.56127   0.88414   0.00000  Uiso   1.00
H1374  H     0.57938   0.53294   0.83083   0.00000  Uiso   1.00
H1375  H     0.62505   0.52701   0.86364   0.00000  Uiso   1.00
O1376  O     0.42851   0.47842   0.61708   0.00000  Uiso   1.00
C1377  C     0.40705   0.51797   0.62793   0.00000  Uiso   1.00
H1378  H     0.42089   0.53376   0.65804   0.00000  Uiso   1.00
H1379  H     0.37477   0.50883   0.63611   0.00000  Uiso   1.00
H1380  H     0.40582   0.54258   0.59999   0.00000  Uiso   1.00
C1381  C     0.42278   0.49400   0.88138   0.00000  Uiso   1.00
H1382  H     0.39691   0.51343   0.89335   0.00000  Uiso   1.00
O1383  O     0.41778   0.47009   0.84872   0.00000  Uiso   1.00
C1384  C     0.57702   0.51241   0.62052   0.00000  Uiso   1.00
H1385  H     0.60410   0.49247   0.61346   0.00000  Uiso   1.00
O1386  O     0.57929   0.54108   0.64946   0.00000  Uiso   1.00
O1387  O     0.39325   0.45860   0.54387   0.00000  Uiso   1.00
C1388  C     0.35722   0.48309   0.53347   0.00000  Uiso   1.00
H1389  H     0.34300   0.47093   0.50177   0.00000  Uiso   1.00
H1390  H     0.36304   0.51993   0.53207   0.00000  Uiso   1.00
H1391  H     0.33455   0.47711   0.56022   0.00000  Uiso   1.00
O1392  O     0.61334   0.51605   0.95714   0.00000  Uiso   1.00
C1393  C     0.62835   0.56010   0.96466   0.00000  Uiso   1.00
H1394  H     0.64117   0.56401   0.99897   0.00000  Uiso   1.00
H1395  H     0.60418   0.58588   0.95833   0.00000  Uiso   1.00
H1396  H     0.65392   0.56663   0.94125   0.00000  Uiso   1.00
O1397  O     0.37351   0.42136   0.77311   0.00000  Uiso   1.00
C1398  C     0.37255   0.38339   0.74500   0.00000  Uiso   1.00
H1399  H     0.39994   0.36264   0.75298   0.00000  Uiso   1.00
H1400  H     0.37381   0.39199   0.70899   0.00000  Uiso   1.00
H1401  H     0.34529   0.36211   0.75229   0.00000  Uiso   1.00
O1402  O     0.62515   0.58108   0.73545   0.00000  Uiso   1.00
C1403  C     0.63929   0.60378   0.69713   0.00000  Uiso   1.00
H1404  H     0.66350   0.62859   0.70654   0.00000  Uiso   1.00
H1405  H     0.61309   0.62274   0.68237   0.00000  Uiso   1.00
H1406  H     0.65109   0.58096   0.67072   0.00000  Uiso   1.00
O1407  O     0.62477   0.41756   0.74188   0.00000  Uiso   1.00
C1408  C     0.61609   0.40773   0.69650   0.00000  Uiso   1.00
H1409  H     0.59453   0.43239   0.68123   0.00000  Uiso   1.00
H1410  H     0.60097   0.37431   0.69450   0.00000  Uiso   1.00
H1411  H     0.64461   0.40641   0.67637   0.00000  Uiso   1.00
O1412  O     0.37424   0.58150   0.75739   0.00000  Uiso   1.00
C1413  C     0.37223   0.59250   0.80306   0.00000  Uiso   1.00
H1414  H     0.38827   0.62507   0.80852   0.00000  Uiso   1.00
H1415  H     0.38824   0.56702   0.82404   0.00000  Uiso   1.00
H1416  H     0.33970   0.59648   0.81387   0.00000  Uiso   1.00
C1417  C     0.54392   0.38225   0.81791   0.00000  Uiso   1.00
H1418  H     0.56249   0.41127   0.81032   0.00000  Uiso   1.00
O1419  O     0.54169   0.37041   0.85678   0.00000  Uiso   1.00
C1420  C     0.45329   0.61843   0.68451   0.00000  Uiso   1.00
H1421  H     0.46777   0.60348   0.65582   0.00000  Uiso   1.00
O1422  O     0.41571   0.61883   0.68657   0.00000  Uiso   1.00
C1423  C     0.45815   0.38163   0.68065   0.00000  Uiso   1.00
H1424  H     0.44101   0.41170   0.68743   0.00000  Uiso   1.00
O1425  O     0.46009   0.36870   0.64207   0.00000  Uiso   1.00
C1426  C     0.54817   0.61931   0.81390   0.00000  Uiso   1.00
H1427  H     0.53445   0.60406   0.84290   0.00000  Uiso   1.00
O1428  O     0.58566   0.62019   0.81032   0.00000  Uiso   1.00
C1429  C     0.75336   0.49993   0.75213   0.00000  Uiso   1.00
C1430  C     0.91320   0.49999   0.74676   0.00000  Uiso   1.00
C1431  C     0.76061   0.47644   0.52228   0.00000  Uiso   1.00
C1432  C     0.90924   0.51030   0.97834   0.00000  Uiso   1.00
C1433  C     0.68770   0.45847   0.75375   0.00000  Uiso   1.00
C1434  C     0.97915   0.54072   0.74119   0.00000  Uiso   1.00
C1435  C     0.97881   0.45827   0.74443   0.00000  Uiso   1.00
C1436  C     0.68771   0.54080   0.75055   0.00000  Uiso   1.00
C1437  C     0.95758   0.49967   0.74258   0.00000  Uiso   1.00
C1438  C     0.70890   0.49978   0.75330   0.00000  Uiso   1.00
C1439  C     0.85464   0.35756   0.78222   0.00000  Uiso   1.00
C1440  C     0.81182   0.64259   0.71803   0.00000  Uiso   1.00
C1441  C     0.81276   0.35720   0.71719   0.00000  Uiso   1.00
C1442  C     0.85535   0.64299   0.78147   0.00000  Uiso   1.00
C1443  C     0.83315   0.49989   0.66379   0.00000  Uiso   1.00
C1444  C     0.83403   0.49987   0.83636   0.00000  Uiso   1.00
C1445  C     0.87197   0.50024   0.90722   0.00000  Uiso   1.00
C1446  C     0.79698   0.48937   0.59332   0.00000  Uiso   1.00
C1447  C     0.83394   0.49908   0.88416   0.00000  Uiso   1.00
C1448  C     0.83378   0.49947   0.61622   0.00000  Uiso   1.00
C1449  C     0.79620   0.49484   0.90641   0.00000  Uiso   1.00
C1450  C     0.87137   0.50561   0.59440   0.00000  Uiso   1.00
C1451  C     0.79681   0.49107   0.95297   0.00000  Uiso   1.00
C1452  C     0.87162   0.50395   0.54774   0.00000  Uiso   1.00
C1453  C     0.83439   0.49713   0.97686   0.00000  Uiso   1.00
C1454  C     0.83425   0.49641   0.52375   0.00000  Uiso   1.00
C1455  C     0.87221   0.50262   0.95394   0.00000  Uiso   1.00
C1456  C     0.79697   0.48722   0.54658   0.00000  Uiso   1.00
C1457  C     0.76094   0.47893   0.97586   0.00000  Uiso   1.00
C1458  C     0.90844   0.51052   0.52464   0.00000  Uiso   1.00
H1459  H     0.73325   0.46913   0.95774   0.00000  Uiso   1.00
H1460  H     0.93731   0.51609   0.54218   0.00000  Uiso   1.00
N1461  N     0.83333   0.61907   0.75000   0.00000  Uiso   1.00
N1462  N     0.83333   0.38093   0.75000   0.00000  Uiso   1.00
O1463  O     0.77226   0.53821   0.75000   0.00000  Uiso   1.00
O1464  O     0.89441   0.46179   0.75000   0.00000  Uiso   1.00
O1465  O     0.89441   0.53821   0.75000   0.00000  Uiso   1.00
O1466  O     0.77226   0.46179   0.75000   0.00000  Uiso   1.00
O1467  O     0.83333   0.53823   0.68393   0.00000  Uiso   1.00
O1468  O     0.83334   0.46177   0.81608   0.00000  Uiso   1.00
O1469  O     0.83334   0.53823   0.81608   0.00000  Uiso   1.00
O1470  O     0.83333   0.46177   0.68392   0.00000  Uiso   1.00
Zn1471 Zn    0.83333   0.55104   0.75000   0.00000  Uiso   1.00
Zn1472 Zn    0.83333   0.44896   0.75000   0.00000  Uiso   1.00
O1473  O     0.90826   0.49086   0.88496   0.00000  Uiso   1.00
C1474  C     0.92430   0.53007   0.86532   0.00000  Uiso   1.00
H1475  H     0.91737   0.56127   0.88414   0.00000  Uiso   1.00
H1476  H     0.91271   0.53294   0.83083   0.00000  Uiso   1.00
H1477  H     0.95839   0.52701   0.86364   0.00000  Uiso   1.00
O1478  O     0.76185   0.47842   0.61708   0.00000  Uiso   1.00
C1479  C     0.74039   0.51797   0.62793   0.00000  Uiso   1.00
H1480  H     0.75422   0.53376   0.65804   0.00000  Uiso   1.00
H1481  H     0.70810   0.50883   0.63611   0.00000  Uiso   1.00
H1482  H     0.73915   0.54258   0.59999   0.00000  Uiso   1.00
C1483  C     0.75611   0.49400   0.88138   0.00000  Uiso   1.00
H1484  H     0.73024   0.51343   0.89335   0.00000  Uiso   1.00
O1485  O     0.75111   0.47009   0.84872   0.00000  Uiso   1.00
C1486  C     0.91035   0.51241   0.62052   0.00000  Uiso   1.00
H1487  H     0.93744   0.49247   0.61346   0.00000  Uiso   1.00
O1488  O     0.91263   0.54108   0.64946   0.00000  Uiso   1.00
O1489  O     0.72658   0.45860   0.54387   0.00000  Uiso   1.00
C1490  C     0.69055   0.48309   0.53347   0.00000  Uiso   1.00
H1491  H     0.67634   0.47093   0.50177   0.00000  Uiso   1.00
H1492  H     0.69638   0.51993   0.53207   0.00000  Uiso   1.00
H1493  H     0.66788   0.47711   0.56022   0.00000  Uiso   1.00
O1494  O     0.94667   0.51605   0.95714   0.00000  Uiso   1.00
C1495  C     0.96169   0.56010   0.96466   0.00000  Uiso   1.00
H1496  H     0.97450   0.56401   0.99897   0.00000  Uiso   1.00
H1497  H     0.93751   0.58588   0.95833   0.00000  Uiso   1.00
H1498  H     0.98725   0.56663   0.94125   0.00000  Uiso   1.00
O1499  O     0.70685   0.42136   0.77311   0.00000  Uiso   1.00
C1500  C     0.70588   0.38339   0.74500   0.00000  Uiso   1.00
H1501  H     0.73328   0.36264   0.75298   0.00000  Uiso   1.00
H1502  H     0.70714   0.39199   0.70899   0.00000  Uiso   1.00
H1503  H     0.67862   0.36211   0.75229   0.00000  Uiso   1.00
O1504  O     0.95848   0.58108   0.73545   0.00000  Uiso   1.00
C1505  C     0.97262   0.60378   0.69713   0.00000  Uiso   1.00
H1506  H     0.99683   0.62859   0.70654   0.00000  Uiso   1.00
H1507  H     0.94642   0.62274   0.68237   0.00000  Uiso   1.00
H1508  H     0.98443   0.58096   0.67072   0.00000  Uiso   1.00
O1509  O     0.95811   0.41756   0.74188   0.00000  Uiso   1.00
C1510  C     0.94942   0.40773   0.69650   0.00000  Uiso   1.00
H1511  H     0.92786   0.43239   0.68123   0.00000  Uiso   1.00
H1512  H     0.93430   0.37431   0.69450   0.00000  Uiso   1.00
H1513  H     0.97794   0.40641   0.67637   0.00000  Uiso   1.00
O1514  O     0.70758   0.58150   0.75739   0.00000  Uiso   1.00
C1515  C     0.70556   0.59250   0.80306   0.00000  Uiso   1.00
H1516  H     0.72160   0.62507   0.80852   0.00000  Uiso   1.00
H1517  H     0.72157   0.56702   0.82404   0.00000  Uiso   1.00
H1518  H     0.67304   0.59648   0.81387   0.00000  Uiso   1.00
C1519  C     0.87726   0.38225   0.81791   0.00000  Uiso   1.00
H1520  H     0.89583   0.41127   0.81032   0.00000  Uiso   1.00
O1521  O     0.87503   0.37041   0.85678   0.00000  Uiso   1.00
C1522  C     0.78663   0.61843   0.68451   0.00000  Uiso   1.00
H1523  H     0.80110   0.60348   0.65582   0.00000  Uiso   1.00
O1524  O     0.74905   0.61883   0.68657   0.00000  Uiso   1.00
C1525  C     0.79148   0.38163   0.68065   0.00000  Uiso   1.00
H1526  H     0.77434   0.41170   0.68743   0.00000  Uiso   1.00
O1527  O     0.79343   0.36870   0.64207   0.00000  Uiso   1.00
C1528  C     0.88151   0.61931   0.81390   0.00000  Uiso   1.00
H1529  H     0.86779   0.60406   0.84290   0.00000  Uiso   1.00
O1530  O     0.91899   0.62019   0.81032   0.00000  Uiso   1.00
C1531  C     0.08670   0.83326   0.75213   0.00000  Uiso   1.00
C1532  C     0.24654   0.83332   0.74676   0.00000  Uiso   1.00
C1533  C     0.09394   0.80977   0.52228   0.00000  Uiso   1.00
C1534  C     0.24258   0.84364   0.97834   0.00000  Uiso   1.00
C1535  C     0.02103   0.79180   0.75375   0.00000  Uiso   1.00
C1536  C     0.31248   0.87406   0.74119   0.00000  Uiso   1.00
C1537  C     0.31215   0.79160   0.74443   0.00000  Uiso   1.00
C1538  C     0.02104   0.87413   0.75055   0.00000  Uiso   1.00
C1539  C     0.29091   0.83301   0.74258   0.00000  Uiso   1.00
C1540  C     0.04223   0.83311   0.75330   0.00000  Uiso   1.00
C1541  C     0.18797   0.69089   0.78222   0.00000  Uiso   1.00
C1542  C     0.14515   0.97592   0.71803   0.00000  Uiso   1.00
C1543  C     0.14609   0.69053   0.71719   0.00000  Uiso   1.00
C1544  C     0.18868   0.97633   0.78147   0.00000  Uiso   1.00
C1545  C     0.16648   0.83322   0.66379   0.00000  Uiso   1.00
C1546  C     0.16736   0.83321   0.83636   0.00000  Uiso   1.00
C1547  C     0.20531   0.83358   0.90722   0.00000  Uiso   1.00
C1548  C     0.13031   0.82270   0.59332   0.00000  Uiso   1.00
C1549  C     0.16727   0.83241   0.88416   0.00000  Uiso   1.00
C1550  C     0.16711   0.83281   0.61622   0.00000  Uiso   1.00
C1551  C     0.12953   0.82817   0.90641   0.00000  Uiso   1.00
C1552  C     0.20470   0.83895   0.59440   0.00000  Uiso   1.00
C1553  C     0.13014   0.82440   0.95297   0.00000  Uiso   1.00
C1554  C     0.20496   0.83728   0.54774   0.00000  Uiso   1.00
C1555  C     0.16773   0.83046   0.97686   0.00000  Uiso   1.00
C1556  C     0.16758   0.82974   0.52375   0.00000  Uiso   1.00
C1557  C     0.20554   0.83596   0.95394   0.00000  Uiso   1.00
C1558  C     0.13030   0.82056   0.54658   0.00000  Uiso   1.00
C1559  C     0.09427   0.81226   0.97586   0.00000  Uiso   1.00
C1560  C     0.24177   0.84386   0.52464   0.00000  Uiso   1.00
H1561  H     0.06658   0.80247   0.95774   0.00000  Uiso   1.00
H1562  H     0.27064   0.84943   0.54218   0.00000  Uiso   1.00
N1563  N     0.16667   0.95240   0.75000   0.00000  Uiso   1.00
N1564  N     0.16667   0.71427   0.75000   0.00000  Uiso   1.00
O1565  O     0.10559   0.87154   0.75000   0.00000  Uiso   1.00
O1566  O     0.22774   0.79513   0.75000   0.00000  Uiso   1.00
O1567  O     0.22774   0.87154   0.75000   0.00000  Uiso   1.00
O1568  O     0.10559   0.79513   0.75000   0.00000  Uiso   1.00
O1569  O     0.16666   0.87156   0.68393   0.00000  Uiso   1.00
O1570  O     0.16667   0.79511   0.81608   0.00000  Uiso   1.00
O1571  O     0.16667   0.87156   0.81608   0.00000  Uiso   1.00
O1572  O     0.16666   0.79511   0.68392   0.00000  Uiso   1.00
Zn1573 Zn    0.16667   0.88437   0.75000   0.00000  Uiso   1.00
Zn1574 Zn    0.16667   0.78229   0.75000   0.00000  Uiso   1.00
O1575  O     0.24159   0.82420   0.88496   0.00000  Uiso   1.00
C1576  C     0.25764   0.86340   0.86532   0.00000  Uiso   1.00
H1577  H     0.25071   0.89460   0.88414   0.00000  Uiso   1.00
H1578  H     0.24604   0.86627   0.83083   0.00000  Uiso   1.00
H1579  H     0.29172   0.86035   0.86364   0.00000  Uiso   1.00
O1580  O     0.09518   0.81175   0.61708   0.00000  Uiso   1.00
C1581  C     0.07372   0.85131   0.62793   0.00000  Uiso   1.00
H1582  H     0.08755   0.86709   0.65804   0.00000  Uiso   1.00
H1583  H     0.04143   0.84216   0.63611   0.00000  Uiso   1.00
H1584  H     0.07249   0.87591   0.59999   0.00000  Uiso   1.00
C1585  C     0.08945   0.82733   0.88138   0.00000  Uiso   1.00
H1586  H     0.06358   0.84676   0.89335   0.00000  Uiso   1.00
O1587  O     0.08444   0.80342   0.84872   0.00000  Uiso   1.00
C1588  C     0.24369   0.84574   0.62052   0.00000  Uiso   1.00
H1589  H     0.27077   0.82581   0.61346   0.00000  Uiso   1.00
O1590  O     0.24596   0.87442   0.64946   0.00000  Uiso   1.00
O1591  O     0.05991   0.79193   0.54387   0.00000  Uiso   1.00
C1592  C     0.02389   0.81643   0.53347   0.00000  Uiso   1.00
H1593  H     0.00967   0.80426   0.50177   0.00000  Uiso   1.00
H1594  H     0.02971   0.85326   0.53207   0.00000  Uiso   1.00
H1595  H     0.00122   0.81045   0.56022   0.00000  Uiso   1.00
O1596  O     0.28000   0.84938   0.95714   0.00000  Uiso   1.00
C1597  C     0.29502   0.89343   0.96466   0.00000  Uiso   1.00
H1598  H     0.30783   0.89735   0.99897   0.00000  Uiso   1.00
H1599  H     0.27085   0.91921   0.95833   0.00000  Uiso   1.00
H1600  H     0.32059   0.89996   0.94125   0.00000  Uiso   1.00
O1601  O     0.04018   0.75469   0.77311   0.00000  Uiso   1.00
C1602  C     0.03921   0.71672   0.74500   0.00000  Uiso   1.00
H1603  H     0.06661   0.69597   0.75298   0.00000  Uiso   1.00
H1604  H     0.04048   0.72532   0.70899   0.00000  Uiso   1.00
H1605  H     0.01195   0.69545   0.75229   0.00000  Uiso   1.00
O1606  O     0.29181   0.91442   0.73545   0.00000  Uiso   1.00
C1607  C     0.30596   0.93711   0.69713   0.00000  Uiso   1.00
H1608  H     0.33017   0.96192   0.70654   0.00000  Uiso   1.00
H1609  H     0.27976   0.95607   0.68237   0.00000  Uiso   1.00
H1610  H     0.31776   0.91429   0.67072   0.00000  Uiso   1.00
O1611  O     0.29144   0.75089   0.74188   0.00000  Uiso   1.00
C1612  C     0.28276   0.74107   0.69650   0.00000  Uiso   1.00
H1613  H     0.26119   0.76572   0.68123   0.00000  Uiso   1.00
H1614  H     0.26763   0.70764   0.69450   0.00000  Uiso   1.00
H1615  H     0.31128   0.73974   0.67637   0.00000  Uiso   1.00
O1616  O     0.04091   0.91483   0.75739   0.00000  Uiso   1.00
C1617  C     0.03890   0.92583   0.80306   0.00000  Uiso   1.00
H1618  H     0.05494   0.95840   0.80852   0.00000  Uiso   1.00
H1619  H     0.05491   0.90036   0.82404   0.00000  Uiso   1.00
H1620  H     0.00637   0.92982   0.81387   0.00000  Uiso   1.00
C1621  C     0.21059   0.71558   0.81791   0.00000  Uiso   1.00
H1622  H     0.22916   0.74460   0.81032   0.00000  Uiso   1.00
O1623  O     0.20836   0.70374   0.85678   0.00000  Uiso   1.00
C1624  C     0.11996   0.95176   0.68451   0.00000  Uiso   1.00
H1625  H     0.13444   0.93681   0.65582   0.00000  Uiso   1.00
O1626  O     0.08238   0.95217   0.68657   0.00000  Uiso   1.00
C1627  C     0.12481   0.71496   0.68065   0.00000  Uiso   1.00
H1628  H     0.10768   0.74503   0.68743   0.00000  Uiso   1.00
O1629  O     0.12676   0.70203   0.64207   0.00000  Uiso   1.00
C1630  C     0.21484   0.95264   0.81390   0.00000  Uiso   1.00
H1631  H     0.20112   0.93740   0.84290   0.00000  Uiso   1.00
O1632  O     0.25232   0.95352   0.81032   0.00000  Uiso   1.00
C1633  C     0.42003   0.83326   0.75213   0.00000  Uiso   1.00
C1634  C     0.57987   0.83332   0.74676   0.00000  Uiso   1.00
C1635  C     0.42727   0.80977   0.52228   0.00000  Uiso   1.00
C1636  C     0.57591   0.84364   0.97834   0.00000  Uiso   1.00
C1637  C     0.35436   0.79180   0.75375   0.00000  Uiso   1.00
C1638  C     0.64582   0.87406   0.74119   0.00000  Uiso   1.00
C1639  C     0.64548   0.79160   0.74443   0.00000  Uiso   1.00
C1640  C     0.35438   0.87413   0.75055   0.00000  Uiso   1.00
C1641  C     0.62425   0.83301   0.74258   0.00000  Uiso   1.00
C1642  C     0.37557   0.83311   0.75330   0.00000  Uiso   1.00
C1643  C     0.52131   0.69089   0.78222   0.00000  Uiso   1.00
C1644  C     0.47848   0.97592   0.71803   0.00000  Uiso   1.00
C1645  C     0.47943   0.69053   0.71719   0.00000  Uiso   1.00
C1646  C     0.52201   0.97633   0.78147   0.00000  Uiso   1.00
C1647  C     0.49981   0.83322   0.66379   0.00000  Uiso   1.00
C1648  C     0.50070   0.83321   0.83636   0.00000  Uiso   1.00
C1649  C     0.53864   0.83358   0.90722   0.00000  Uiso   1.00
C1650  C     0.46364   0.82270   0.59332   0.00000  Uiso   1.00
C1651  C     0.50060   0.83241   0.88416   0.00000  Uiso   1.00
C1652  C     0.50045   0.83281   0.61622   0.00000  Uiso   1.00
C1653  C     0.46286   0.82817   0.90641   0.00000  Uiso   1.00
C1654  C     0.53804   0.83895   0.59440   0.00000  Uiso   1.00
C1655  C     0.46347   0.82440   0.95297   0.00000  Uiso   1.00
C1656  C     0.53829   0.83728   0.54774   0.00000  Uiso   1.00
C1657  C     0.50106   0.83046   0.97686   0.00000  Uiso   1.00
C1658  C     0.50092   0.82974   0.52375   0.00000  Uiso   1.00
C1659  C     0.53888   0.83596   0.95394   0.00000  Uiso   1.00
C1660  C     0.46363   0.82056   0.54658   0.00000  Uiso   1.00
C1661  C     0.42760   0.81226   0.97586   0.00000  Uiso   1.00
C1662  C     0.57510   0.84386   0.52464   0.00000  Uiso   1.00
H1663  H     0.39991   0.80247   0.95774   0.00000  Uiso   1.00
H1664  H     0.60398   0.84943   0.54218   0.00000  Uiso   1.00
N1665  N     0.50000   0.95240   0.75000   0.00000  Uiso   1.00
N1666  N     0.50000   0.71427   0.75000   0.00000  Uiso   1.00
O1667  O     0.43892   0.87154   0.75000   0.00000  Uiso   1.00
O1668  O     0.56108   0.79513   0.75000   0.00000  Uiso   1.00
O1669  O     0.56108   0.87154   0.75000   0.00000  Uiso   1.00
O1670  O     0.43892   0.79513   0.75000   0.00000  Uiso   1.00
O1671  O     0.49999   0.87156   0.68393   0.00000  Uiso   1.00
O1672  O     0.50001   0.79511   0.81608   0.00000  Uiso   1.00
O1673  O     0.50001   0.87156   0.81608   0.00000  Uiso   1.00
O1674  O     0.49999   0.79511   0.68392   0.00000  Uiso   1.00
Zn1675 Zn    0.50000   0.88437   0.75000   0.00000  Uiso   1.00
Zn1676 Zn    0.50000   0.78229   0.75000   0.00000  Uiso   1.00
O1677  O     0.57493   0.82420   0.88496   0.00000  Uiso   1.00
C1678  C     0.59097   0.86340   0.86532   0.00000  Uiso   1.00
H1679  H     0.58404   0.89460   0.88414   0.00000  Uiso   1.00
H1680  H     0.57938   0.86627   0.83083   0.00000  Uiso   1.00
H1681  H     0.62505   0.86035   0.86364   0.00000  Uiso   1.00
O1682  O     0.42851   0.81175   0.61708   0.00000  Uiso   1.00
C1683  C     0.40705   0.85131   0.62793   0.00000  Uiso   1.00
H1684  H     0.42089   0.86709   0.65804   0.00000  Uiso   1.00
H1685  H     0.37477   0.84216   0.63611   0.00000  Uiso   1.00
H1686  H     0.40582   0.87591   0.59999   0.00000  Uiso   1.00
C1687  C     0.42278   0.82733   0.88138   0.00000  Uiso   1.00
H1688  H     0.39691   0.84676   0.89335   0.00000  Uiso   1.00
O1689  O     0.41778   0.80342   0.84872   0.00000  Uiso   1.00
C1690  C     0.57702   0.84574   0.62052   0.00000  Uiso   1.00
H1691  H     0.60410   0.82581   0.61346   0.00000  Uiso   1.00
O1692  O     0.57929   0.87442   0.64946   0.00000  Uiso   1.00
O1693  O     0.39325   0.79193   0.54387   0.00000  Uiso   1.00
C1694  C     0.35722   0.81643   0.53347   0.00000  Uiso   1.00
H1695  H     0.34300   0.80426   0.50177   0.00000  Uiso   1.00
H1696  H     0.36304   0.85326   0.53207   0.00000  Uiso   1.00
H1697  H     0.33455   0.81045   0.56022   0.00000  Uiso   1.00
O1698  O     0.61334   0.84938   0.95714   0.00000  Uiso   1.00
C1699  C     0.62835   0.89343   0.96466   0.00000  Uiso   1.00
H1700  H     0.64117   0.89735   0.99897   0.00000  Uiso   1.00
H1701  H     0.60418   0.91921   0.95833   0.00000  Uiso   1.00
H1702  H     0.65392   0.89996   0.94125   0.00000  Uiso   1.00
O1703  O     0.37351   0.75469   0.77311   0.00000  Uiso   1.00
C1704  C     0.37255   0.71672   0.74500   0.00000  Uiso   1.00
H1705  H     0.39994   0.69597   0.75298   0.00000  Uiso   1.00
H1706  H     0.37381   0.72532   0.70899   0.00000  Uiso   1.00
H1707  H     0.34529   0.69545   0.75229   0.00000  Uiso   1.00
O1708  O     0.62515   0.91442   0.73545   0.00000  Uiso   1.00
C1709  C     0.63929   0.93711   0.69713   0.00000  Uiso   1.00
H1710  H     0.66350   0.96192   0.70654   0.00000  Uiso   1.00
H1711  H     0.61309   0.95607   0.68237   0.00000  Uiso   1.00
H1712  H     0.65109   0.91429   0.67072   0.00000  Uiso   1.00
O1713  O     0.62477   0.75089   0.74188   0.00000  Uiso   1.00
C1714  C     0.61609   0.74107   0.69650   0.00000  Uiso   1.00
H1715  H     0.59453   0.76572   0.68123   0.00000  Uiso   1.00
H1716  H     0.60097   0.70764   0.69450   0.00000  Uiso   1.00
H1717  H     0.64461   0.73974   0.67637   0.00000  Uiso   1.00
O1718  O     0.37424   0.91483   0.75739   0.00000  Uiso   1.00
C1719  C     0.37223   0.92583   0.80306   0.00000  Uiso   1.00
H1720  H     0.38827   0.95840   0.80852   0.00000  Uiso   1.00
H1721  H     0.38824   0.90036   0.82404   0.00000  Uiso   1.00
H1722  H     0.33970   0.92982   0.81387   0.00000  Uiso   1.00
C1723  C     0.54392   0.71558   0.81791   0.00000  Uiso   1.00
H1724  H     0.56249   0.74460   0.81032   0.00000  Uiso   1.00
O1725  O     0.54169   0.70374   0.85678   0.00000  Uiso   1.00
C1726  C     0.45329   0.95176   0.68451   0.00000  Uiso   1.00
H1727  H     0.46777   0.93681   0.65582   0.00000  Uiso   1.00
O1728  O     0.41571   0.95217   0.68657   0.00000  Uiso   1.00
C1729  C     0.45815   0.71496   0.68065   0.00000  Uiso   1.00
H1730  H     0.44101   0.74503   0.68743   0.00000  Uiso   1.00
O1731  O     0.46009   0.70203   0.64207   0.00000  Uiso   1.00
C1732  C     0.54817   0.95264   0.81390   0.00000  Uiso   1.00
H1733  H     0.53445   0.93740   0.84290   0.00000  Uiso   1.00
O1734  O     0.58566   0.95352   0.81032   0.00000  Uiso   1.00
C1735  C     0.75336   0.83326   0.75213   0.00000  Uiso   1.00
C1736  C     0.91320   0.83332   0.74676   0.00000  Uiso   1.00
C1737  C     0.76061   0.80977   0.52228   0.00000  Uiso   1.00
C1738  C     0.90924   0.84364   0.97834   0.00000  Uiso   1.00
C1739  C     0.68770   0.79180   0.75375   0.00000  Uiso   1.00
C1740  C     0.97915   0.87406   0.74119   0.00000  Uiso   1.00
C1741  C     0.97881   0.79160   0.74443   0.00000  Uiso   1.00
C1742  C     0.68771   0.87413   0.75055   0.00000  Uiso   1.00
C1743  C     0.95758   0.83301   0.74258   0.00000  Uiso   1.00
C1744  C     0.70890   0.83311   0.75330   0.00000  Uiso   1.00
C1745  C     0.85464   0.69089   0.78222   0.00000  Uiso   1.00
C1746  C     0.81182   0.97592   0.71803   0.00000  Uiso   1.00
C1747  C     0.81276   0.69053   0.71719   0.00000  Uiso   1.00
C1748  C     0.85535   0.97633   0.78147   0.00000  Uiso   1.00
C1749  C     0.83315   0.83322   0.66379   0.00000  Uiso   1.00
C1750  C     0.83403   0.83321   0.83636   0.00000  Uiso   1.00
C1751  C     0.87197   0.83358   0.90722   0.00000  Uiso   1.00
C1752  C     0.79698   0.82270   0.59332   0.00000  Uiso   1.00
C1753  C     0.83394   0.83241   0.88416   0.00000  Uiso   1.00
C1754  C     0.83378   0.83281   0.61622   0.00000  Uiso   1.00
C1755  C     0.79620   0.82817   0.90641   0.00000  Uiso   1.00
C1756  C     0.87137   0.83895   0.59440   0.00000  Uiso   1.00
C1757  C     0.79681   0.82440   0.95297   0.00000  Uiso   1.00
C1758  C     0.87162   0.83728   0.54774   0.00000  Uiso   1.00
C1759  C     0.83439   0.83046   0.97686   0.00000  Uiso   1.00
C1760  C     0.83425   0.82974   0.52375   0.00000  Uiso   1.00
C1761  C     0.87221   0.83596   0.95394   0.00000  Uiso   1.00
C1762  C     0.79697   0.82056   0.54658   0.00000  Uiso   1.00
C1763  C     0.76094   0.81226   0.97586   0.00000  Uiso   1.00
C1764  C     0.90844   0.84386   0.52464   0.00000  Uiso   1.00
H1765  H     0.73325   0.80247   0.95774   0.00000  Uiso   1.00
H1766  H     0.93731   0.84943   0.54218   0.00000  Uiso   1.00
N1767  N     0.83333   0.95240   0.75000   0.00000  Uiso   1.00
N1768  N     0.83333   0.71427   0.75000   0.00000  Uiso   1.00
O1769  O     0.77226   0.87154   0.75000   0.00000  Uiso   1.00
O1770  O     0.89441   0.79513   0.75000   0.00000  Uiso   1.00
O1771  O     0.89441   0.87154   0.75000   0.00000  Uiso   1.00
O1772  O     0.77226   0.79513   0.75000   0.00000  Uiso   1.00
O1773  O     0.83333   0.87156   0.68393   0.00000  Uiso   1.00
O1774  O     0.83334   0.79511   0.81608   0.00000  Uiso   1.00
O1775  O     0.83334   0.87156   0.81608   0.00000  Uiso   1.00
O1776  O     0.83333   0.79511   0.68392   0.00000  Uiso   1.00
Zn1777 Zn    0.83333   0.88437   0.75000   0.00000  Uiso   1.00
Zn1778 Zn    0.83333   0.78229   0.75000   0.00000  Uiso   1.00
O1779  O     0.90826   0.82420   0.88496   0.00000  Uiso   1.00
C1780  C     0.92430   0.86340   0.86532   0.00000  Uiso   1.00
H1781  H     0.91737   0.89460   0.88414   0.00000  Uiso   1.00
H1782  H     0.91271   0.86627   0.83083   0.00000  Uiso   1.00
H1783  H     0.95839   0.86035   0.86364   0.00000  Uiso   1.00
O1784  O     0.76185   0.81175   0.61708   0.00000  Uiso   1.00
C1785  C     0.74039   0.85131   0.62793   0.00000  Uiso   1.00
H1786  H     0.75422   0.86709   0.65804   0.00000  Uiso   1.00
H1787  H     0.70810   0.84216   0.63611   0.00000  Uiso   1.00
H1788  H     0.73915   0.87591   0.59999   0.00000  Uiso   1.00
C1789  C     0.75611   0.82733   0.88138   0.00000  Uiso   1.00
H1790  H     0.73024   0.84676   0.89335   0.00000  Uiso   1.00
O1791  O     0.75111   0.80342   0.84872   0.00000  Uiso   1.00
C1792  C     0.91035   0.84574   0.62052   0.00000  Uiso   1.00
H1793  H     0.93744   0.82581   0.61346   0.00000  Uiso   1.00
O1794  O     0.91263   0.87442   0.64946   0.00000  Uiso   1.00
O1795  O     0.72658   0.79193   0.54387   0.00000  Uiso   1.00
C1796  C     0.69055   0.81643   0.53347   0.00000  Uiso   1.00
H1797  H     0.67634   0.80426   0.50177   0.00000  Uiso   1.00
H1798  H     0.69638   0.85326   0.53207   0.00000  Uiso   1.00
H1799  H     0.66788   0.81045   0.56022   0.00000  Uiso   1.00
O1800  O     0.94667   0.84938   0.95714   0.00000  Uiso   1.00
C1801  C     0.96169   0.89343   0.96466   0.00000  Uiso   1.00
H1802  H     0.97450   0.89735   0.99897   0.00000  Uiso   1.00
H1803  H     0.93751   0.91921   0.95833   0.00000  Uiso   1.00
H1804  H     0.98725   0.89996   0.94125   0.00000  Uiso   1.00
O1805  O     0.70685   0.75469   0.77311   0.00000  Uiso   1.00
C1806  C     0.70588   0.71672   0.74500   0.00000  Uiso   1.00
H1807  H     0.73328   0.69597   0.75298   0.00000  Uiso   1.00
H1808  H     0.70714   0.72532   0.70899   0.00000  Uiso   1.00
H1809  H     0.67862   0.69545   0.75229   0.00000  Uiso   1.00
O1810  O     0.95848   0.91442   0.73545   0.00000  Uiso   1.00
C1811  C     0.97262   0.93711   0.69713   0.00000  Uiso   1.00
H1812  H     0.99683   0.96192   0.70654   0.00000  Uiso   1.00
H1813  H     0.94642   0.95607   0.68237   0.00000  Uiso   1.00
H1814  H     0.98443   0.91429   0.67072   0.00000  Uiso   1.00
O1815  O     0.95811   0.75089   0.74188   0.00000  Uiso   1.00
C1816  C     0.94942   0.74107   0.69650   0.00000  Uiso   1.00
H1817  H     0.92786   0.76572   0.68123   0.00000  Uiso   1.00
H1818  H     0.93430   0.70764   0.69450   0.00000  Uiso   1.00
H1819  H     0.97794   0.73974   0.67637   0.00000  Uiso   1.00
O1820  O     0.70758   0.91483   0.75739   0.00000  Uiso   1.00
C1821  C     0.70556   0.92583   0.80306   0.00000  Uiso   1.00
H1822  H     0.72160   0.95840   0.80852   0.00000  Uiso   1.00
H1823  H     0.72157   0.90036   0.82404   0.00000  Uiso   1.00
H1824  H     0.67304   0.92982   0.81387   0.00000  Uiso   1.00
C1825  C     0.87726   0.71558   0.81791   0.00000  Uiso   1.00
H1826  H     0.89583   0.74460   0.81032   0.00000  Uiso   1.00
O1827  O     0.87503   0.70374   0.85678   0.00000  Uiso   1.00
C1828  C     0.78663   0.95176   0.68451   0.00000  Uiso   1.00
H1829  H     0.80110   0.93681   0.65582   0.00000  Uiso   1.00
O1830  O     0.74905   0.95217   0.68657   0.00000  Uiso   1.00
C1831  C     0.79148   0.71496   0.68065   0.00000  Uiso   1.00
H1832  H     0.77434   0.74503   0.68743   0.00000  Uiso   1.00
O1833  O     0.79343   0.70203   0.64207   0.00000  Uiso   1.00
C1834  C     0.88151   0.95264   0.81390   0.00000  Uiso   1.00
H1835  H     0.86779   0.93740   0.84290   0.00000  Uiso   1.00
O1836  O     0.91899   0.95352   0.81032   0.00000  Uiso   1.00
loop_
_geom_bond_atom_site_label_1
_geom_bond_atom_site_label_2
_geom_bond_distance
_geom_bond_site_symmetry_2
_ccdc_geom_bond_type
C1     O35     1.294   .     A
C1     O38     1.295   .     A
C1     C10     1.440   .     S
C2     O36     1.292   .     A
C2     O37     1.298   .     A
C2     C9      1.444   .     S
C3     C28     1.411   .     A
C3     O61     1.389   .     S
C3     C947    1.394   1_554 S
C4     O66     1.386   .     S
C4     C27     1.413   .     A
C4     C948    1.389   .     S
C5     O71     1.394   .     S
C5     C10     1.407   .     A
C5     C211    1.391   1_455 S
C6     C9      1.406   .     A
C6     O76     1.389   .     S
C6     C110    1.381   .     S
C7     O81     1.385   .     S
C7     C9      1.417   .     A
C7     C107    1.391   .     S
C8     O86     1.384   .     S
C8     C10     1.407   .     A
C8     C210    1.381   1_455 S
C11    N34     1.372   .     A
C11    C91     1.481   .     S
C11    C626    1.428   1_545 S
C12    C94     1.470   .     S
C12    N33     1.373   .     A
C12    C319    1.429   .     S
C13    C97     1.481   .     S
C13    N34     1.373   .     A
C13    C624    1.429   1_545 S
C14    N33     1.371   .     A
C14    C100    1.465   .     S
C14    C317    1.428   .     S
C15    C20     1.427   .     S
C15    O39     1.291   .     A
C15    O42     1.287   .     A
C16    O40     1.287   .     A
C16    C19     1.433   .     S
C16    O41     1.296   .     A
C17    C27     1.402   .     A
C17    O45     1.389   .     S
C17    C19     1.404   .     A
C18    C28     1.403   .     A
C18    O50     1.388   .     S
C18    C20     1.398   .     A
C19    C21     1.405   .     A
C20    C22     1.401   .     A
C21    C23     1.401   .     A
C21    C55     1.490   .     S
C22    C24     1.400   .     A
C22    C58     1.489   .     S
C23    C29     1.403   .     A
C23    C25     1.414   .     A
C24    C26     1.416   .     A
C24    C30     1.400   .     A
C25    C27     1.421   .     A
C25    C944    1.406   .     S
C26    C28     1.421   .     A
C26    C943    1.406   1_554 S
C29    H31     1.080   .     S
C29    C921    1.394   .     S
C30    H32     1.078   .     S
C30    C922    1.389   1_554 S
N33    Zn43    2.027   .     S
N34    Zn44    2.027   .     S
O35    Zn43    2.012   .     S
O36    Zn44    2.012   .     S
O37    Zn43    2.016   .     S
O38    Zn44    2.016   .     S
O39    Zn43    2.017   .     S
O40    Zn44    2.017   .     S
O41    Zn43    2.018   .     S
O42    Zn44    2.018   .     S
O45    C46     1.409   .     S
C46    H49     1.110   .     S
C46    H48     1.099   .     S
C46    H47     1.113   .     S
O50    C51     1.411   .     S
C51    H52     1.106   .     S
C51    H54     1.115   .     S
C51    H53     1.110   .     S
C55    H56     1.086   .     S
C55    O57     1.219   .     D
C58    O60     1.218   .     D
C58    H59     1.085   .     S
O61    C62     1.411   .     S
C62    H64     1.114   .     S
C62    H63     1.110   .     S
C62    H65     1.109   .     S
O66    C67     1.414   .     S
C67    H68     1.109   .     S
C67    H69     1.114   .     S
C67    H70     1.109   .     S
O71    C72     1.410   .     S
C72    H75     1.108   .     S
C72    H74     1.111   .     S
C72    H73     1.108   .     S
O76    C77     1.415   .     S
C77    H79     1.109   .     S
C77    H78     1.108   .     S
C77    H80     1.116   .     S
O81    C82     1.415   .     S
C82    H84     1.109   .     S
C82    H85     1.111   .     S
C82    H83     1.111   .     S
O86    C87     1.410   .     S
C87    H88     1.109   .     S
C87    H89     1.112   .     S
C87    H90     1.113   .     S
C91    H92     1.077   .     S
C91    O93     1.221   .     D
C94    O96     1.219   .     D
C94    H95     1.082   .     S
C97    O99     1.221   .     D
C97    H98     1.077   .     S
C100   O102    1.220   .     D
C100   H101    1.081   .     S
C103   O137    1.294   .     A
C103   O140    1.295   .     A
C103   C112    1.440   .     S
C104   O138    1.292   .     A
C104   O139    1.298   .     A
C104   C111    1.444   .     S
C105   C130    1.411   .     A
C105   O163    1.389   .     S
C105   C1049   1.394   1_554 S
C106   O168    1.386   .     S
C106   C129    1.413   .     A
C106   C1050   1.389   .     S
C107   O173    1.394   .     S
C107   C112    1.407   .     A
C108   C111    1.406   .     A
C108   O178    1.389   .     S
C108   C212    1.381   .     S
C109   O183    1.385   .     S
C109   C111    1.417   .     A
C109   C209    1.391   .     S
C110   O188    1.384   .     S
C110   C112    1.407   .     A
C113   N136    1.372   .     A
C113   C193    1.481   .     S
C113   C728    1.428   1_545 S
C114   C196    1.470   .     S
C114   N135    1.373   .     A
C114   C421    1.429   .     S
C115   C199    1.481   .     S
C115   N136    1.373   .     A
C115   C726    1.429   1_545 S
C116   N135    1.371   .     A
C116   C202    1.465   .     S
C116   C419    1.428   .     S
C117   C122    1.427   .     S
C117   O141    1.291   .     A
C117   O144    1.287   .     A
C118   O142    1.287   .     A
C118   C121    1.433   .     S
C118   O143    1.296   .     A
C119   C129    1.402   .     A
C119   O147    1.389   .     S
C119   C121    1.404   .     A
C120   C130    1.403   .     A
C120   O152    1.388   .     S
C120   C122    1.398   .     A
C121   C123    1.405   .     A
C122   C124    1.401   .     A
C123   C125    1.401   .     A
C123   C157    1.490   .     S
C124   C126    1.400   .     A
C124   C160    1.489   .     S
C125   C131    1.403   .     A
C125   C127    1.414   .     A
C126   C128    1.416   .     A
C126   C132    1.400   .     A
C127   C129    1.421   .     A
C127   C1046   1.406   .     S
C128   C130    1.421   .     A
C128   C1045   1.406   1_554 S
C131   H133    1.080   .     S
C131   C1023   1.394   .     S
C132   H134    1.078   .     S
C132   C1024   1.389   1_554 S
N135   Zn145   2.027   .     S
N136   Zn146   2.027   .     S
O137   Zn145   2.012   .     S
O138   Zn146   2.012   .     S
O139   Zn145   2.016   .     S
O140   Zn146   2.016   .     S
O141   Zn145   2.017   .     S
O142   Zn146   2.017   .     S
O143   Zn145   2.018   .     S
O144   Zn146   2.018   .     S
O147   C148    1.409   .     S
C148   H151    1.110   .     S
C148   H150    1.099   .     S
C148   H149    1.113   .     S
O152   C153    1.411   .     S
C153   H154    1.106   .     S
C153   H156    1.115   .     S
C153   H155    1.110   .     S
C157   H158    1.086   .     S
C157   O159    1.219   .     D
C160   O162    1.218   .     D
C160   H161    1.085   .     S
O163   C164    1.411   .     S
C164   H166    1.114   .     S
C164   H165    1.110   .     S
C164   H167    1.109   .     S
O168   C169    1.414   .     S
C169   H170    1.109   .     S
C169   H171    1.114   .     S
C169   H172    1.109   .     S
O173   C174    1.410   .     S
C174   H177    1.108   .     S
C174   H176    1.111   .     S
C174   H175    1.108   .     S
O178   C179    1.415   .     S
C179   H181    1.109   .     S
C179   H180    1.108   .     S
C179   H182    1.116   .     S
O183   C184    1.415   .     S
C184   H186    1.109   .     S
C184   H187    1.111   .     S
C184   H185    1.111   .     S
O188   C189    1.410   .     S
C189   H190    1.109   .     S
C189   H191    1.112   .     S
C189   H192    1.113   .     S
C193   H194    1.077   .     S
C193   O195    1.221   .     D
C196   O198    1.219   .     D
C196   H197    1.082   .     S
C199   O201    1.221   .     D
C199   H200    1.077   .     S
C202   O204    1.220   .     D
C202   H203    1.081   .     S
C205   O239    1.294   .     A
C205   O242    1.295   .     A
C205   C214    1.440   .     S
C206   O240    1.292   .     A
C206   O241    1.298   .     A
C206   C213    1.444   .     S
C207   C232    1.411   .     A
C207   O265    1.389   .     S
C207   C1151   1.394   1_554 S
C208   O270    1.386   .     S
C208   C231    1.413   .     A
C208   C1152   1.389   .     S
C209   O275    1.394   .     S
C209   C214    1.407   .     A
C210   C213    1.406   .     A
C210   O280    1.389   .     S
C210   C8      1.381   1_655 S
C211   O285    1.385   .     S
C211   C213    1.417   .     A
C211   C5      1.391   1_655 S
C212   O290    1.384   .     S
C212   C214    1.407   .     A
C215   N238    1.372   .     A
C215   C295    1.481   .     S
C215   C830    1.428   1_545 S
C216   C298    1.470   .     S
C216   N237    1.373   .     A
C216   C523    1.429   .     S
C217   C301    1.481   .     S
C217   N238    1.373   .     A
C217   C828    1.429   1_545 S
C218   N237    1.371   .     A
C218   C304    1.465   .     S
C218   C521    1.428   .     S
C219   C224    1.427   .     S
C219   O243    1.291   .     A
C219   O246    1.287   .     A
C220   O244    1.287   .     A
C220   C223    1.433   .     S
C220   O245    1.296   .     A
C221   C231    1.402   .     A
C221   O249    1.389   .     S
C221   C223    1.404   .     A
C222   C232    1.403   .     A
C222   O254    1.388   .     S
C222   C224    1.398   .     A
C223   C225    1.405   .     A
C224   C226    1.401   .     A
C225   C227    1.401   .     A
C225   C259    1.490   .     S
C226   C228    1.400   .     A
C226   C262    1.489   .     S
C227   C233    1.403   .     A
C227   C229    1.414   .     A
C228   C230    1.416   .     A
C228   C234    1.400   .     A
C229   C231    1.421   .     A
C229   C1148   1.406   .     S
C230   C232    1.421   .     A
C230   C1147   1.406   1_554 S
C233   H235    1.080   .     S
C233   C1125   1.394   .     S
C234   H236    1.078   .     S
C234   C1126   1.389   1_554 S
N237   Zn247   2.027   .     S
N238   Zn248   2.027   .     S
O239   Zn247   2.012   .     S
O240   Zn248   2.012   .     S
O241   Zn247   2.016   .     S
O242   Zn248   2.016   .     S
O243   Zn247   2.017   .     S
O244   Zn248   2.017   .     S
O245   Zn247   2.018   .     S
O246   Zn248   2.018   .     S
O249   C250    1.409   .     S
C250   H253    1.110   .     S
C250   H252    1.099   .     S
C250   H251    1.113   .     S
O254   C255    1.411   .     S
C255   H256    1.106   .     S
C255   H258    1.115   .     S
C255   H257    1.110   .     S
C259   H260    1.086   .     S
C259   O261    1.219   .     D
C262   O264    1.218   .     D
C262   H263    1.085   .     S
O265   C266    1.411   .     S
C266   H268    1.114   .     S
C266   H267    1.110   .     S
C266   H269    1.109   .     S
O270   C271    1.414   .     S
C271   H272    1.109   .     S
C271   H273    1.114   .     S
C271   H274    1.109   .     S
O275   C276    1.410   .     S
C276   H279    1.108   .     S
C276   H278    1.111   .     S
C276   H277    1.108   .     S
O280   C281    1.415   .     S
C281   H283    1.109   .     S
C281   H282    1.108   .     S
C281   H284    1.116   .     S
O285   C286    1.415   .     S
C286   H288    1.109   .     S
C286   H289    1.111   .     S
C286   H287    1.111   .     S
O290   C291    1.410   .     S
C291   H292    1.109   .     S
C291   H293    1.112   .     S
C291   H294    1.113   .     S
C295   H296    1.077   .     S
C295   O297    1.221   .     D
C298   O300    1.219   .     D
C298   H299    1.082   .     S
C301   O303    1.221   .     D
C301   H302    1.077   .     S
C304   O306    1.220   .     D
C304   H305    1.081   .     S
C307   O341    1.294   .     A
C307   O344    1.295   .     A
C307   C316    1.440   .     S
C308   O342    1.292   .     A
C308   O343    1.298   .     A
C308   C315    1.444   .     S
C309   C334    1.411   .     A
C309   O367    1.389   .     S
C309   C1253   1.394   1_554 S
C310   O372    1.386   .     S
C310   C333    1.413   .     A
C310   C1254   1.389   .     S
C311   O377    1.394   .     S
C311   C316    1.407   .     A
C311   C517    1.391   1_455 S
C312   C315    1.406   .     A
C312   O382    1.389   .     S
C312   C416    1.381   .     S
C313   O387    1.385   .     S
C313   C315    1.417   .     A
C313   C413    1.391   .     S
C314   O392    1.384   .     S
C314   C316    1.407   .     A
C314   C516    1.381   1_455 S
C317   N340    1.372   .     A
C317   C397    1.481   .     S
C318   C400    1.470   .     S
C318   N339    1.373   .     A
C318   C625    1.429   .     S
C319   C403    1.481   .     S
C319   N340    1.373   .     A
C320   N339    1.371   .     A
C320   C406    1.465   .     S
C320   C623    1.428   .     S
C321   C326    1.427   .     S
C321   O345    1.291   .     A
C321   O348    1.287   .     A
C322   O346    1.287   .     A
C322   C325    1.433   .     S
C322   O347    1.296   .     A
C323   C333    1.402   .     A
C323   O351    1.389   .     S
C323   C325    1.404   .     A
C324   C334    1.403   .     A
C324   O356    1.388   .     S
C324   C326    1.398   .     A
C325   C327    1.405   .     A
C326   C328    1.401   .     A
C327   C329    1.401   .     A
C327   C361    1.490   .     S
C328   C330    1.400   .     A
C328   C364    1.489   .     S
C329   C335    1.403   .     A
C329   C331    1.414   .     A
C330   C332    1.416   .     A
C330   C336    1.400   .     A
C331   C333    1.421   .     A
C331   C1250   1.406   .     S
C332   C334    1.421   .     A
C332   C1249   1.406   1_554 S
C335   H337    1.080   .     S
C335   C1227   1.394   .     S
C336   H338    1.078   .     S
C336   C1228   1.389   1_554 S
N339   Zn349   2.027   .     S
N340   Zn350   2.027   .     S
O341   Zn349   2.012   .     S
O342   Zn350   2.012   .     S
O343   Zn349   2.016   .     S
O344   Zn350   2.016   .     S
O345   Zn349   2.017   .     S
O346   Zn350   2.017   .     S
O347   Zn349   2.018   .     S
O348   Zn350   2.018   .     S
O351   C352    1.409   .     S
C352   H355    1.110   .     S
C352   H354    1.099   .     S
C352   H353    1.113   .     S
O356   C357    1.411   .     S
C357   H358    1.106   .     S
C357   H360    1.115   .     S
C357   H359    1.110   .     S
C361   H362    1.086   .     S
C361   O363    1.219   .     D
C364   O366    1.218   .     D
C364   H365    1.085   .     S
O367   C368    1.411   .     S
C368   H370    1.114   .     S
C368   H369    1.110   .     S
C368   H371    1.109   .     S
O372   C373    1.414   .     S
C373   H374    1.109   .     S
C373   H375    1.114   .     S
C373   H376    1.109   .     S
O377   C378    1.410   .     S
C378   H381    1.108   .     S
C378   H380    1.111   .     S
C378   H379    1.108   .     S
O382   C383    1.415   .     S
C383   H385    1.109   .     S
C383   H384    1.108   .     S
C383   H386    1.116   .     S
O387   C388    1.415   .     S
C388   H390    1.109   .     S
C388   H391    1.111   .     S
C388   H389    1.111   .     S
O392   C393    1.410   .     S
C393   H394    1.109   .     S
C393   H395    1.112   .     S
C393   H396    1.113   .     S
C397   H398    1.077   .     S
C397   O399    1.221   .     D
C400   O402    1.219   .     D
C400   H401    1.082   .     S
C403   O405    1.221   .     D
C403   H404    1.077   .     S
C406   O408    1.220   .     D
C406   H407    1.081   .     S
C409   O443    1.294   .     A
C409   O446    1.295   .     A
C409   C418    1.440   .     S
C410   O444    1.292   .     A
C410   O445    1.298   .     A
C410   C417    1.444   .     S
C411   C436    1.411   .     A
C411   O469    1.389   .     S
C411   C1355   1.394   1_554 S
C412   O474    1.386   .     S
C412   C435    1.413   .     A
C412   C1356   1.389   .     S
C413   O479    1.394   .     S
C413   C418    1.407   .     A
C414   C417    1.406   .     A
C414   O484    1.389   .     S
C414   C518    1.381   .     S
C415   O489    1.385   .     S
C415   C417    1.417   .     A
C415   C515    1.391   .     S
C416   O494    1.384   .     S
C416   C418    1.407   .     A
C419   N442    1.372   .     A
C419   C499    1.481   .     S
C420   C502    1.470   .     S
C420   N441    1.373   .     A
C420   C727    1.429   .     S
C421   C505    1.481   .     S
C421   N442    1.373   .     A
C422   N441    1.371   .     A
C422   C508    1.465   .     S
C422   C725    1.428   .     S
C423   C428    1.427   .     S
C423   O447    1.291   .     A
C423   O450    1.287   .     A
C424   O448    1.287   .     A
C424   C427    1.433   .     S
C424   O449    1.296   .     A
C425   C435    1.402   .     A
C425   O453    1.389   .     S
C425   C427    1.404   .     A
C426   C436    1.403   .     A
C426   O458    1.388   .     S
C426   C428    1.398   .     A
C427   C429    1.405   .     A
C428   C430    1.401   .     A
C429   C431    1.401   .     A
C429   C463    1.490   .     S
C430   C432    1.400   .     A
C430   C466    1.489   .     S
C431   C437    1.403   .     A
C431   C433    1.414   .     A
C432   C434    1.416   .     A
C432   C438    1.400   .     A
C433   C435    1.421   .     A
C433   C1352   1.406   .     S
C434   C436    1.421   .     A
C434   C1351   1.406   1_554 S
C437   H439    1.080   .     S
C437   C1329   1.394   .     S
C438   H440    1.078   .     S
C438   C1330   1.389   1_554 S
N441   Zn451   2.027   .     S
N442   Zn452   2.027   .     S
O443   Zn451   2.012   .     S
O444   Zn452   2.012   .     S
O445   Zn451   2.016   .     S
O446   Zn452   2.016   .     S
O447   Zn451   2.017   .     S
O448   Zn452   2.017   .     S
O449   Zn451   2.018   .     S
O450   Zn452   2.018   .     S
O453   C454    1.409   .     S
C454   H457    1.110   .     S
C454   H456    1.099   .     S
C454   H455    1.113   .     S
O458   C459    1.411   .     S
C459   H460    1.106   .     S
C459   H462    1.115   .     S
C459   H461    1.110   .     S
C463   H464    1.086   .     S
C463   O465    1.219   .     D
C466   O468    1.218   .     D
C466   H467    1.085   .     S
O469   C470    1.411   .     S
C470   H472    1.114   .     S
C470   H471    1.110   .     S
C470   H473    1.109   .     S
O474   C475    1.414   .     S
C475   H476    1.109   .     S
C475   H477    1.114   .     S
C475   H478    1.109   .     S
O479   C480    1.410   .     S
C480   H483    1.108   .     S
C480   H482    1.111   .     S
C480   H481    1.108   .     S
O484   C485    1.415   .     S
C485   H487    1.109   .     S
C485   H486    1.108   .     S
C485   H488    1.116   .     S
O489   C490    1.415   .     S
C490   H492    1.109   .     S
C490   H493    1.111   .     S
C490   H491    1.111   .     S
O494   C495    1.410   .     S
C495   H496    1.109   .     S
C495   H497    1.112   .     S
C495   H498    1.113   .     S
C499   H500    1.077   .     S
C499   O501    1.221   .     D
C502   O504    1.219   .     D
C502   H503    1.082   .     S
C505   O507    1.221   .     D
C505   H506    1.077   .     S
C508   O510    1.220   .     D
C508   H509    1.081   .     S
C511   O545    1.294   .     A
C511   O548    1.295   .     A
C511   C520    1.440   .     S
C512   O546    1.292   .     A
C512   O547    1.298   .     A
C512   C519    1.444   .     S
C513   C538    1.411   .     A
C513   O571    1.389   .     S
C513   C1457   1.394   1_554 S
C514   O576    1.386   .     S
C514   C537    1.413   .     A
C514   C1458   1.389   .     S
C515   O581    1.394   .     S
C515   C520    1.407   .     A
C516   C519    1.406   .     A
C516   O586    1.389   .     S
C516   C314    1.381   1_655 S
C517   O591    1.385   .     S
C517   C519    1.417   .     A
C517   C311    1.391   1_655 S
C518   O596    1.384   .     S
C518   C520    1.407   .     A
C521   N544    1.372   .     A
C521   C601    1.481   .     S
C522   C604    1.470   .     S
C522   N543    1.373   .     A
C522   C829    1.429   .     S
C523   C607    1.481   .     S
C523   N544    1.373   .     A
C524   N543    1.371   .     A
C524   C610    1.465   .     S
C524   C827    1.428   .     S
C525   C530    1.427   .     S
C525   O549    1.291   .     A
C525   O552    1.287   .     A
C526   O550    1.287   .     A
C526   C529    1.433   .     S
C526   O551    1.296   .     A
C527   C537    1.402   .     A
C527   O555    1.389   .     S
C527   C529    1.404   .     A
C528   C538    1.403   .     A
C528   O560    1.388   .     S
C528   C530    1.398   .     A
C529   C531    1.405   .     A
C530   C532    1.401   .     A
C531   C533    1.401   .     A
C531   C565    1.490   .     S
C532   C534    1.400   .     A
C532   C568    1.489   .     S
C533   C539    1.403   .     A
C533   C535    1.414   .     A
C534   C536    1.416   .     A
C534   C540    1.400   .     A
C535   C537    1.421   .     A
C535   C1454   1.406   .     S
C536   C538    1.421   .     A
C536   C1453   1.406   1_554 S
C539   H541    1.080   .     S
C539   C1431   1.394   .     S
C540   H542    1.078   .     S
C540   C1432   1.389   1_554 S
N543   Zn553   2.027   .     S
N544   Zn554   2.027   .     S
O545   Zn553   2.012   .     S
O546   Zn554   2.012   .     S
O547   Zn553   2.016   .     S
O548   Zn554   2.016   .     S
O549   Zn553   2.017   .     S
O550   Zn554   2.017   .     S
O551   Zn553   2.018   .     S
O552   Zn554   2.018   .     S
O555   C556    1.409   .     S
C556   H559    1.110   .     S
C556   H558    1.099   .     S
C556   H557    1.113   .     S
O560   C561    1.411   .     S
C561   H562    1.106   .     S
C561   H564    1.115   .     S
C561   H563    1.110   .     S
C565   H566    1.086   .     S
C565   O567    1.219   .     D
C568   O570    1.218   .     D
C568   H569    1.085   .     S
O571   C572    1.411   .     S
C572   H574    1.114   .     S
C572   H573    1.110   .     S
C572   H575    1.109   .     S
O576   C577    1.414   .     S
C577   H578    1.109   .     S
C577   H579    1.114   .     S
C577   H580    1.109   .     S
O581   C582    1.410   .     S
C582   H585    1.108   .     S
C582   H584    1.111   .     S
C582   H583    1.108   .     S
O586   C587    1.415   .     S
C587   H589    1.109   .     S
C587   H588    1.108   .     S
C587   H590    1.116   .     S
O591   C592    1.415   .     S
C592   H594    1.109   .     S
C592   H595    1.111   .     S
C592   H593    1.111   .     S
O596   C597    1.410   .     S
C597   H598    1.109   .     S
C597   H599    1.112   .     S
C597   H600    1.113   .     S
C601   H602    1.077   .     S
C601   O603    1.221   .     D
C604   O606    1.219   .     D
C604   H605    1.082   .     S
C607   O609    1.221   .     D
C607   H608    1.077   .     S
C610   O612    1.220   .     D
C610   H611    1.081   .     S
C613   O647    1.294   .     A
C613   O650    1.295   .     A
C613   C622    1.440   .     S
C614   O648    1.292   .     A
C614   O649    1.298   .     A
C614   C621    1.444   .     S
C615   C640    1.411   .     A
C615   O673    1.389   .     S
C615   C1559   1.394   1_554 S
C616   O678    1.386   .     S
C616   C639    1.413   .     A
C616   C1560   1.389   .     S
C617   O683    1.394   .     S
C617   C622    1.407   .     A
C617   C823    1.391   1_455 S
C618   C621    1.406   .     A
C618   O688    1.389   .     S
C618   C722    1.381   .     S
C619   O693    1.385   .     S
C619   C621    1.417   .     A
C619   C719    1.391   .     S
C620   O698    1.384   .     S
C620   C622    1.407   .     A
C620   C822    1.381   1_455 S
C623   N646    1.372   .     A
C623   C703    1.481   .     S
C624   C706    1.470   .     S
C624   N645    1.373   .     A
C624   C13     1.429   1_565 S
C625   C709    1.481   .     S
C625   N646    1.373   .     A
C626   N645    1.371   .     A
C626   C712    1.465   .     S
C626   C11     1.428   1_565 S
C627   C632    1.427   .     S
C627   O651    1.291   .     A
C627   O654    1.287   .     A
C628   O652    1.287   .     A
C628   C631    1.433   .     S
C628   O653    1.296   .     A
C629   C639    1.402   .     A
C629   O657    1.389   .     S
C629   C631    1.404   .     A
C630   C640    1.403   .     A
C630   O662    1.388   .     S
C630   C632    1.398   .     A
C631   C633    1.405   .     A
C632   C634    1.401   .     A
C633   C635    1.401   .     A
C633   C667    1.490   .     S
C634   C636    1.400   .     A
C634   C670    1.489   .     S
C635   C641    1.403   .     A
C635   C637    1.414   .     A
C636   C638    1.416   .     A
C636   C642    1.400   .     A
C637   C639    1.421   .     A
C637   C1556   1.406   .     S
C638   C640    1.421   .     A
C638   C1555   1.406   1_554 S
C641   H643    1.080   .     S
C641   C1533   1.394   .     S
C642   H644    1.078   .     S
C642   C1534   1.389   1_554 S
N645   Zn655   2.027   .     S
N646   Zn656   2.027   .     S
O647   Zn655   2.012   .     S
O648   Zn656   2.012   .     S
O649   Zn655   2.016   .     S
O650   Zn656   2.016   .     S
O651   Zn655   2.017   .     S
O652   Zn656   2.017   .     S
O653   Zn655   2.018   .     S
O654   Zn656   2.018   .     S
O657   C658    1.409   .     S
C658   H661    1.110   .     S
C658   H660    1.099   .     S
C658   H659    1.113   .     S
O662   C663    1.411   .     S
C663   H664    1.106   .     S
C663   H666    1.115   .     S
C663   H665    1.110   .     S
C667   H668    1.086   .     S
C667   O669    1.219   .     D
C670   O672    1.218   .     D
C670   H671    1.085   .     S
O673   C674    1.411   .     S
C674   H676    1.114   .     S
C674   H675    1.110   .     S
C674   H677    1.109   .     S
O678   C679    1.414   .     S
C679   H680    1.109   .     S
C679   H681    1.114   .     S
C679   H682    1.109   .     S
O683   C684    1.410   .     S
C684   H687    1.108   .     S
C684   H686    1.111   .     S
C684   H685    1.108   .     S
O688   C689    1.415   .     S
C689   H691    1.109   .     S
C689   H690    1.108   .     S
C689   H692    1.116   .     S
O693   C694    1.415   .     S
C694   H696    1.109   .     S
C694   H697    1.111   .     S
C694   H695    1.111   .     S
O698   C699    1.410   .     S
C699   H700    1.109   .     S
C699   H701    1.112   .     S
C699   H702    1.113   .     S
C703   H704    1.077   .     S
C703   O705    1.221   .     D
C706   O708    1.219   .     D
C706   H707    1.082   .     S
C709   O711    1.221   .     D
C709   H710    1.077   .     S
C712   O714    1.220   .     D
C712   H713    1.081   .     S
C715   O749    1.294   .     A
C715   O752    1.295   .     A
C715   C724    1.440   .     S
C716   O750    1.292   .     A
C716   O751    1.298   .     A
C716   C723    1.444   .     S
C717   C742    1.411   .     A
C717   O775    1.389   .     S
C717   C1661   1.394   1_554 S
C718   O780    1.386   .     S
C718   C741    1.413   .     A
C718   C1662   1.389   .     S
C719   O785    1.394   .     S
C719   C724    1.407   .     A
C720   C723    1.406   .     A
C720   O790    1.389   .     S
C720   C824    1.381   .     S
C721   O795    1.385   .     S
C721   C723    1.417   .     A
C721   C821    1.391   .     S
C722   O800    1.384   .     S
C722   C724    1.407   .     A
C725   N748    1.372   .     A
C725   C805    1.481   .     S
C726   C808    1.470   .     S
C726   N747    1.373   .     A
C726   C115    1.429   1_565 S
C727   C811    1.481   .     S
C727   N748    1.373   .     A
C728   N747    1.371   .     A
C728   C814    1.465   .     S
C728   C113    1.428   1_565 S
C729   C734    1.427   .     S
C729   O753    1.291   .     A
C729   O756    1.287   .     A
C730   O754    1.287   .     A
C730   C733    1.433   .     S
C730   O755    1.296   .     A
C731   C741    1.402   .     A
C731   O759    1.389   .     S
C731   C733    1.404   .     A
C732   C742    1.403   .     A
C732   O764    1.388   .     S
C732   C734    1.398   .     A
C733   C735    1.405   .     A
C734   C736    1.401   .     A
C735   C737    1.401   .     A
C735   C769    1.490   .     S
C736   C738    1.400   .     A
C736   C772    1.489   .     S
C737   C743    1.403   .     A
C737   C739    1.414   .     A
C738   C740    1.416   .     A
C738   C744    1.400   .     A
C739   C741    1.421   .     A
C739   C1658   1.406   .     S
C740   C742    1.421   .     A
C740   C1657   1.406   1_554 S
C743   H745    1.080   .     S
C743   C1635   1.394   .     S
C744   H746    1.078   .     S
C744   C1636   1.389   1_554 S
N747   Zn757   2.027   .     S
N748   Zn758   2.027   .     S
O749   Zn757   2.012   .     S
O750   Zn758   2.012   .     S
O751   Zn757   2.016   .     S
O752   Zn758   2.016   .     S
O753   Zn757   2.017   .     S
O754   Zn758   2.017   .     S
O755   Zn757   2.018   .     S
O756   Zn758   2.018   .     S
O759   C760    1.409   .     S
C760   H763    1.110   .     S
C760   H762    1.099   .     S
C760   H761    1.113   .     S
O764   C765    1.411   .     S
C765   H766    1.106   .     S
C765   H768    1.115   .     S
C765   H767    1.110   .     S
C769   H770    1.086   .     S
C769   O771    1.219   .     D
C772   O774    1.218   .     D
C772   H773    1.085   .     S
O775   C776    1.411   .     S
C776   H778    1.114   .     S
C776   H777    1.110   .     S
C776   H779    1.109   .     S
O780   C781    1.414   .     S
C781   H782    1.109   .     S
C781   H783    1.114   .     S
C781   H784    1.109   .     S
O785   C786    1.410   .     S
C786   H789    1.108   .     S
C786   H788    1.111   .     S
C786   H787    1.108   .     S
O790   C791    1.415   .     S
C791   H793    1.109   .     S
C791   H792    1.108   .     S
C791   H794    1.116   .     S
O795   C796    1.415   .     S
C796   H798    1.109   .     S
C796   H799    1.111   .     S
C796   H797    1.111   .     S
O800   C801    1.410   .     S
C801   H802    1.109   .     S
C801   H803    1.112   .     S
C801   H804    1.113   .     S
C805   H806    1.077   .     S
C805   O807    1.221   .     D
C808   O810    1.219   .     D
C808   H809    1.082   .     S
C811   O813    1.221   .     D
C811   H812    1.077   .     S
C814   O816    1.220   .     D
C814   H815    1.081   .     S
C817   O851    1.294   .     A
C817   O854    1.295   .     A
C817   C826    1.440   .     S
C818   O852    1.292   .     A
C818   O853    1.298   .     A
C818   C825    1.444   .     S
C819   C844    1.411   .     A
C819   O877    1.389   .     S
C819   C1763   1.394   1_554 S
C820   O882    1.386   .     S
C820   C843    1.413   .     A
C820   C1764   1.389   .     S
C821   O887    1.394   .     S
C821   C826    1.407   .     A
C822   C825    1.406   .     A
C822   O892    1.389   .     S
C822   C620    1.381   1_655 S
C823   O897    1.385   .     S
C823   C825    1.417   .     A
C823   C617    1.391   1_655 S
C824   O902    1.384   .     S
C824   C826    1.407   .     A
C827   N850    1.372   .     A
C827   C907    1.481   .     S
C828   C910    1.470   .     S
C828   N849    1.373   .     A
C828   C217    1.429   1_565 S
C829   C913    1.481   .     S
C829   N850    1.373   .     A
C830   N849    1.371   .     A
C830   C916    1.465   .     S
C830   C215    1.428   1_565 S
C831   C836    1.427   .     S
C831   O855    1.291   .     A
C831   O858    1.287   .     A
C832   O856    1.287   .     A
C832   C835    1.433   .     S
C832   O857    1.296   .     A
C833   C843    1.402   .     A
C833   O861    1.389   .     S
C833   C835    1.404   .     A
C834   C844    1.403   .     A
C834   O866    1.388   .     S
C834   C836    1.398   .     A
C835   C837    1.405   .     A
C836   C838    1.401   .     A
C837   C839    1.401   .     A
C837   C871    1.490   .     S
C838   C840    1.400   .     A
C838   C874    1.489   .     S
C839   C845    1.403   .     A
C839   C841    1.414   .     A
C840   C842    1.416   .     A
C840   C846    1.400   .     A
C841   C843    1.421   .     A
C841   C1760   1.406   .     S
C842   C844    1.421   .     A
C842   C1759   1.406   1_554 S
C845   H847    1.080   .     S
C845   C1737   1.394   .     S
C846   H848    1.078   .     S
C846   C1738   1.389   1_554 S
N849   Zn859   2.027   .     S
N850   Zn860   2.027   .     S
O851   Zn859   2.012   .     S
O852   Zn860   2.012   .     S
O853   Zn859   2.016   .     S
O854   Zn860   2.016   .     S
O855   Zn859   2.017   .     S
O856   Zn860   2.017   .     S
O857   Zn859   2.018   .     S
O858   Zn860   2.018   .     S
O861   C862    1.409   .     S
C862   H865    1.110   .     S
C862   H864    1.099   .     S
C862   H863    1.113   .     S
O866   C867    1.411   .     S
C867   H868    1.106   .     S
C867   H870    1.115   .     S
C867   H869    1.110   .     S
C871   H872    1.086   .     S
C871   O873    1.219   .     D
C874   O876    1.218   .     D
C874   H875    1.085   .     S
O877   C878    1.411   .     S
C878   H880    1.114   .     S
C878   H879    1.110   .     S
C878   H881    1.109   .     S
O882   C883    1.414   .     S
C883   H884    1.109   .     S
C883   H885    1.114   .     S
C883   H886    1.109   .     S
O887   C888    1.410   .     S
C888   H891    1.108   .     S
C888   H890    1.111   .     S
C888   H889    1.108   .     S
O892   C893    1.415   .     S
C893   H895    1.109   .     S
C893   H894    1.108   .     S
C893   H896    1.116   .     S
O897   C898    1.415   .     S
C898   H900    1.109   .     S
C898   H901    1.111   .     S
C898   H899    1.111   .     S
O902   C903    1.410   .     S
C903   H904    1.109   .     S
C903   H905    1.112   .     S
C903   H906    1.113   .     S
C907   H908    1.077   .     S
C907   O909    1.221   .     D
C910   O912    1.219   .     D
C910   H911    1.082   .     S
C913   O915    1.221   .     D
C913   H914    1.077   .     S
C916   O918    1.220   .     D
C916   H917    1.081   .     S
C919   O953    1.294   .     A
C919   O956    1.295   .     A
C919   C928    1.440   .     S
C920   O954    1.292   .     A
C920   O955    1.298   .     A
C920   C927    1.444   .     S
C921   C946    1.411   .     A
C921   O979    1.389   .     S
C922   O984    1.386   .     S
C922   C945    1.413   .     A
C922   C30     1.389   1_556 S
C923   O989    1.394   .     S
C923   C928    1.407   .     A
C923   C1129   1.391   1_455 S
C924   C927    1.406   .     A
C924   O994    1.389   .     S
C924   C1028   1.381   .     S
C925   O999    1.385   .     S
C925   C927    1.417   .     A
C925   C1025   1.391   .     S
C926   O1004   1.384   .     S
C926   C928    1.407   .     A
C926   C1128   1.381   1_455 S
C929   N952    1.372   .     A
C929   C1009   1.481   .     S
C929   C1544   1.428   1_545 S
C930   C1012   1.470   .     S
C930   N951    1.373   .     A
C930   C1237   1.429   .     S
C931   C1015   1.481   .     S
C931   N952    1.373   .     A
C931   C1542   1.429   1_545 S
C932   N951    1.371   .     A
C932   C1018   1.465   .     S
C932   C1235   1.428   .     S
C933   C938    1.427   .     S
C933   O957    1.291   .     A
C933   O960    1.287   .     A
C934   O958    1.287   .     A
C934   C937    1.433   .     S
C934   O959    1.296   .     A
C935   C945    1.402   .     A
C935   O963    1.389   .     S
C935   C937    1.404   .     A
C936   C946    1.403   .     A
C936   O968    1.388   .     S
C936   C938    1.398   .     A
C937   C939    1.405   .     A
C938   C940    1.401   .     A
C939   C941    1.401   .     A
C939   C973    1.490   .     S
C940   C942    1.400   .     A
C940   C976    1.489   .     S
C941   C947    1.403   .     A
C941   C943    1.414   .     A
C942   C944    1.416   .     A
C942   C948    1.400   .     A
C943   C945    1.421   .     A
C943   C26     1.406   1_556 S
C944   C946    1.421   .     A
C947   H949    1.080   .     S
C947   C3      1.394   1_556 S
C948   H950    1.078   .     S
N951   Zn961   2.027   .     S
N952   Zn962   2.027   .     S
O953   Zn961   2.012   .     S
O954   Zn962   2.012   .     S
O955   Zn961   2.016   .     S
O956   Zn962   2.016   .     S
O957   Zn961   2.017   .     S
O958   Zn962   2.017   .     S
O959   Zn961   2.018   .     S
O960   Zn962   2.018   .     S
O963   C964    1.409   .     S
C964   H967    1.110   .     S
C964   H966    1.099   .     S
C964   H965    1.113   .     S
O968   C969    1.411   .     S
C969   H970    1.106   .     S
C969   H972    1.115   .     S
C969   H971    1.110   .     S
C973   H974    1.086   .     S
C973   O975    1.219   .     D
C976   O978    1.218   .     D
C976   H977    1.085   .     S
O979   C980    1.411   .     S
C980   H982    1.114   .     S
C980   H981    1.110   .     S
C980   H983    1.109   .     S
O984   C985    1.414   .     S
C985   H986    1.109   .     S
C985   H987    1.114   .     S
C985   H988    1.109   .     S
O989   C990    1.410   .     S
C990   H993    1.108   .     S
C990   H992    1.111   .     S
C990   H991    1.108   .     S
O994   C995    1.415   .     S
C995   H997    1.109   .     S
C995   H996    1.108   .     S
C995   H998    1.116   .     S
O999   C1000   1.415   .     S
C1000  H1002   1.109   .     S
C1000  H1003   1.111   .     S
C1000  H1001   1.111   .     S
O1004  C1005   1.410   .     S
C1005  H1006   1.109   .     S
C1005  H1007   1.112   .     S
C1005  H1008   1.113   .     S
C1009  H1010   1.077   .     S
C1009  O1011   1.221   .     D
C1012  O1014   1.219   .     D
C1012  H1013   1.082   .     S
C1015  O1017   1.221   .     D
C1015  H1016   1.077   .     S
C1018  O1020   1.220   .     D
C1018  H1019   1.081   .     S
C1021  O1055   1.294   .     A
C1021  O1058   1.295   .     A
C1021  C1030   1.440   .     S
C1022  O1056   1.292   .     A
C1022  O1057   1.298   .     A
C1022  C1029   1.444   .     S
C1023  C1048   1.411   .     A
C1023  O1081   1.389   .     S
C1024  O1086   1.386   .     S
C1024  C1047   1.413   .     A
C1024  C132    1.389   1_556 S
C1025  O1091   1.394   .     S
C1025  C1030   1.407   .     A
C1026  C1029   1.406   .     A
C1026  O1096   1.389   .     S
C1026  C1130   1.381   .     S
C1027  O1101   1.385   .     S
C1027  C1029   1.417   .     A
C1027  C1127   1.391   .     S
C1028  O1106   1.384   .     S
C1028  C1030   1.407   .     A
C1031  N1054   1.372   .     A
C1031  C1111   1.481   .     S
C1031  C1646   1.428   1_545 S
C1032  C1114   1.470   .     S
C1032  N1053   1.373   .     A
C1032  C1339   1.429   .     S
C1033  C1117   1.481   .     S
C1033  N1054   1.373   .     A
C1033  C1644   1.429   1_545 S
C1034  N1053   1.371   .     A
C1034  C1120   1.465   .     S
C1034  C1337   1.428   .     S
C1035  C1040   1.427   .     S
C1035  O1059   1.291   .     A
C1035  O1062   1.287   .     A
C1036  O1060   1.287   .     A
C1036  C1039   1.433   .     S
C1036  O1061   1.296   .     A
C1037  C1047   1.402   .     A
C1037  O1065   1.389   .     S
C1037  C1039   1.404   .     A
C1038  C1048   1.403   .     A
C1038  O1070   1.388   .     S
C1038  C1040   1.398   .     A
C1039  C1041   1.405   .     A
C1040  C1042   1.401   .     A
C1041  C1043   1.401   .     A
C1041  C1075   1.490   .     S
C1042  C1044   1.400   .     A
C1042  C1078   1.489   .     S
C1043  C1049   1.403   .     A
C1043  C1045   1.414   .     A
C1044  C1046   1.416   .     A
C1044  C1050   1.400   .     A
C1045  C1047   1.421   .     A
C1045  C128    1.406   1_556 S
C1046  C1048   1.421   .     A
C1049  H1051   1.080   .     S
C1049  C105    1.394   1_556 S
C1050  H1052   1.078   .     S
N1053  Zn1063  2.027   .     S
N1054  Zn1064  2.027   .     S
O1055  Zn1063  2.012   .     S
O1056  Zn1064  2.012   .     S
O1057  Zn1063  2.016   .     S
O1058  Zn1064  2.016   .     S
O1059  Zn1063  2.017   .     S
O1060  Zn1064  2.017   .     S
O1061  Zn1063  2.018   .     S
O1062  Zn1064  2.018   .     S
O1065  C1066   1.409   .     S
C1066  H1069   1.110   .     S
C1066  H1068   1.099   .     S
C1066  H1067   1.113   .     S
O1070  C1071   1.411   .     S
C1071  H1072   1.106   .     S
C1071  H1074   1.115   .     S
C1071  H1073   1.110   .     S
C1075  H1076   1.086   .     S
C1075  O1077   1.219   .     D
C1078  O1080   1.218   .     D
C1078  H1079   1.085   .     S
O1081  C1082   1.411   .     S
C1082  H1084   1.114   .     S
C1082  H1083   1.110   .     S
C1082  H1085   1.109   .     S
O1086  C1087   1.414   .     S
C1087  H1088   1.109   .     S
C1087  H1089   1.114   .     S
C1087  H1090   1.109   .     S
O1091  C1092   1.410   .     S
C1092  H1095   1.108   .     S
C1092  H1094   1.111   .     S
C1092  H1093   1.108   .     S
O1096  C1097   1.415   .     S
C1097  H1099   1.109   .     S
C1097  H1098   1.108   .     S
C1097  H1100   1.116   .     S
O1101  C1102   1.415   .     S
C1102  H1104   1.109   .     S
C1102  H1105   1.111   .     S
C1102  H1103   1.111   .     S
O1106  C1107   1.410   .     S
C1107  H1108   1.109   .     S
C1107  H1109   1.112   .     S
C1107  H1110   1.113   .     S
C1111  H1112   1.077   .     S
C1111  O1113   1.221   .     D
C1114  O1116   1.219   .     D
C1114  H1115   1.082   .     S
C1117  O1119   1.221   .     D
C1117  H1118   1.077   .     S
C1120  O1122   1.220   .     D
C1120  H1121   1.081   .     S
C1123  O1157   1.294   .     A
C1123  O1160   1.295   .     A
C1123  C1132   1.440   .     S
C1124  O1158   1.292   .     A
C1124  O1159   1.298   .     A
C1124  C1131   1.444   .     S
C1125  C1150   1.411   .     A
C1125  O1183   1.389   .     S
C1126  O1188   1.386   .     S
C1126  C1149   1.413   .     A
C1126  C234    1.389   1_556 S
C1127  O1193   1.394   .     S
C1127  C1132   1.407   .     A
C1128  C1131   1.406   .     A
C1128  O1198   1.389   .     S
C1128  C926    1.381   1_655 S
C1129  O1203   1.385   .     S
C1129  C1131   1.417   .     A
C1129  C923    1.391   1_655 S
C1130  O1208   1.384   .     S
C1130  C1132   1.407   .     A
C1133  N1156   1.372   .     A
C1133  C1213   1.481   .     S
C1133  C1748   1.428   1_545 S
C1134  C1216   1.470   .     S
C1134  N1155   1.373   .     A
C1134  C1441   1.429   .     S
C1135  C1219   1.481   .     S
C1135  N1156   1.373   .     A
C1135  C1746   1.429   1_545 S
C1136  N1155   1.371   .     A
C1136  C1222   1.465   .     S
C1136  C1439   1.428   .     S
C1137  C1142   1.427   .     S
C1137  O1161   1.291   .     A
C1137  O1164   1.287   .     A
C1138  O1162   1.287   .     A
C1138  C1141   1.433   .     S
C1138  O1163   1.296   .     A
C1139  C1149   1.402   .     A
C1139  O1167   1.389   .     S
C1139  C1141   1.404   .     A
C1140  C1150   1.403   .     A
C1140  O1172   1.388   .     S
C1140  C1142   1.398   .     A
C1141  C1143   1.405   .     A
C1142  C1144   1.401   .     A
C1143  C1145   1.401   .     A
C1143  C1177   1.490   .     S
C1144  C1146   1.400   .     A
C1144  C1180   1.489   .     S
C1145  C1151   1.403   .     A
C1145  C1147   1.414   .     A
C1146  C1148   1.416   .     A
C1146  C1152   1.400   .     A
C1147  C1149   1.421   .     A
C1147  C230    1.406   1_556 S
C1148  C1150   1.421   .     A
C1151  H1153   1.080   .     S
C1151  C207    1.394   1_556 S
C1152  H1154   1.078   .     S
N1155  Zn1165  2.027   .     S
N1156  Zn1166  2.027   .     S
O1157  Zn1165  2.012   .     S
O1158  Zn1166  2.012   .     S
O1159  Zn1165  2.016   .     S
O1160  Zn1166  2.016   .     S
O1161  Zn1165  2.017   .     S
O1162  Zn1166  2.017   .     S
O1163  Zn1165  2.018   .     S
O1164  Zn1166  2.018   .     S
O1167  C1168   1.409   .     S
C1168  H1171   1.110   .     S
C1168  H1170   1.099   .     S
C1168  H1169   1.113   .     S
O1172  C1173   1.411   .     S
C1173  H1174   1.106   .     S
C1173  H1176   1.115   .     S
C1173  H1175   1.110   .     S
C1177  H1178   1.086   .     S
C1177  O1179   1.219   .     D
C1180  O1182   1.218   .     D
C1180  H1181   1.085   .     S
O1183  C1184   1.411   .     S
C1184  H1186   1.114   .     S
C1184  H1185   1.110   .     S
C1184  H1187   1.109   .     S
O1188  C1189   1.414   .     S
C1189  H1190   1.109   .     S
C1189  H1191   1.114   .     S
C1189  H1192   1.109   .     S
O1193  C1194   1.410   .     S
C1194  H1197   1.108   .     S
C1194  H1196   1.111   .     S
C1194  H1195   1.108   .     S
O1198  C1199   1.415   .     S
C1199  H1201   1.109   .     S
C1199  H1200   1.108   .     S
C1199  H1202   1.116   .     S
O1203  C1204   1.415   .     S
C1204  H1206   1.109   .     S
C1204  H1207   1.111   .     S
C1204  H1205   1.111   .     S
O1208  C1209   1.410   .     S
C1209  H1210   1.109   .     S
C1209  H1211   1.112   .     S
C1209  H1212   1.113   .     S
C1213  H1214   1.077   .     S
C1213  O1215   1.221   .     D
C1216  O1218   1.219   .     D
C1216  H1217   1.082   .     S
C1219  O1221   1.221   .     D
C1219  H1220   1.077   .     S
C1222  O1224   1.220   .     D
C1222  H1223   1.081   .     S
C1225  O1259   1.294   .     A
C1225  O1262   1.295   .     A
C1225  C1234   1.440   .     S
C1226  O1260   1.292   .     A
C1226  O1261   1.298   .     A
C1226  C1233   1.444   .     S
C1227  C1252   1.411   .     A
C1227  O1285   1.389   .     S
C1228  O1290   1.386   .     S
C1228  C1251   1.413   .     A
C1228  C336    1.389   1_556 S
C1229  O1295   1.394   .     S
C1229  C1234   1.407   .     A
C1229  C1435   1.391   1_455 S
C1230  C1233   1.406   .     A
C1230  O1300   1.389   .     S
C1230  C1334   1.381   .     S
C1231  O1305   1.385   .     S
C1231  C1233   1.417   .     A
C1231  C1331   1.391   .     S
C1232  O1310   1.384   .     S
C1232  C1234   1.407   .     A
C1232  C1434   1.381   1_455 S
C1235  N1258   1.372   .     A
C1235  C1315   1.481   .     S
C1236  C1318   1.470   .     S
C1236  N1257   1.373   .     A
C1236  C1543   1.429   .     S
C1237  C1321   1.481   .     S
C1237  N1258   1.373   .     A
C1238  N1257   1.371   .     A
C1238  C1324   1.465   .     S
C1238  C1541   1.428   .     S
C1239  C1244   1.427   .     S
C1239  O1263   1.291   .     A
C1239  O1266   1.287   .     A
C1240  O1264   1.287   .     A
C1240  C1243   1.433   .     S
C1240  O1265   1.296   .     A
C1241  C1251   1.402   .     A
C1241  O1269   1.389   .     S
C1241  C1243   1.404   .     A
C1242  C1252   1.403   .     A
C1242  O1274   1.388   .     S
C1242  C1244   1.398   .     A
C1243  C1245   1.405   .     A
C1244  C1246   1.401   .     A
C1245  C1247   1.401   .     A
C1245  C1279   1.490   .     S
C1246  C1248   1.400   .     A
C1246  C1282   1.489   .     S
C1247  C1253   1.403   .     A
C1247  C1249   1.414   .     A
C1248  C1250   1.416   .     A
C1248  C1254   1.400   .     A
C1249  C1251   1.421   .     A
C1249  C332    1.406   1_556 S
C1250  C1252   1.421   .     A
C1253  H1255   1.080   .     S
C1253  C309    1.394   1_556 S
C1254  H1256   1.078   .     S
N1257  Zn1267  2.027   .     S
N1258  Zn1268  2.027   .     S
O1259  Zn1267  2.012   .     S
O1260  Zn1268  2.012   .     S
O1261  Zn1267  2.016   .     S
O1262  Zn1268  2.016   .     S
O1263  Zn1267  2.017   .     S
O1264  Zn1268  2.017   .     S
O1265  Zn1267  2.018   .     S
O1266  Zn1268  2.018   .     S
O1269  C1270   1.409   .     S
C1270  H1273   1.110   .     S
C1270  H1272   1.099   .     S
C1270  H1271   1.113   .     S
O1274  C1275   1.411   .     S
C1275  H1276   1.106   .     S
C1275  H1278   1.115   .     S
C1275  H1277   1.110   .     S
C1279  H1280   1.086   .     S
C1279  O1281   1.219   .     D
C1282  O1284   1.218   .     D
C1282  H1283   1.085   .     S
O1285  C1286   1.411   .     S
C1286  H1288   1.114   .     S
C1286  H1287   1.110   .     S
C1286  H1289   1.109   .     S
O1290  C1291   1.414   .     S
C1291  H1292   1.109   .     S
C1291  H1293   1.114   .     S
C1291  H1294   1.109   .     S
O1295  C1296   1.410   .     S
C1296  H1299   1.108   .     S
C1296  H1298   1.111   .     S
C1296  H1297   1.108   .     S
O1300  C1301   1.415   .     S
C1301  H1303   1.109   .     S
C1301  H1302   1.108   .     S
C1301  H1304   1.116   .     S
O1305  C1306   1.415   .     S
C1306  H1308   1.109   .     S
C1306  H1309   1.111   .     S
C1306  H1307   1.111   .     S
O1310  C1311   1.410   .     S
C1311  H1312   1.109   .     S
C1311  H1313   1.112   .     S
C1311  H1314   1.113   .     S
C1315  H1316   1.077   .     S
C1315  O1317   1.221   .     D
C1318  O1320   1.219   .     D
C1318  H1319   1.082   .     S
C1321  O1323   1.221   .     D
C1321  H1322   1.077   .     S
C1324  O1326   1.220   .     D
C1324  H1325   1.081   .     S
C1327  O1361   1.294   .     A
C1327  O1364   1.295   .     A
C1327  C1336   1.440   .     S
C1328  O1362   1.292   .     A
C1328  O1363   1.298   .     A
C1328  C1335   1.444   .     S
C1329  C1354   1.411   .     A
C1329  O1387   1.389   .     S
C1330  O1392   1.386   .     S
C1330  C1353   1.413   .     A
C1330  C438    1.389   1_556 S
C1331  O1397   1.394   .     S
C1331  C1336   1.407   .     A
C1332  C1335   1.406   .     A
C1332  O1402   1.389   .     S
C1332  C1436   1.381   .     S
C1333  O1407   1.385   .     S
C1333  C1335   1.417   .     A
C1333  C1433   1.391   .     S
C1334  O1412   1.384   .     S
C1334  C1336   1.407   .     A
C1337  N1360   1.372   .     A
C1337  C1417   1.481   .     S
C1338  C1420   1.470   .     S
C1338  N1359   1.373   .     A
C1338  C1645   1.429   .     S
C1339  C1423   1.481   .     S
C1339  N1360   1.373   .     A
C1340  N1359   1.371   .     A
C1340  C1426   1.465   .     S
C1340  C1643   1.428   .     S
C1341  C1346   1.427   .     S
C1341  O1365   1.291   .     A
C1341  O1368   1.287   .     A
C1342  O1366   1.287   .     A
C1342  C1345   1.433   .     S
C1342  O1367   1.296   .     A
C1343  C1353   1.402   .     A
C1343  O1371   1.389   .     S
C1343  C1345   1.404   .     A
C1344  C1354   1.403   .     A
C1344  O1376   1.388   .     S
C1344  C1346   1.398   .     A
C1345  C1347   1.405   .     A
C1346  C1348   1.401   .     A
C1347  C1349   1.401   .     A
C1347  C1381   1.490   .     S
C1348  C1350   1.400   .     A
C1348  C1384   1.489   .     S
C1349  C1355   1.403   .     A
C1349  C1351   1.414   .     A
C1350  C1352   1.416   .     A
C1350  C1356   1.400   .     A
C1351  C1353   1.421   .     A
C1351  C434    1.406   1_556 S
C1352  C1354   1.421   .     A
C1355  H1357   1.080   .     S
C1355  C411    1.394   1_556 S
C1356  H1358   1.078   .     S
N1359  Zn1369  2.027   .     S
N1360  Zn1370  2.027   .     S
O1361  Zn1369  2.012   .     S
O1362  Zn1370  2.012   .     S
O1363  Zn1369  2.016   .     S
O1364  Zn1370  2.016   .     S
O1365  Zn1369  2.017   .     S
O1366  Zn1370  2.017   .     S
O1367  Zn1369  2.018   .     S
O1368  Zn1370  2.018   .     S
O1371  C1372   1.409   .     S
C1372  H1375   1.110   .     S
C1372  H1374   1.099   .     S
C1372  H1373   1.113   .     S
O1376  C1377   1.411   .     S
C1377  H1378   1.106   .     S
C1377  H1380   1.115   .     S
C1377  H1379   1.110   .     S
C1381  H1382   1.086   .     S
C1381  O1383   1.219   .     D
C1384  O1386   1.218   .     D
C1384  H1385   1.085   .     S
O1387  C1388   1.411   .     S
C1388  H1390   1.114   .     S
C1388  H1389   1.110   .     S
C1388  H1391   1.109   .     S
O1392  C1393   1.414   .     S
C1393  H1394   1.109   .     S
C1393  H1395   1.114   .     S
C1393  H1396   1.109   .     S
O1397  C1398   1.410   .     S
C1398  H1401   1.108   .     S
C1398  H1400   1.111   .     S
C1398  H1399   1.108   .     S
O1402  C1403   1.415   .     S
C1403  H1405   1.109   .     S
C1403  H1404   1.108   .     S
C1403  H1406   1.116   .     S
O1407  C1408   1.415   .     S
C1408  H1410   1.109   .     S
C1408  H1411   1.111   .     S
C1408  H1409   1.111   .     S
O1412  C1413   1.410   .     S
C1413  H1414   1.109   .     S
C1413  H1415   1.112   .     S
C1413  H1416   1.113   .     S
C1417  H1418   1.077   .     S
C1417  O1419   1.221   .     D
C1420  O1422   1.219   .     D
C1420  H1421   1.082   .     S
C1423  O1425   1.221   .     D
C1423  H1424   1.077   .     S
C1426  O1428   1.220   .     D
C1426  H1427   1.081   .     S
C1429  O1463   1.294   .     A
C1429  O1466   1.295   .     A
C1429  C1438   1.440   .     S
C1430  O1464   1.292   .     A
C1430  O1465   1.298   .     A
C1430  C1437   1.444   .     S
C1431  C1456   1.411   .     A
C1431  O1489   1.389   .     S
C1432  O1494   1.386   .     S
C1432  C1455   1.413   .     A
C1432  C540    1.389   1_556 S
C1433  O1499   1.394   .     S
C1433  C1438   1.407   .     A
C1434  C1437   1.406   .     A
C1434  O1504   1.389   .     S
C1434  C1232   1.381   1_655 S
C1435  O1509   1.385   .     S
C1435  C1437   1.417   .     A
C1435  C1229   1.391   1_655 S
C1436  O1514   1.384   .     S
C1436  C1438   1.407   .     A
C1439  N1462   1.372   .     A
C1439  C1519   1.481   .     S
C1440  C1522   1.470   .     S
C1440  N1461   1.373   .     A
C1440  C1747   1.429   .     S
C1441  C1525   1.481   .     S
C1441  N1462   1.373   .     A
C1442  N1461   1.371   .     A
C1442  C1528   1.465   .     S
C1442  C1745   1.428   .     S
C1443  C1448   1.427   .     S
C1443  O1467   1.291   .     A
C1443  O1470   1.287   .     A
C1444  O1468   1.287   .     A
C1444  C1447   1.433   .     S
C1444  O1469   1.296   .     A
C1445  C1455   1.402   .     A
C1445  O1473   1.389   .     S
C1445  C1447   1.404   .     A
C1446  C1456   1.403   .     A
C1446  O1478   1.388   .     S
C1446  C1448   1.398   .     A
C1447  C1449   1.405   .     A
C1448  C1450   1.401   .     A
C1449  C1451   1.401   .     A
C1449  C1483   1.490   .     S
C1450  C1452   1.400   .     A
C1450  C1486   1.489   .     S
C1451  C1457   1.403   .     A
C1451  C1453   1.414   .     A
C1452  C1454   1.416   .     A
C1452  C1458   1.400   .     A
C1453  C1455   1.421   .     A
C1453  C536    1.406   1_556 S
C1454  C1456   1.421   .     A
C1457  H1459   1.080   .     S
C1457  C513    1.394   1_556 S
C1458  H1460   1.078   .     S
N1461  Zn1471  2.027   .     S
N1462  Zn1472  2.027   .     S
O1463  Zn1471  2.012   .     S
O1464  Zn1472  2.012   .     S
O1465  Zn1471  2.016   .     S
O1466  Zn1472  2.016   .     S
O1467  Zn1471  2.017   .     S
O1468  Zn1472  2.017   .     S
O1469  Zn1471  2.018   .     S
O1470  Zn1472  2.018   .     S
O1473  C1474   1.409   .     S
C1474  H1477   1.110   .     S
C1474  H1476   1.099   .     S
C1474  H1475   1.113   .     S
O1478  C1479   1.411   .     S
C1479  H1480   1.106   .     S
C1479  H1482   1.115   .     S
C1479  H1481   1.110   .     S
C1483  H1484   1.086   .     S
C1483  O1485   1.219   .     D
C1486  O1488   1.218   .     D
C1486  H1487   1.085   .     S
O1489  C1490   1.411   .     S
C1490  H1492   1.114   .     S
C1490  H1491   1.110   .     S
C1490  H1493   1.109   .     S
O1494  C1495   1.414   .     S
C1495  H1496   1.109   .     S
C1495  H1497   1.114   .     S
C1495  H1498   1.109   .     S
O1499  C1500   1.410   .     S
C1500  H1503   1.108   .     S
C1500  H1502   1.111   .     S
C1500  H1501   1.108   .     S
O1504  C1505   1.415   .     S
C1505  H1507   1.109   .     S
C1505  H1506   1.108   .     S
C1505  H1508   1.116   .     S
O1509  C1510   1.415   .     S
C1510  H1512   1.109   .     S
C1510  H1513   1.111   .     S
C1510  H1511   1.111   .     S
O1514  C1515   1.410   .     S
C1515  H1516   1.109   .     S
C1515  H1517   1.112   .     S
C1515  H1518   1.113   .     S
C1519  H1520   1.077   .     S
C1519  O1521   1.221   .     D
C1522  O1524   1.219   .     D
C1522  H1523   1.082   .     S
C1525  O1527   1.221   .     D
C1525  H1526   1.077   .     S
C1528  O1530   1.220   .     D
C1528  H1529   1.081   .     S
C1531  O1565   1.294   .     A
C1531  O1568   1.295   .     A
C1531  C1540   1.440   .     S
C1532  O1566   1.292   .     A
C1532  O1567   1.298   .     A
C1532  C1539   1.444   .     S
C1533  C1558   1.411   .     A
C1533  O1591   1.389   .     S
C1534  O1596   1.386   .     S
C1534  C1557   1.413   .     A
C1534  C642    1.389   1_556 S
C1535  O1601   1.394   .     S
C1535  C1540   1.407   .     A
C1535  C1741   1.391   1_455 S
C1536  C1539   1.406   .     A
C1536  O1606   1.389   .     S
C1536  C1640   1.381   .     S
C1537  O1611   1.385   .     S
C1537  C1539   1.417   .     A
C1537  C1637   1.391   .     S
C1538  O1616   1.384   .     S
C1538  C1540   1.407   .     A
C1538  C1740   1.381   1_455 S
C1541  N1564   1.372   .     A
C1541  C1621   1.481   .     S
C1542  C1624   1.470   .     S
C1542  N1563   1.373   .     A
C1542  C931    1.429   1_565 S
C1543  C1627   1.481   .     S
C1543  N1564   1.373   .     A
C1544  N1563   1.371   .     A
C1544  C1630   1.465   .     S
C1544  C929    1.428   1_565 S
C1545  C1550   1.427   .     S
C1545  O1569   1.291   .     A
C1545  O1572   1.287   .     A
C1546  O1570   1.287   .     A
C1546  C1549   1.433   .     S
C1546  O1571   1.296   .     A
C1547  C1557   1.402   .     A
C1547  O1575   1.389   .     S
C1547  C1549   1.404   .     A
C1548  C1558   1.403   .     A
C1548  O1580   1.388   .     S
C1548  C1550   1.398   .     A
C1549  C1551   1.405   .     A
C1550  C1552   1.401   .     A
C1551  C1553   1.401   .     A
C1551  C1585   1.490   .     S
C1552  C1554   1.400   .     A
C1552  C1588   1.489   .     S
C1553  C1559   1.403   .     A
C1553  C1555   1.414   .     A
C1554  C1556   1.416   .     A
C1554  C1560   1.400   .     A
C1555  C1557   1.421   .     A
C1555  C638    1.406   1_556 S
C1556  C1558   1.421   .     A
C1559  H1561   1.080   .     S
C1559  C615    1.394   1_556 S
C1560  H1562   1.078   .     S
N1563  Zn1573  2.027   .     S
N1564  Zn1574  2.027   .     S
O1565  Zn1573  2.012   .     S
O1566  Zn1574  2.012   .     S
O1567  Zn1573  2.016   .     S
O1568  Zn1574  2.016   .     S
O1569  Zn1573  2.017   .     S
O1570  Zn1574  2.017   .     S
O1571  Zn1573  2.018   .     S
O1572  Zn1574  2.018   .     S
O1575  C1576   1.409   .     S
C1576  H1579   1.110   .     S
C1576  H1578   1.099   .     S
C1576  H1577   1.113   .     S
O1580  C1581   1.411   .     S
C1581  H1582   1.106   .     S
C1581  H1584   1.115   .     S
C1581  H1583   1.110   .     S
C1585  H1586   1.086   .     S
C1585  O1587   1.219   .     D
C1588  O1590   1.218   .     D
C1588  H1589   1.085   .     S
O1591  C1592   1.411   .     S
C1592  H1594   1.114   .     S
C1592  H1593   1.110   .     S
C1592  H1595   1.109   .     S
O1596  C1597   1.414   .     S
C1597  H1598   1.109   .     S
C1597  H1599   1.114   .     S
C1597  H1600   1.109   .     S
O1601  C1602   1.410   .     S
C1602  H1605   1.108   .     S
C1602  H1604   1.111   .     S
C1602  H1603   1.108   .     S
O1606  C1607   1.415   .     S
C1607  H1609   1.109   .     S
C1607  H1608   1.108   .     S
C1607  H1610   1.116   .     S
O1611  C1612   1.415   .     S
C1612  H1614   1.109   .     S
C1612  H1615   1.111   .     S
C1612  H1613   1.111   .     S
O1616  C1617   1.410   .     S
C1617  H1618   1.109   .     S
C1617  H1619   1.112   .     S
C1617  H1620   1.113   .     S
C1621  H1622   1.077   .     S
C1621  O1623   1.221   .     D
C1624  O1626   1.219   .     D
C1624  H1625   1.082   .     S
C1627  O1629   1.221   .     D
C1627  H1628   1.077   .     S
C1630  O1632   1.220   .     D
C1630  H1631   1.081   .     S
C1633  O1667   1.294   .     A
C1633  O1670   1.295   .     A
C1633  C1642   1.440   .     S
C1634  O1668   1.292   .     A
C1634  O1669   1.298   .     A
C1634  C1641   1.444   .     S
C1635  C1660   1.411   .     A
C1635  O1693   1.389   .     S
C1636  O1698   1.386   .     S
C1636  C1659   1.413   .     A
C1636  C744    1.389   1_556 S
C1637  O1703   1.394   .     S
C1637  C1642   1.407   .     A
C1638  C1641   1.406   .     A
C1638  O1708   1.389   .     S
C1638  C1742   1.381   .     S
C1639  O1713   1.385   .     S
C1639  C1641   1.417   .     A
C1639  C1739   1.391   .     S
C1640  O1718   1.384   .     S
C1640  C1642   1.407   .     A
C1643  N1666   1.372   .     A
C1643  C1723   1.481   .     S
C1644  C1726   1.470   .     S
C1644  N1665   1.373   .     A
C1644  C1033   1.429   1_565 S
C1645  C1729   1.481   .     S
C1645  N1666   1.373   .     A
C1646  N1665   1.371   .     A
C1646  C1732   1.465   .     S
C1646  C1031   1.428   1_565 S
C1647  C1652   1.427   .     S
C1647  O1671   1.291   .     A
C1647  O1674   1.287   .     A
C1648  O1672   1.287   .     A
C1648  C1651   1.433   .     S
C1648  O1673   1.296   .     A
C1649  C1659   1.402   .     A
C1649  O1677   1.389   .     S
C1649  C1651   1.404   .     A
C1650  C1660   1.403   .     A
C1650  O1682   1.388   .     S
C1650  C1652   1.398   .     A
C1651  C1653   1.405   .     A
C1652  C1654   1.401   .     A
C1653  C1655   1.401   .     A
C1653  C1687   1.490   .     S
C1654  C1656   1.400   .     A
C1654  C1690   1.489   .     S
C1655  C1661   1.403   .     A
C1655  C1657   1.414   .     A
C1656  C1658   1.416   .     A
C1656  C1662   1.400   .     A
C1657  C1659   1.421   .     A
C1657  C740    1.406   1_556 S
C1658  C1660   1.421   .     A
C1661  H1663   1.080   .     S
C1661  C717    1.394   1_556 S
C1662  H1664   1.078   .     S
N1665  Zn1675  2.027   .     S
N1666  Zn1676  2.027   .     S
O1667  Zn1675  2.012   .     S
O1668  Zn1676  2.012   .     S
O1669  Zn1675  2.016   .     S
O1670  Zn1676  2.016   .     S
O1671  Zn1675  2.017   .     S
O1672  Zn1676  2.017   .     S
O1673  Zn1675  2.018   .     S
O1674  Zn1676  2.018   .     S
O1677  C1678   1.409   .     S
C1678  H1681   1.110   .     S
C1678  H1680   1.099   .     S
C1678  H1679   1.113   .     S
O1682  C1683   1.411   .     S
C1683  H1684   1.106   .     S
C1683  H1686   1.115   .     S
C1683  H1685   1.110   .     S
C1687  H1688   1.086   .     S
C1687  O1689   1.219   .     D
C1690  O1692   1.218   .     D
C1690  H1691   1.085   .     S
O1693  C1694   1.411   .     S
C1694  H1696   1.114   .     S
C1694  H1695   1.110   .     S
C1694  H1697   1.109   .     S
O1698  C1699   1.414   .     S
C1699  H1700   1.109   .     S
C1699  H1701   1.114   .     S
C1699  H1702   1.109   .     S
O1703  C1704   1.410   .     S
C1704  H1707   1.108   .     S
C1704  H1706   1.111   .     S
C1704  H1705   1.108   .     S
O1708  C1709   1.415   .     S
C1709  H1711   1.109   .     S
C1709  H1710   1.108   .     S
C1709  H1712   1.116   .     S
O1713  C1714   1.415   .     S
C1714  H1716   1.109   .     S
C1714  H1717   1.111   .     S
C1714  H1715   1.111   .     S
O1718  C1719   1.410   .     S
C1719  H1720   1.109   .     S
C1719  H1721   1.112   .     S
C1719  H1722   1.113   .     S
C1723  H1724   1.077   .     S
C1723  O1725   1.221   .     D
C1726  O1728   1.219   .     D
C1726  H1727   1.082   .     S
C1729  O1731   1.221   .     D
C1729  H1730   1.077   .     S
C1732  O1734   1.220   .     D
C1732  H1733   1.081   .     S
C1735  O1769   1.294   .     A
C1735  O1772   1.295   .     A
C1735  C1744   1.440   .     S
C1736  O1770   1.292   .     A
C1736  O1771   1.298   .     A
C1736  C1743   1.444   .     S
C1737  C1762   1.411   .     A
C1737  O1795   1.389   .     S
C1738  O1800   1.386   .     S
C1738  C1761   1.413   .     A
C1738  C846    1.389   1_556 S
C1739  O1805   1.394   .     S
C1739  C1744   1.407   .     A
C1740  C1743   1.406   .     A
C1740  O1810   1.389   .     S
C1740  C1538   1.381   1_655 S
C1741  O1815   1.385   .     S
C1741  C1743   1.417   .     A
C1741  C1535   1.391   1_655 S
C1742  O1820   1.384   .     S
C1742  C1744   1.407   .     A
C1745  N1768   1.372   .     A
C1745  C1825   1.481   .     S
C1746  C1828   1.470   .     S
C1746  N1767   1.373   .     A
C1746  C1135   1.429   1_565 S
C1747  C1831   1.481   .     S
C1747  N1768   1.373   .     A
C1748  N1767   1.371   .     A
C1748  C1834   1.465   .     S
C1748  C1133   1.428   1_565 S
C1749  C1754   1.427   .     S
C1749  O1773   1.291   .     A
C1749  O1776   1.287   .     A
C1750  O1774   1.287   .     A
C1750  C1753   1.433   .     S
C1750  O1775   1.296   .     A
C1751  C1761   1.402   .     A
C1751  O1779   1.389   .     S
C1751  C1753   1.404   .     A
C1752  C1762   1.403   .     A
C1752  O1784   1.388   .     S
C1752  C1754   1.398   .     A
C1753  C1755   1.405   .     A
C1754  C1756   1.401   .     A
C1755  C1757   1.401   .     A
C1755  C1789   1.490   .     S
C1756  C1758   1.400   .     A
C1756  C1792   1.489   .     S
C1757  C1763   1.403   .     A
C1757  C1759   1.414   .     A
C1758  C1760   1.416   .     A
C1758  C1764   1.400   .     A
C1759  C1761   1.421   .     A
C1759  C842    1.406   1_556 S
C1760  C1762   1.421   .     A
C1763  H1765   1.080   .     S
C1763  C819    1.394   1_556 S
C1764  H1766   1.078   .     S
N1767  Zn1777  2.027   .     S
N1768  Zn1778  2.027   .     S
O1769  Zn1777  2.012   .     S
O1770  Zn1778  2.012   .     S
O1771  Zn1777  2.016   .     S
O1772  Zn1778  2.016   .     S
O1773  Zn1777  2.017   .     S
O1774  Zn1778  2.017   .     S
O1775  Zn1777  2.018   .     S
O1776  Zn1778  2.018   .     S
O1779  C1780   1.409   .     S
C1780  H1783   1.110   .     S
C1780  H1782   1.099   .     S
C1780  H1781   1.113   .     S
O1784  C1785   1.411   .     S
C1785  H1786   1.106   .     S
C1785  H1788   1.115   .     S
C1785  H1787   1.110   .     S
C1789  H1790   1.086   .     S
C1789  O1791   1.219   .     D
C1792  O1794   1.218   .     D
C1792  H1793   1.085   .     S
O1795  C1796   1.411   .     S
C1796  H1798   1.114   .     S
C1796  H1797   1.110   .     S
C1796  H1799   1.109   .     S
O1800  C1801   1.414   .     S
C1801  H1802   1.109   .     S
C1801  H1803   1.114   .     S
C1801  H1804   1.109   .     S
O1805  C1806   1.410   .     S
C1806  H1809   1.108   .     S
C1806  H1808   1.111   .     S
C1806  H1807   1.108   .     S
O1810  C1811   1.415   .     S
C1811  H1813   1.109   .     S
C1811  H1812   1.108   .     S
C1811  H1814   1.116   .     S
O1815  C1816   1.415   .     S
C1816  H1818   1.109   .     S
C1816  H1819   1.111   .     S
C1816  H1817   1.111   .     S
O1820  C1821   1.410   .     S
C1821  H1822   1.109   .     S
C1821  H1823   1.112   .     S
C1821  H1824   1.113   .     S
C1825  H1826   1.077   .     S
C1825  O1827   1.221   .     D
C1828  O1830   1.219   .     D
C1828  H1829   1.082   .     S
C1831  O1833   1.221   .     D
C1831  H1832   1.077   .     S
C1834  O1836   1.220   .     D
C1834  H1835   1.081   .     S
