data_str_m3_o10_o16_pcu_sym.102
_audit_creation_date              2020-01-03
_audit_creation_method            'Materials Studio'
_symmetry_space_group_name_H-M    'P1'
_symmetry_Int_Tables_number       1
_symmetry_cell_setting            triclinic
loop_
_symmetry_equiv_pos_as_xyz
  x,y,z
_cell_length_a                    23.5584
_cell_length_b                    25.6928
_cell_length_c                    24.1894
_cell_angle_alpha                 92.6739
_cell_angle_beta                  101.2313
_cell_angle_gamma                 94.0293
loop_
_atom_site_label
_atom_site_type_symbol
_atom_site_fract_x
_atom_site_fract_y
_atom_site_fract_z
_atom_site_U_iso_or_equiv
_atom_site_adp_type
_atom_site_occupancy
C1     C     0.01482   0.26487   0.24867   0.00000  Uiso   1.00
C2     C     0.05299   0.16767   0.41613   0.00000  Uiso   1.00
C3     C     0.02254   0.31944   0.24794   0.00000  Uiso   1.00
C4     C     0.03531   0.16784   0.35515   0.00000  Uiso   1.00
C5     C     0.31085   0.01392   0.25222   0.00000  Uiso   1.00
C6     C     0.31854   0.06847   0.25139   0.00000  Uiso   1.00
C7     C     0.29746   0.16269   0.14484   0.00000  Uiso   1.00
C8     C     0.26975   0.09549   0.00102   0.00000  Uiso   1.00
C9     C     0.27648   0.15204   0.08490   0.00000  Uiso   1.00
C10    C     0.02445   0.19782   0.45036   0.00000  Uiso   1.00
C11    C     0.04815   0.20760   0.00734   0.00000  Uiso   1.00
C12    C     0.13187   0.16062   0.49514   0.00000  Uiso   1.00
C13    C     0.10197   0.19020   0.02962   0.00000  Uiso   1.00
C14    C     0.15786   0.11345   0.19918   0.00000  Uiso   1.00
C15    C     0.10336   0.14398   0.43993   0.00000  Uiso   1.00
C16    C     0.18927   0.14727   0.01343   0.00000  Uiso   1.00
C17    C     0.21357   0.11041   0.48110   0.00000  Uiso   1.00
C18    C     0.18101   0.08846   0.43004   0.00000  Uiso   1.00
C19    C     0.12654   0.10514   0.40950   0.00000  Uiso   1.00
C20    C     0.22363   0.17061   0.06267   0.00000  Uiso   1.00
C21    C     0.30068   0.11532   0.05375   0.00000  Uiso   1.00
H22    H     0.00856   0.10043   0.07110   0.00000  Uiso   1.00
H23    H     0.10248   0.08695   0.36979   0.00000  Uiso   1.00
H24    H     0.06500   0.00319   0.24386   0.00000  Uiso   1.00
H25    H     0.26840   0.33019   0.25630   0.00000  Uiso   1.00
H26    H     0.17686   0.20894   0.29141   0.00000  Uiso   1.00
H27    H     0.19806   0.05917   0.40546   0.00000  Uiso   1.00
H28    H     0.28857   0.06703   0.47702   0.00000  Uiso   1.00
H29    H     0.20899   0.20192   0.08631   0.00000  Uiso   1.00
H30    H     0.31821   0.21526   0.43270   0.00000  Uiso   1.00
H31    H     0.11846   0.19930   0.07411   0.00000  Uiso   1.00
H32    H     0.02583   0.23040   0.03390   0.00000  Uiso   1.00
N33    N     0.14493   0.15223   0.23543   0.00000  Uiso   1.00
N34    N     0.18840   0.18110   0.26458   0.00000  Uiso   1.00
N35    N     0.16802   0.08090   0.16868   0.00000  Uiso   1.00
O36    O     0.29769   0.24629   0.25358   0.00000  Uiso   1.00
O37    O     0.05742   0.23704   0.24423   0.00000  Uiso   1.00
O38    O     0.31490   0.17358   0.33380   0.00000  Uiso   1.00
O39    O     0.07463   0.16433   0.32446   0.00000  Uiso   1.00
O40    O     0.27592   0.09629   0.25577   0.00000  Uiso   1.00
O41    O     0.03565   0.08704   0.24642   0.00000  Uiso   1.00
O42    O     0.25870   0.16901   0.17554   0.00000  Uiso   1.00
O43    O     0.01843   0.15976   0.16620   0.00000  Uiso   1.00
Zn44   Zn    0.27119   0.17284   0.25624   0.00000  Uiso   1.00
Zn45   Zn    0.06214   0.16049   0.24376   0.00000  Uiso   1.00
C46    C     0.34815   0.26487   0.24867   0.00000  Uiso   1.00
C47    C     0.38632   0.16767   0.41613   0.00000  Uiso   1.00
C48    C     0.35588   0.31944   0.24794   0.00000  Uiso   1.00
C49    C     0.36864   0.16784   0.35515   0.00000  Uiso   1.00
C50    C     0.64418   0.01392   0.25222   0.00000  Uiso   1.00
C51    C     0.65187   0.06847   0.25139   0.00000  Uiso   1.00
C52    C     0.63079   0.16269   0.14484   0.00000  Uiso   1.00
C53    C     0.60308   0.09549   0.00102   0.00000  Uiso   1.00
C54    C     0.60981   0.15204   0.08490   0.00000  Uiso   1.00
C55    C     0.35778   0.19782   0.45036   0.00000  Uiso   1.00
C56    C     0.38149   0.20760   0.00734   0.00000  Uiso   1.00
C57    C     0.46520   0.16062   0.49514   0.00000  Uiso   1.00
C58    C     0.43530   0.19020   0.02962   0.00000  Uiso   1.00
C59    C     0.49119   0.11345   0.19918   0.00000  Uiso   1.00
C60    C     0.43669   0.14398   0.43993   0.00000  Uiso   1.00
C61    C     0.52261   0.14727   0.01343   0.00000  Uiso   1.00
C62    C     0.54690   0.11041   0.48110   0.00000  Uiso   1.00
C63    C     0.51434   0.08846   0.43004   0.00000  Uiso   1.00
C64    C     0.45987   0.10514   0.40950   0.00000  Uiso   1.00
C65    C     0.55696   0.17061   0.06267   0.00000  Uiso   1.00
C66    C     0.63402   0.11532   0.05375   0.00000  Uiso   1.00
H67    H     0.34190   0.10043   0.07110   0.00000  Uiso   1.00
H68    H     0.43581   0.08695   0.36979   0.00000  Uiso   1.00
H69    H     0.39833   0.00319   0.24386   0.00000  Uiso   1.00
H70    H     0.60173   0.33019   0.25630   0.00000  Uiso   1.00
H71    H     0.51020   0.20894   0.29141   0.00000  Uiso   1.00
H72    H     0.53139   0.05917   0.40546   0.00000  Uiso   1.00
H73    H     0.62190   0.06703   0.47702   0.00000  Uiso   1.00
H74    H     0.54233   0.20192   0.08631   0.00000  Uiso   1.00
H75    H     0.65155   0.21526   0.43270   0.00000  Uiso   1.00
H76    H     0.45179   0.19930   0.07411   0.00000  Uiso   1.00
H77    H     0.35916   0.23040   0.03390   0.00000  Uiso   1.00
N78    N     0.47827   0.15223   0.23543   0.00000  Uiso   1.00
N79    N     0.52173   0.18110   0.26458   0.00000  Uiso   1.00
N80    N     0.50136   0.08090   0.16868   0.00000  Uiso   1.00
O81    O     0.63102   0.24629   0.25358   0.00000  Uiso   1.00
O82    O     0.39075   0.23704   0.24423   0.00000  Uiso   1.00
O83    O     0.64823   0.17358   0.33380   0.00000  Uiso   1.00
O84    O     0.40796   0.16433   0.32446   0.00000  Uiso   1.00
O85    O     0.60925   0.09629   0.25577   0.00000  Uiso   1.00
O86    O     0.36898   0.08704   0.24642   0.00000  Uiso   1.00
O87    O     0.59204   0.16901   0.17554   0.00000  Uiso   1.00
O88    O     0.35177   0.15976   0.16620   0.00000  Uiso   1.00
Zn89   Zn    0.60453   0.17284   0.25624   0.00000  Uiso   1.00
Zn90   Zn    0.39547   0.16049   0.24376   0.00000  Uiso   1.00
C91    C     0.68148   0.26487   0.24867   0.00000  Uiso   1.00
C92    C     0.71966   0.16767   0.41613   0.00000  Uiso   1.00
C93    C     0.68921   0.31944   0.24794   0.00000  Uiso   1.00
C94    C     0.70197   0.16784   0.35515   0.00000  Uiso   1.00
C95    C     0.97752   0.01392   0.25222   0.00000  Uiso   1.00
C96    C     0.98520   0.06847   0.25139   0.00000  Uiso   1.00
C97    C     0.96413   0.16269   0.14484   0.00000  Uiso   1.00
C98    C     0.93642   0.09549   0.00102   0.00000  Uiso   1.00
C99    C     0.94315   0.15204   0.08490   0.00000  Uiso   1.00
C100   C     0.69111   0.19782   0.45036   0.00000  Uiso   1.00
C101   C     0.71482   0.20760   0.00734   0.00000  Uiso   1.00
C102   C     0.79854   0.16062   0.49514   0.00000  Uiso   1.00
C103   C     0.76863   0.19020   0.02962   0.00000  Uiso   1.00
C104   C     0.82452   0.11345   0.19918   0.00000  Uiso   1.00
C105   C     0.77003   0.14398   0.43993   0.00000  Uiso   1.00
C106   C     0.85594   0.14727   0.01343   0.00000  Uiso   1.00
C107   C     0.88024   0.11041   0.48110   0.00000  Uiso   1.00
C108   C     0.84767   0.08846   0.43004   0.00000  Uiso   1.00
C109   C     0.79320   0.10514   0.40950   0.00000  Uiso   1.00
C110   C     0.89030   0.17061   0.06267   0.00000  Uiso   1.00
C111   C     0.96735   0.11532   0.05375   0.00000  Uiso   1.00
H112   H     0.67523   0.10043   0.07110   0.00000  Uiso   1.00
H113   H     0.76914   0.08695   0.36979   0.00000  Uiso   1.00
H114   H     0.73167   0.00319   0.24386   0.00000  Uiso   1.00
H115   H     0.93506   0.33019   0.25630   0.00000  Uiso   1.00
H116   H     0.84353   0.20894   0.29141   0.00000  Uiso   1.00
H117   H     0.86473   0.05917   0.40546   0.00000  Uiso   1.00
H118   H     0.95523   0.06703   0.47702   0.00000  Uiso   1.00
H119   H     0.87566   0.20192   0.08631   0.00000  Uiso   1.00
H120   H     0.98488   0.21526   0.43270   0.00000  Uiso   1.00
H121   H     0.78512   0.19930   0.07411   0.00000  Uiso   1.00
H122   H     0.69249   0.23040   0.03390   0.00000  Uiso   1.00
N123   N     0.81160   0.15223   0.23543   0.00000  Uiso   1.00
N124   N     0.85507   0.18110   0.26458   0.00000  Uiso   1.00
N125   N     0.83469   0.08090   0.16868   0.00000  Uiso   1.00
O126   O     0.96435   0.24629   0.25358   0.00000  Uiso   1.00
O127   O     0.72408   0.23704   0.24423   0.00000  Uiso   1.00
O128   O     0.98157   0.17358   0.33380   0.00000  Uiso   1.00
O129   O     0.74130   0.16433   0.32446   0.00000  Uiso   1.00
O130   O     0.94258   0.09629   0.25577   0.00000  Uiso   1.00
O131   O     0.70231   0.08704   0.24642   0.00000  Uiso   1.00
O132   O     0.92537   0.16901   0.17554   0.00000  Uiso   1.00
O133   O     0.68510   0.15976   0.16620   0.00000  Uiso   1.00
Zn134  Zn    0.93786   0.17284   0.25624   0.00000  Uiso   1.00
Zn135  Zn    0.72881   0.16049   0.24376   0.00000  Uiso   1.00
C136   C     0.01482   0.59820   0.24867   0.00000  Uiso   1.00
C137   C     0.05299   0.50100   0.41613   0.00000  Uiso   1.00
C138   C     0.02254   0.65277   0.24794   0.00000  Uiso   1.00
C139   C     0.03531   0.50117   0.35515   0.00000  Uiso   1.00
C140   C     0.31085   0.34726   0.25222   0.00000  Uiso   1.00
C141   C     0.31854   0.40181   0.25139   0.00000  Uiso   1.00
C142   C     0.29746   0.49602   0.14484   0.00000  Uiso   1.00
C143   C     0.26975   0.42882   0.00102   0.00000  Uiso   1.00
C144   C     0.27648   0.48538   0.08490   0.00000  Uiso   1.00
C145   C     0.02445   0.53115   0.45036   0.00000  Uiso   1.00
C146   C     0.04815   0.54094   0.00734   0.00000  Uiso   1.00
C147   C     0.13187   0.49396   0.49514   0.00000  Uiso   1.00
C148   C     0.10197   0.52353   0.02962   0.00000  Uiso   1.00
C149   C     0.15786   0.44678   0.19918   0.00000  Uiso   1.00
C150   C     0.10336   0.47732   0.43993   0.00000  Uiso   1.00
C151   C     0.18927   0.48060   0.01343   0.00000  Uiso   1.00
C152   C     0.21357   0.44375   0.48110   0.00000  Uiso   1.00
C153   C     0.18101   0.42179   0.43004   0.00000  Uiso   1.00
C154   C     0.12654   0.43847   0.40950   0.00000  Uiso   1.00
C155   C     0.22363   0.50395   0.06267   0.00000  Uiso   1.00
C156   C     0.30068   0.44865   0.05375   0.00000  Uiso   1.00
H157   H     0.00856   0.43377   0.07110   0.00000  Uiso   1.00
H158   H     0.10248   0.42028   0.36979   0.00000  Uiso   1.00
H159   H     0.06500   0.33652   0.24386   0.00000  Uiso   1.00
H160   H     0.26840   0.66352   0.25630   0.00000  Uiso   1.00
H161   H     0.17686   0.54227   0.29141   0.00000  Uiso   1.00
H162   H     0.19806   0.39250   0.40546   0.00000  Uiso   1.00
H163   H     0.28857   0.40036   0.47702   0.00000  Uiso   1.00
H164   H     0.20899   0.53526   0.08631   0.00000  Uiso   1.00
H165   H     0.31821   0.54860   0.43270   0.00000  Uiso   1.00
H166   H     0.11846   0.53263   0.07411   0.00000  Uiso   1.00
H167   H     0.02583   0.56373   0.03390   0.00000  Uiso   1.00
N168   N     0.14493   0.48556   0.23543   0.00000  Uiso   1.00
N169   N     0.18840   0.51444   0.26458   0.00000  Uiso   1.00
N170   N     0.16802   0.41423   0.16868   0.00000  Uiso   1.00
O171   O     0.29769   0.57963   0.25358   0.00000  Uiso   1.00
O172   O     0.05742   0.57038   0.24423   0.00000  Uiso   1.00
O173   O     0.31490   0.50691   0.33380   0.00000  Uiso   1.00
O174   O     0.07463   0.49766   0.32446   0.00000  Uiso   1.00
O175   O     0.27592   0.42962   0.25577   0.00000  Uiso   1.00
O176   O     0.03565   0.42037   0.24642   0.00000  Uiso   1.00
O177   O     0.25870   0.50234   0.17554   0.00000  Uiso   1.00
O178   O     0.01843   0.49309   0.16620   0.00000  Uiso   1.00
Zn179  Zn    0.27119   0.50618   0.25624   0.00000  Uiso   1.00
Zn180  Zn    0.06214   0.49382   0.24376   0.00000  Uiso   1.00
C181   C     0.34815   0.59820   0.24867   0.00000  Uiso   1.00
C182   C     0.38632   0.50100   0.41613   0.00000  Uiso   1.00
C183   C     0.35588   0.65277   0.24794   0.00000  Uiso   1.00
C184   C     0.36864   0.50117   0.35515   0.00000  Uiso   1.00
C185   C     0.64418   0.34726   0.25222   0.00000  Uiso   1.00
C186   C     0.65187   0.40181   0.25139   0.00000  Uiso   1.00
C187   C     0.63079   0.49602   0.14484   0.00000  Uiso   1.00
C188   C     0.60308   0.42882   0.00102   0.00000  Uiso   1.00
C189   C     0.60981   0.48538   0.08490   0.00000  Uiso   1.00
C190   C     0.35778   0.53115   0.45036   0.00000  Uiso   1.00
C191   C     0.38149   0.54094   0.00734   0.00000  Uiso   1.00
C192   C     0.46520   0.49396   0.49514   0.00000  Uiso   1.00
C193   C     0.43530   0.52353   0.02962   0.00000  Uiso   1.00
C194   C     0.49119   0.44678   0.19918   0.00000  Uiso   1.00
C195   C     0.43669   0.47732   0.43993   0.00000  Uiso   1.00
C196   C     0.52261   0.48060   0.01343   0.00000  Uiso   1.00
C197   C     0.54690   0.44375   0.48110   0.00000  Uiso   1.00
C198   C     0.51434   0.42179   0.43004   0.00000  Uiso   1.00
C199   C     0.45987   0.43847   0.40950   0.00000  Uiso   1.00
C200   C     0.55696   0.50395   0.06267   0.00000  Uiso   1.00
C201   C     0.63402   0.44865   0.05375   0.00000  Uiso   1.00
H202   H     0.34190   0.43377   0.07110   0.00000  Uiso   1.00
H203   H     0.43581   0.42028   0.36979   0.00000  Uiso   1.00
H204   H     0.39833   0.33652   0.24386   0.00000  Uiso   1.00
H205   H     0.60173   0.66352   0.25630   0.00000  Uiso   1.00
H206   H     0.51020   0.54227   0.29141   0.00000  Uiso   1.00
H207   H     0.53139   0.39250   0.40546   0.00000  Uiso   1.00
H208   H     0.62190   0.40036   0.47702   0.00000  Uiso   1.00
H209   H     0.54233   0.53526   0.08631   0.00000  Uiso   1.00
H210   H     0.65155   0.54860   0.43270   0.00000  Uiso   1.00
H211   H     0.45179   0.53263   0.07411   0.00000  Uiso   1.00
H212   H     0.35916   0.56373   0.03390   0.00000  Uiso   1.00
N213   N     0.47827   0.48556   0.23543   0.00000  Uiso   1.00
N214   N     0.52173   0.51444   0.26458   0.00000  Uiso   1.00
N215   N     0.50136   0.41423   0.16868   0.00000  Uiso   1.00
O216   O     0.63102   0.57963   0.25358   0.00000  Uiso   1.00
O217   O     0.39075   0.57038   0.24423   0.00000  Uiso   1.00
O218   O     0.64823   0.50691   0.33380   0.00000  Uiso   1.00
O219   O     0.40796   0.49766   0.32446   0.00000  Uiso   1.00
O220   O     0.60925   0.42962   0.25577   0.00000  Uiso   1.00
O221   O     0.36898   0.42037   0.24642   0.00000  Uiso   1.00
O222   O     0.59204   0.50234   0.17554   0.00000  Uiso   1.00
O223   O     0.35177   0.49309   0.16620   0.00000  Uiso   1.00
Zn224  Zn    0.60453   0.50618   0.25624   0.00000  Uiso   1.00
Zn225  Zn    0.39547   0.49382   0.24376   0.00000  Uiso   1.00
C226   C     0.68148   0.59820   0.24867   0.00000  Uiso   1.00
C227   C     0.71966   0.50100   0.41613   0.00000  Uiso   1.00
C228   C     0.68921   0.65277   0.24794   0.00000  Uiso   1.00
C229   C     0.70197   0.50117   0.35515   0.00000  Uiso   1.00
C230   C     0.97752   0.34726   0.25222   0.00000  Uiso   1.00
C231   C     0.98520   0.40181   0.25139   0.00000  Uiso   1.00
C232   C     0.96413   0.49602   0.14484   0.00000  Uiso   1.00
C233   C     0.93642   0.42882   0.00102   0.00000  Uiso   1.00
C234   C     0.94315   0.48538   0.08490   0.00000  Uiso   1.00
C235   C     0.69111   0.53115   0.45036   0.00000  Uiso   1.00
C236   C     0.71482   0.54094   0.00734   0.00000  Uiso   1.00
C237   C     0.79854   0.49396   0.49514   0.00000  Uiso   1.00
C238   C     0.76863   0.52353   0.02962   0.00000  Uiso   1.00
C239   C     0.82452   0.44678   0.19918   0.00000  Uiso   1.00
C240   C     0.77003   0.47732   0.43993   0.00000  Uiso   1.00
C241   C     0.85594   0.48060   0.01343   0.00000  Uiso   1.00
C242   C     0.88024   0.44375   0.48110   0.00000  Uiso   1.00
C243   C     0.84767   0.42179   0.43004   0.00000  Uiso   1.00
C244   C     0.79320   0.43847   0.40950   0.00000  Uiso   1.00
C245   C     0.89030   0.50395   0.06267   0.00000  Uiso   1.00
C246   C     0.96735   0.44865   0.05375   0.00000  Uiso   1.00
H247   H     0.67523   0.43377   0.07110   0.00000  Uiso   1.00
H248   H     0.76914   0.42028   0.36979   0.00000  Uiso   1.00
H249   H     0.73167   0.33652   0.24386   0.00000  Uiso   1.00
H250   H     0.93506   0.66352   0.25630   0.00000  Uiso   1.00
H251   H     0.84353   0.54227   0.29141   0.00000  Uiso   1.00
H252   H     0.86473   0.39250   0.40546   0.00000  Uiso   1.00
H253   H     0.95523   0.40036   0.47702   0.00000  Uiso   1.00
H254   H     0.87566   0.53526   0.08631   0.00000  Uiso   1.00
H255   H     0.98488   0.54860   0.43270   0.00000  Uiso   1.00
H256   H     0.78512   0.53263   0.07411   0.00000  Uiso   1.00
H257   H     0.69249   0.56373   0.03390   0.00000  Uiso   1.00
N258   N     0.81160   0.48556   0.23543   0.00000  Uiso   1.00
N259   N     0.85507   0.51444   0.26458   0.00000  Uiso   1.00
N260   N     0.83469   0.41423   0.16868   0.00000  Uiso   1.00
O261   O     0.96435   0.57963   0.25358   0.00000  Uiso   1.00
O262   O     0.72408   0.57038   0.24423   0.00000  Uiso   1.00
O263   O     0.98157   0.50691   0.33380   0.00000  Uiso   1.00
O264   O     0.74130   0.49766   0.32446   0.00000  Uiso   1.00
O265   O     0.94258   0.42962   0.25577   0.00000  Uiso   1.00
O266   O     0.70231   0.42037   0.24642   0.00000  Uiso   1.00
O267   O     0.92537   0.50234   0.17554   0.00000  Uiso   1.00
O268   O     0.68510   0.49309   0.16620   0.00000  Uiso   1.00
Zn269  Zn    0.93786   0.50618   0.25624   0.00000  Uiso   1.00
Zn270  Zn    0.72881   0.49382   0.24376   0.00000  Uiso   1.00
C271   C     0.01482   0.93153   0.24867   0.00000  Uiso   1.00
C272   C     0.05299   0.83434   0.41613   0.00000  Uiso   1.00
C273   C     0.02254   0.98610   0.24794   0.00000  Uiso   1.00
C274   C     0.03531   0.83451   0.35515   0.00000  Uiso   1.00
C275   C     0.31085   0.68059   0.25222   0.00000  Uiso   1.00
C276   C     0.31854   0.73514   0.25139   0.00000  Uiso   1.00
C277   C     0.29746   0.82935   0.14484   0.00000  Uiso   1.00
C278   C     0.26975   0.76216   0.00102   0.00000  Uiso   1.00
C279   C     0.27648   0.81871   0.08490   0.00000  Uiso   1.00
C280   C     0.02445   0.86448   0.45036   0.00000  Uiso   1.00
C281   C     0.04815   0.87427   0.00734   0.00000  Uiso   1.00
C282   C     0.13187   0.82729   0.49514   0.00000  Uiso   1.00
C283   C     0.10197   0.85686   0.02962   0.00000  Uiso   1.00
C284   C     0.15786   0.78011   0.19918   0.00000  Uiso   1.00
C285   C     0.10336   0.81065   0.43993   0.00000  Uiso   1.00
C286   C     0.18927   0.81394   0.01343   0.00000  Uiso   1.00
C287   C     0.21357   0.77708   0.48110   0.00000  Uiso   1.00
C288   C     0.18101   0.75512   0.43004   0.00000  Uiso   1.00
C289   C     0.12654   0.77180   0.40950   0.00000  Uiso   1.00
C290   C     0.22363   0.83728   0.06267   0.00000  Uiso   1.00
C291   C     0.30068   0.78198   0.05375   0.00000  Uiso   1.00
H292   H     0.00856   0.76710   0.07110   0.00000  Uiso   1.00
H293   H     0.10248   0.75361   0.36979   0.00000  Uiso   1.00
H294   H     0.06500   0.66986   0.24386   0.00000  Uiso   1.00
H295   H     0.26840   0.99685   0.25630   0.00000  Uiso   1.00
H296   H     0.17686   0.87561   0.29141   0.00000  Uiso   1.00
H297   H     0.19806   0.72584   0.40546   0.00000  Uiso   1.00
H298   H     0.28857   0.73369   0.47702   0.00000  Uiso   1.00
H299   H     0.20899   0.86859   0.08631   0.00000  Uiso   1.00
H300   H     0.31821   0.88193   0.43270   0.00000  Uiso   1.00
H301   H     0.11846   0.86596   0.07411   0.00000  Uiso   1.00
H302   H     0.02583   0.89706   0.03390   0.00000  Uiso   1.00
N303   N     0.14493   0.81890   0.23543   0.00000  Uiso   1.00
N304   N     0.18840   0.84777   0.26458   0.00000  Uiso   1.00
N305   N     0.16802   0.74756   0.16868   0.00000  Uiso   1.00
O306   O     0.29769   0.91296   0.25358   0.00000  Uiso   1.00
O307   O     0.05742   0.90371   0.24423   0.00000  Uiso   1.00
O308   O     0.31490   0.84024   0.33380   0.00000  Uiso   1.00
O309   O     0.07463   0.83099   0.32446   0.00000  Uiso   1.00
O310   O     0.27592   0.76296   0.25577   0.00000  Uiso   1.00
O311   O     0.03565   0.75371   0.24642   0.00000  Uiso   1.00
O312   O     0.25870   0.83567   0.17554   0.00000  Uiso   1.00
O313   O     0.01843   0.82642   0.16620   0.00000  Uiso   1.00
Zn314  Zn    0.27119   0.83951   0.25624   0.00000  Uiso   1.00
Zn315  Zn    0.06214   0.82716   0.24376   0.00000  Uiso   1.00
C316   C     0.34815   0.93153   0.24867   0.00000  Uiso   1.00
C317   C     0.38632   0.83434   0.41613   0.00000  Uiso   1.00
C318   C     0.35588   0.98610   0.24794   0.00000  Uiso   1.00
C319   C     0.36864   0.83451   0.35515   0.00000  Uiso   1.00
C320   C     0.64418   0.68059   0.25222   0.00000  Uiso   1.00
C321   C     0.65187   0.73514   0.25139   0.00000  Uiso   1.00
C322   C     0.63079   0.82935   0.14484   0.00000  Uiso   1.00
C323   C     0.60308   0.76216   0.00102   0.00000  Uiso   1.00
C324   C     0.60981   0.81871   0.08490   0.00000  Uiso   1.00
C325   C     0.35778   0.86448   0.45036   0.00000  Uiso   1.00
C326   C     0.38149   0.87427   0.00734   0.00000  Uiso   1.00
C327   C     0.46520   0.82729   0.49514   0.00000  Uiso   1.00
C328   C     0.43530   0.85686   0.02962   0.00000  Uiso   1.00
C329   C     0.49119   0.78011   0.19918   0.00000  Uiso   1.00
C330   C     0.43669   0.81065   0.43993   0.00000  Uiso   1.00
C331   C     0.52261   0.81394   0.01343   0.00000  Uiso   1.00
C332   C     0.54690   0.77708   0.48110   0.00000  Uiso   1.00
C333   C     0.51434   0.75512   0.43004   0.00000  Uiso   1.00
C334   C     0.45987   0.77180   0.40950   0.00000  Uiso   1.00
C335   C     0.55696   0.83728   0.06267   0.00000  Uiso   1.00
C336   C     0.63402   0.78198   0.05375   0.00000  Uiso   1.00
H337   H     0.34190   0.76710   0.07110   0.00000  Uiso   1.00
H338   H     0.43581   0.75361   0.36979   0.00000  Uiso   1.00
H339   H     0.39833   0.66986   0.24386   0.00000  Uiso   1.00
H340   H     0.60173   0.99685   0.25630   0.00000  Uiso   1.00
H341   H     0.51020   0.87561   0.29141   0.00000  Uiso   1.00
H342   H     0.53139   0.72584   0.40546   0.00000  Uiso   1.00
H343   H     0.62190   0.73369   0.47702   0.00000  Uiso   1.00
H344   H     0.54233   0.86859   0.08631   0.00000  Uiso   1.00
H345   H     0.65155   0.88193   0.43270   0.00000  Uiso   1.00
H346   H     0.45179   0.86596   0.07411   0.00000  Uiso   1.00
H347   H     0.35916   0.89706   0.03390   0.00000  Uiso   1.00
N348   N     0.47827   0.81890   0.23543   0.00000  Uiso   1.00
N349   N     0.52173   0.84777   0.26458   0.00000  Uiso   1.00
N350   N     0.50136   0.74756   0.16868   0.00000  Uiso   1.00
O351   O     0.63102   0.91296   0.25358   0.00000  Uiso   1.00
O352   O     0.39075   0.90371   0.24423   0.00000  Uiso   1.00
O353   O     0.64823   0.84024   0.33380   0.00000  Uiso   1.00
O354   O     0.40796   0.83099   0.32446   0.00000  Uiso   1.00
O355   O     0.60925   0.76296   0.25577   0.00000  Uiso   1.00
O356   O     0.36898   0.75371   0.24642   0.00000  Uiso   1.00
O357   O     0.59204   0.83567   0.17554   0.00000  Uiso   1.00
O358   O     0.35177   0.82642   0.16620   0.00000  Uiso   1.00
Zn359  Zn    0.60453   0.83951   0.25624   0.00000  Uiso   1.00
Zn360  Zn    0.39547   0.82716   0.24376   0.00000  Uiso   1.00
C361   C     0.68148   0.93153   0.24867   0.00000  Uiso   1.00
C362   C     0.71966   0.83434   0.41613   0.00000  Uiso   1.00
C363   C     0.68921   0.98610   0.24794   0.00000  Uiso   1.00
C364   C     0.70197   0.83451   0.35515   0.00000  Uiso   1.00
C365   C     0.97752   0.68059   0.25222   0.00000  Uiso   1.00
C366   C     0.98520   0.73514   0.25139   0.00000  Uiso   1.00
C367   C     0.96413   0.82935   0.14484   0.00000  Uiso   1.00
C368   C     0.93642   0.76216   0.00102   0.00000  Uiso   1.00
C369   C     0.94315   0.81871   0.08490   0.00000  Uiso   1.00
C370   C     0.69111   0.86448   0.45036   0.00000  Uiso   1.00
C371   C     0.71482   0.87427   0.00734   0.00000  Uiso   1.00
C372   C     0.79854   0.82729   0.49514   0.00000  Uiso   1.00
C373   C     0.76863   0.85686   0.02962   0.00000  Uiso   1.00
C374   C     0.82452   0.78011   0.19918   0.00000  Uiso   1.00
C375   C     0.77003   0.81065   0.43993   0.00000  Uiso   1.00
C376   C     0.85594   0.81394   0.01343   0.00000  Uiso   1.00
C377   C     0.88024   0.77708   0.48110   0.00000  Uiso   1.00
C378   C     0.84767   0.75512   0.43004   0.00000  Uiso   1.00
C379   C     0.79320   0.77180   0.40950   0.00000  Uiso   1.00
C380   C     0.89030   0.83728   0.06267   0.00000  Uiso   1.00
C381   C     0.96735   0.78198   0.05375   0.00000  Uiso   1.00
H382   H     0.67523   0.76710   0.07110   0.00000  Uiso   1.00
H383   H     0.76914   0.75361   0.36979   0.00000  Uiso   1.00
H384   H     0.73167   0.66986   0.24386   0.00000  Uiso   1.00
H385   H     0.93506   0.99685   0.25630   0.00000  Uiso   1.00
H386   H     0.84353   0.87561   0.29141   0.00000  Uiso   1.00
H387   H     0.86473   0.72584   0.40546   0.00000  Uiso   1.00
H388   H     0.95523   0.73369   0.47702   0.00000  Uiso   1.00
H389   H     0.87566   0.86859   0.08631   0.00000  Uiso   1.00
H390   H     0.98488   0.88193   0.43270   0.00000  Uiso   1.00
H391   H     0.78512   0.86596   0.07411   0.00000  Uiso   1.00
H392   H     0.69249   0.89706   0.03390   0.00000  Uiso   1.00
N393   N     0.81160   0.81890   0.23543   0.00000  Uiso   1.00
N394   N     0.85507   0.84777   0.26458   0.00000  Uiso   1.00
N395   N     0.83469   0.74756   0.16868   0.00000  Uiso   1.00
O396   O     0.96435   0.91296   0.25358   0.00000  Uiso   1.00
O397   O     0.72408   0.90371   0.24423   0.00000  Uiso   1.00
O398   O     0.98157   0.84024   0.33380   0.00000  Uiso   1.00
O399   O     0.74130   0.83099   0.32446   0.00000  Uiso   1.00
O400   O     0.94258   0.76296   0.25577   0.00000  Uiso   1.00
O401   O     0.70231   0.75371   0.24642   0.00000  Uiso   1.00
O402   O     0.92537   0.83567   0.17554   0.00000  Uiso   1.00
O403   O     0.68510   0.82642   0.16620   0.00000  Uiso   1.00
Zn404  Zn    0.93786   0.83951   0.25624   0.00000  Uiso   1.00
Zn405  Zn    0.72881   0.82716   0.24376   0.00000  Uiso   1.00
C406   C     0.01482   0.26487   0.74867   0.00000  Uiso   1.00
C407   C     0.05299   0.16767   0.91613   0.00000  Uiso   1.00
C408   C     0.02254   0.31944   0.74794   0.00000  Uiso   1.00
C409   C     0.03531   0.16784   0.85515   0.00000  Uiso   1.00
C410   C     0.31085   0.01392   0.75222   0.00000  Uiso   1.00
C411   C     0.31854   0.06847   0.75139   0.00000  Uiso   1.00
C412   C     0.29746   0.16269   0.64484   0.00000  Uiso   1.00
C413   C     0.26975   0.09549   0.50102   0.00000  Uiso   1.00
C414   C     0.27648   0.15204   0.58490   0.00000  Uiso   1.00
C415   C     0.02445   0.19782   0.95036   0.00000  Uiso   1.00
C416   C     0.04815   0.20760   0.50734   0.00000  Uiso   1.00
C417   C     0.13187   0.16062   0.99514   0.00000  Uiso   1.00
C418   C     0.10197   0.19020   0.52962   0.00000  Uiso   1.00
C419   C     0.15786   0.11345   0.69918   0.00000  Uiso   1.00
C420   C     0.10336   0.14398   0.93993   0.00000  Uiso   1.00
C421   C     0.18927   0.14727   0.51343   0.00000  Uiso   1.00
C422   C     0.21357   0.11041   0.98110   0.00000  Uiso   1.00
C423   C     0.18101   0.08846   0.93004   0.00000  Uiso   1.00
C424   C     0.12654   0.10514   0.90950   0.00000  Uiso   1.00
C425   C     0.22363   0.17061   0.56267   0.00000  Uiso   1.00
C426   C     0.30068   0.11532   0.55375   0.00000  Uiso   1.00
H427   H     0.00856   0.10043   0.57110   0.00000  Uiso   1.00
H428   H     0.10248   0.08695   0.86979   0.00000  Uiso   1.00
H429   H     0.06500   0.00319   0.74386   0.00000  Uiso   1.00
H430   H     0.26840   0.33019   0.75630   0.00000  Uiso   1.00
H431   H     0.17686   0.20894   0.79141   0.00000  Uiso   1.00
H432   H     0.19806   0.05917   0.90546   0.00000  Uiso   1.00
H433   H     0.28857   0.06703   0.97702   0.00000  Uiso   1.00
H434   H     0.20899   0.20192   0.58631   0.00000  Uiso   1.00
H435   H     0.31821   0.21526   0.93270   0.00000  Uiso   1.00
H436   H     0.11846   0.19930   0.57411   0.00000  Uiso   1.00
H437   H     0.02583   0.23040   0.53390   0.00000  Uiso   1.00
N438   N     0.14493   0.15223   0.73543   0.00000  Uiso   1.00
N439   N     0.18840   0.18110   0.76458   0.00000  Uiso   1.00
N440   N     0.16802   0.08090   0.66868   0.00000  Uiso   1.00
O441   O     0.29769   0.24629   0.75358   0.00000  Uiso   1.00
O442   O     0.05742   0.23704   0.74423   0.00000  Uiso   1.00
O443   O     0.31490   0.17358   0.83380   0.00000  Uiso   1.00
O444   O     0.07463   0.16433   0.82446   0.00000  Uiso   1.00
O445   O     0.27592   0.09629   0.75577   0.00000  Uiso   1.00
O446   O     0.03565   0.08704   0.74642   0.00000  Uiso   1.00
O447   O     0.25870   0.16901   0.67554   0.00000  Uiso   1.00
O448   O     0.01843   0.15976   0.66620   0.00000  Uiso   1.00
Zn449  Zn    0.27119   0.17284   0.75624   0.00000  Uiso   1.00
Zn450  Zn    0.06214   0.16049   0.74376   0.00000  Uiso   1.00
C451   C     0.34815   0.26487   0.74867   0.00000  Uiso   1.00
C452   C     0.38632   0.16767   0.91613   0.00000  Uiso   1.00
C453   C     0.35588   0.31944   0.74794   0.00000  Uiso   1.00
C454   C     0.36864   0.16784   0.85515   0.00000  Uiso   1.00
C455   C     0.64418   0.01392   0.75222   0.00000  Uiso   1.00
C456   C     0.65187   0.06847   0.75139   0.00000  Uiso   1.00
C457   C     0.63079   0.16269   0.64484   0.00000  Uiso   1.00
C458   C     0.60308   0.09549   0.50102   0.00000  Uiso   1.00
C459   C     0.60981   0.15204   0.58490   0.00000  Uiso   1.00
C460   C     0.35778   0.19782   0.95036   0.00000  Uiso   1.00
C461   C     0.38149   0.20760   0.50734   0.00000  Uiso   1.00
C462   C     0.46520   0.16062   0.99514   0.00000  Uiso   1.00
C463   C     0.43530   0.19020   0.52962   0.00000  Uiso   1.00
C464   C     0.49119   0.11345   0.69918   0.00000  Uiso   1.00
C465   C     0.43669   0.14398   0.93993   0.00000  Uiso   1.00
C466   C     0.52261   0.14727   0.51343   0.00000  Uiso   1.00
C467   C     0.54690   0.11041   0.98110   0.00000  Uiso   1.00
C468   C     0.51434   0.08846   0.93004   0.00000  Uiso   1.00
C469   C     0.45987   0.10514   0.90950   0.00000  Uiso   1.00
C470   C     0.55696   0.17061   0.56267   0.00000  Uiso   1.00
C471   C     0.63402   0.11532   0.55375   0.00000  Uiso   1.00
H472   H     0.34190   0.10043   0.57110   0.00000  Uiso   1.00
H473   H     0.43581   0.08695   0.86979   0.00000  Uiso   1.00
H474   H     0.39833   0.00319   0.74386   0.00000  Uiso   1.00
H475   H     0.60173   0.33019   0.75630   0.00000  Uiso   1.00
H476   H     0.51020   0.20894   0.79141   0.00000  Uiso   1.00
H477   H     0.53139   0.05917   0.90546   0.00000  Uiso   1.00
H478   H     0.62190   0.06703   0.97702   0.00000  Uiso   1.00
H479   H     0.54233   0.20192   0.58631   0.00000  Uiso   1.00
H480   H     0.65155   0.21526   0.93270   0.00000  Uiso   1.00
H481   H     0.45179   0.19930   0.57411   0.00000  Uiso   1.00
H482   H     0.35916   0.23040   0.53390   0.00000  Uiso   1.00
N483   N     0.47827   0.15223   0.73543   0.00000  Uiso   1.00
N484   N     0.52173   0.18110   0.76458   0.00000  Uiso   1.00
N485   N     0.50136   0.08090   0.66868   0.00000  Uiso   1.00
O486   O     0.63102   0.24629   0.75358   0.00000  Uiso   1.00
O487   O     0.39075   0.23704   0.74423   0.00000  Uiso   1.00
O488   O     0.64823   0.17358   0.83380   0.00000  Uiso   1.00
O489   O     0.40796   0.16433   0.82446   0.00000  Uiso   1.00
O490   O     0.60925   0.09629   0.75577   0.00000  Uiso   1.00
O491   O     0.36898   0.08704   0.74642   0.00000  Uiso   1.00
O492   O     0.59204   0.16901   0.67554   0.00000  Uiso   1.00
O493   O     0.35177   0.15976   0.66620   0.00000  Uiso   1.00
Zn494  Zn    0.60453   0.17284   0.75624   0.00000  Uiso   1.00
Zn495  Zn    0.39547   0.16049   0.74376   0.00000  Uiso   1.00
C496   C     0.68148   0.26487   0.74867   0.00000  Uiso   1.00
C497   C     0.71966   0.16767   0.91613   0.00000  Uiso   1.00
C498   C     0.68921   0.31944   0.74794   0.00000  Uiso   1.00
C499   C     0.70197   0.16784   0.85515   0.00000  Uiso   1.00
C500   C     0.97752   0.01392   0.75222   0.00000  Uiso   1.00
C501   C     0.98520   0.06847   0.75139   0.00000  Uiso   1.00
C502   C     0.96413   0.16269   0.64484   0.00000  Uiso   1.00
C503   C     0.93642   0.09549   0.50102   0.00000  Uiso   1.00
C504   C     0.94315   0.15204   0.58490   0.00000  Uiso   1.00
C505   C     0.69111   0.19782   0.95036   0.00000  Uiso   1.00
C506   C     0.71482   0.20760   0.50734   0.00000  Uiso   1.00
C507   C     0.79854   0.16062   0.99514   0.00000  Uiso   1.00
C508   C     0.76863   0.19020   0.52962   0.00000  Uiso   1.00
C509   C     0.82452   0.11345   0.69918   0.00000  Uiso   1.00
C510   C     0.77003   0.14398   0.93993   0.00000  Uiso   1.00
C511   C     0.85594   0.14727   0.51343   0.00000  Uiso   1.00
C512   C     0.88024   0.11041   0.98110   0.00000  Uiso   1.00
C513   C     0.84767   0.08846   0.93004   0.00000  Uiso   1.00
C514   C     0.79320   0.10514   0.90950   0.00000  Uiso   1.00
C515   C     0.89030   0.17061   0.56267   0.00000  Uiso   1.00
C516   C     0.96735   0.11532   0.55375   0.00000  Uiso   1.00
H517   H     0.67523   0.10043   0.57110   0.00000  Uiso   1.00
H518   H     0.76914   0.08695   0.86979   0.00000  Uiso   1.00
H519   H     0.73167   0.00319   0.74386   0.00000  Uiso   1.00
H520   H     0.93506   0.33019   0.75630   0.00000  Uiso   1.00
H521   H     0.84353   0.20894   0.79141   0.00000  Uiso   1.00
H522   H     0.86473   0.05917   0.90546   0.00000  Uiso   1.00
H523   H     0.95523   0.06703   0.97702   0.00000  Uiso   1.00
H524   H     0.87566   0.20192   0.58631   0.00000  Uiso   1.00
H525   H     0.98488   0.21526   0.93270   0.00000  Uiso   1.00
H526   H     0.78512   0.19930   0.57411   0.00000  Uiso   1.00
H527   H     0.69249   0.23040   0.53390   0.00000  Uiso   1.00
N528   N     0.81160   0.15223   0.73543   0.00000  Uiso   1.00
N529   N     0.85507   0.18110   0.76458   0.00000  Uiso   1.00
N530   N     0.83469   0.08090   0.66868   0.00000  Uiso   1.00
O531   O     0.96435   0.24629   0.75358   0.00000  Uiso   1.00
O532   O     0.72408   0.23704   0.74423   0.00000  Uiso   1.00
O533   O     0.98157   0.17358   0.83380   0.00000  Uiso   1.00
O534   O     0.74130   0.16433   0.82446   0.00000  Uiso   1.00
O535   O     0.94258   0.09629   0.75577   0.00000  Uiso   1.00
O536   O     0.70231   0.08704   0.74642   0.00000  Uiso   1.00
O537   O     0.92537   0.16901   0.67554   0.00000  Uiso   1.00
O538   O     0.68510   0.15976   0.66620   0.00000  Uiso   1.00
Zn539  Zn    0.93786   0.17284   0.75624   0.00000  Uiso   1.00
Zn540  Zn    0.72881   0.16049   0.74376   0.00000  Uiso   1.00
C541   C     0.01482   0.59820   0.74867   0.00000  Uiso   1.00
C542   C     0.05299   0.50100   0.91613   0.00000  Uiso   1.00
C543   C     0.02254   0.65277   0.74794   0.00000  Uiso   1.00
C544   C     0.03531   0.50117   0.85515   0.00000  Uiso   1.00
C545   C     0.31085   0.34726   0.75222   0.00000  Uiso   1.00
C546   C     0.31854   0.40181   0.75139   0.00000  Uiso   1.00
C547   C     0.29746   0.49602   0.64484   0.00000  Uiso   1.00
C548   C     0.26975   0.42882   0.50102   0.00000  Uiso   1.00
C549   C     0.27648   0.48538   0.58490   0.00000  Uiso   1.00
C550   C     0.02445   0.53115   0.95036   0.00000  Uiso   1.00
C551   C     0.04815   0.54094   0.50734   0.00000  Uiso   1.00
C552   C     0.13187   0.49396   0.99514   0.00000  Uiso   1.00
C553   C     0.10197   0.52353   0.52962   0.00000  Uiso   1.00
C554   C     0.15786   0.44678   0.69918   0.00000  Uiso   1.00
C555   C     0.10336   0.47732   0.93993   0.00000  Uiso   1.00
C556   C     0.18927   0.48060   0.51343   0.00000  Uiso   1.00
C557   C     0.21357   0.44375   0.98110   0.00000  Uiso   1.00
C558   C     0.18101   0.42179   0.93004   0.00000  Uiso   1.00
C559   C     0.12654   0.43847   0.90950   0.00000  Uiso   1.00
C560   C     0.22363   0.50395   0.56267   0.00000  Uiso   1.00
C561   C     0.30068   0.44865   0.55375   0.00000  Uiso   1.00
H562   H     0.00856   0.43377   0.57110   0.00000  Uiso   1.00
H563   H     0.10248   0.42028   0.86979   0.00000  Uiso   1.00
H564   H     0.06500   0.33652   0.74386   0.00000  Uiso   1.00
H565   H     0.26840   0.66352   0.75630   0.00000  Uiso   1.00
H566   H     0.17686   0.54227   0.79141   0.00000  Uiso   1.00
H567   H     0.19806   0.39250   0.90546   0.00000  Uiso   1.00
H568   H     0.28857   0.40036   0.97702   0.00000  Uiso   1.00
H569   H     0.20899   0.53526   0.58631   0.00000  Uiso   1.00
H570   H     0.31821   0.54860   0.93270   0.00000  Uiso   1.00
H571   H     0.11846   0.53263   0.57411   0.00000  Uiso   1.00
H572   H     0.02583   0.56373   0.53390   0.00000  Uiso   1.00
N573   N     0.14493   0.48556   0.73543   0.00000  Uiso   1.00
N574   N     0.18840   0.51444   0.76458   0.00000  Uiso   1.00
N575   N     0.16802   0.41423   0.66868   0.00000  Uiso   1.00
O576   O     0.29769   0.57963   0.75358   0.00000  Uiso   1.00
O577   O     0.05742   0.57038   0.74423   0.00000  Uiso   1.00
O578   O     0.31490   0.50691   0.83380   0.00000  Uiso   1.00
O579   O     0.07463   0.49766   0.82446   0.00000  Uiso   1.00
O580   O     0.27592   0.42962   0.75577   0.00000  Uiso   1.00
O581   O     0.03565   0.42037   0.74642   0.00000  Uiso   1.00
O582   O     0.25870   0.50234   0.67554   0.00000  Uiso   1.00
O583   O     0.01843   0.49309   0.66620   0.00000  Uiso   1.00
Zn584  Zn    0.27119   0.50618   0.75624   0.00000  Uiso   1.00
Zn585  Zn    0.06214   0.49382   0.74376   0.00000  Uiso   1.00
C586   C     0.34815   0.59820   0.74867   0.00000  Uiso   1.00
C587   C     0.38632   0.50100   0.91613   0.00000  Uiso   1.00
C588   C     0.35588   0.65277   0.74794   0.00000  Uiso   1.00
C589   C     0.36864   0.50117   0.85515   0.00000  Uiso   1.00
C590   C     0.64418   0.34726   0.75222   0.00000  Uiso   1.00
C591   C     0.65187   0.40181   0.75139   0.00000  Uiso   1.00
C592   C     0.63079   0.49602   0.64484   0.00000  Uiso   1.00
C593   C     0.60308   0.42882   0.50102   0.00000  Uiso   1.00
C594   C     0.60981   0.48538   0.58490   0.00000  Uiso   1.00
C595   C     0.35778   0.53115   0.95036   0.00000  Uiso   1.00
C596   C     0.38149   0.54094   0.50734   0.00000  Uiso   1.00
C597   C     0.46520   0.49396   0.99514   0.00000  Uiso   1.00
C598   C     0.43530   0.52353   0.52962   0.00000  Uiso   1.00
C599   C     0.49119   0.44678   0.69918   0.00000  Uiso   1.00
C600   C     0.43669   0.47732   0.93993   0.00000  Uiso   1.00
C601   C     0.52261   0.48060   0.51343   0.00000  Uiso   1.00
C602   C     0.54690   0.44375   0.98110   0.00000  Uiso   1.00
C603   C     0.51434   0.42179   0.93004   0.00000  Uiso   1.00
C604   C     0.45987   0.43847   0.90950   0.00000  Uiso   1.00
C605   C     0.55696   0.50395   0.56267   0.00000  Uiso   1.00
C606   C     0.63402   0.44865   0.55375   0.00000  Uiso   1.00
H607   H     0.34190   0.43377   0.57110   0.00000  Uiso   1.00
H608   H     0.43581   0.42028   0.86979   0.00000  Uiso   1.00
H609   H     0.39833   0.33652   0.74386   0.00000  Uiso   1.00
H610   H     0.60173   0.66352   0.75630   0.00000  Uiso   1.00
H611   H     0.51020   0.54227   0.79141   0.00000  Uiso   1.00
H612   H     0.53139   0.39250   0.90546   0.00000  Uiso   1.00
H613   H     0.62190   0.40036   0.97702   0.00000  Uiso   1.00
H614   H     0.54233   0.53526   0.58631   0.00000  Uiso   1.00
H615   H     0.65155   0.54860   0.93270   0.00000  Uiso   1.00
H616   H     0.45179   0.53263   0.57411   0.00000  Uiso   1.00
H617   H     0.35916   0.56373   0.53390   0.00000  Uiso   1.00
N618   N     0.47827   0.48556   0.73543   0.00000  Uiso   1.00
N619   N     0.52173   0.51444   0.76458   0.00000  Uiso   1.00
N620   N     0.50136   0.41423   0.66868   0.00000  Uiso   1.00
O621   O     0.63102   0.57963   0.75358   0.00000  Uiso   1.00
O622   O     0.39075   0.57038   0.74423   0.00000  Uiso   1.00
O623   O     0.64823   0.50691   0.83380   0.00000  Uiso   1.00
O624   O     0.40796   0.49766   0.82446   0.00000  Uiso   1.00
O625   O     0.60925   0.42962   0.75577   0.00000  Uiso   1.00
O626   O     0.36898   0.42037   0.74642   0.00000  Uiso   1.00
O627   O     0.59204   0.50234   0.67554   0.00000  Uiso   1.00
O628   O     0.35177   0.49309   0.66620   0.00000  Uiso   1.00
Zn629  Zn    0.60453   0.50618   0.75624   0.00000  Uiso   1.00
Zn630  Zn    0.39547   0.49382   0.74376   0.00000  Uiso   1.00
C631   C     0.68148   0.59820   0.74867   0.00000  Uiso   1.00
C632   C     0.71966   0.50100   0.91613   0.00000  Uiso   1.00
C633   C     0.68921   0.65277   0.74794   0.00000  Uiso   1.00
C634   C     0.70197   0.50117   0.85515   0.00000  Uiso   1.00
C635   C     0.97752   0.34726   0.75222   0.00000  Uiso   1.00
C636   C     0.98520   0.40181   0.75139   0.00000  Uiso   1.00
C637   C     0.96413   0.49602   0.64484   0.00000  Uiso   1.00
C638   C     0.93642   0.42882   0.50102   0.00000  Uiso   1.00
C639   C     0.94315   0.48538   0.58490   0.00000  Uiso   1.00
C640   C     0.69111   0.53115   0.95036   0.00000  Uiso   1.00
C641   C     0.71482   0.54094   0.50734   0.00000  Uiso   1.00
C642   C     0.79854   0.49396   0.99514   0.00000  Uiso   1.00
C643   C     0.76863   0.52353   0.52962   0.00000  Uiso   1.00
C644   C     0.82452   0.44678   0.69918   0.00000  Uiso   1.00
C645   C     0.77003   0.47732   0.93993   0.00000  Uiso   1.00
C646   C     0.85594   0.48060   0.51343   0.00000  Uiso   1.00
C647   C     0.88024   0.44375   0.98110   0.00000  Uiso   1.00
C648   C     0.84767   0.42179   0.93004   0.00000  Uiso   1.00
C649   C     0.79320   0.43847   0.90950   0.00000  Uiso   1.00
C650   C     0.89030   0.50395   0.56267   0.00000  Uiso   1.00
C651   C     0.96735   0.44865   0.55375   0.00000  Uiso   1.00
H652   H     0.67523   0.43377   0.57110   0.00000  Uiso   1.00
H653   H     0.76914   0.42028   0.86979   0.00000  Uiso   1.00
H654   H     0.73167   0.33652   0.74386   0.00000  Uiso   1.00
H655   H     0.93506   0.66352   0.75630   0.00000  Uiso   1.00
H656   H     0.84353   0.54227   0.79141   0.00000  Uiso   1.00
H657   H     0.86473   0.39250   0.90546   0.00000  Uiso   1.00
H658   H     0.95523   0.40036   0.97702   0.00000  Uiso   1.00
H659   H     0.87566   0.53526   0.58631   0.00000  Uiso   1.00
H660   H     0.98488   0.54860   0.93270   0.00000  Uiso   1.00
H661   H     0.78512   0.53263   0.57411   0.00000  Uiso   1.00
H662   H     0.69249   0.56373   0.53390   0.00000  Uiso   1.00
N663   N     0.81160   0.48556   0.73543   0.00000  Uiso   1.00
N664   N     0.85507   0.51444   0.76458   0.00000  Uiso   1.00
N665   N     0.83469   0.41423   0.66868   0.00000  Uiso   1.00
O666   O     0.96435   0.57963   0.75358   0.00000  Uiso   1.00
O667   O     0.72408   0.57038   0.74423   0.00000  Uiso   1.00
O668   O     0.98157   0.50691   0.83380   0.00000  Uiso   1.00
O669   O     0.74130   0.49766   0.82446   0.00000  Uiso   1.00
O670   O     0.94258   0.42962   0.75577   0.00000  Uiso   1.00
O671   O     0.70231   0.42037   0.74642   0.00000  Uiso   1.00
O672   O     0.92537   0.50234   0.67554   0.00000  Uiso   1.00
O673   O     0.68510   0.49309   0.66620   0.00000  Uiso   1.00
Zn674  Zn    0.93786   0.50618   0.75624   0.00000  Uiso   1.00
Zn675  Zn    0.72881   0.49382   0.74376   0.00000  Uiso   1.00
C676   C     0.01482   0.93153   0.74867   0.00000  Uiso   1.00
C677   C     0.05299   0.83434   0.91613   0.00000  Uiso   1.00
C678   C     0.02254   0.98610   0.74794   0.00000  Uiso   1.00
C679   C     0.03531   0.83451   0.85515   0.00000  Uiso   1.00
C680   C     0.31085   0.68059   0.75222   0.00000  Uiso   1.00
C681   C     0.31854   0.73514   0.75139   0.00000  Uiso   1.00
C682   C     0.29746   0.82935   0.64484   0.00000  Uiso   1.00
C683   C     0.26975   0.76216   0.50102   0.00000  Uiso   1.00
C684   C     0.27648   0.81871   0.58490   0.00000  Uiso   1.00
C685   C     0.02445   0.86448   0.95036   0.00000  Uiso   1.00
C686   C     0.04815   0.87427   0.50734   0.00000  Uiso   1.00
C687   C     0.13187   0.82729   0.99514   0.00000  Uiso   1.00
C688   C     0.10197   0.85686   0.52962   0.00000  Uiso   1.00
C689   C     0.15786   0.78011   0.69918   0.00000  Uiso   1.00
C690   C     0.10336   0.81065   0.93993   0.00000  Uiso   1.00
C691   C     0.18927   0.81394   0.51343   0.00000  Uiso   1.00
C692   C     0.21357   0.77708   0.98110   0.00000  Uiso   1.00
C693   C     0.18101   0.75512   0.93004   0.00000  Uiso   1.00
C694   C     0.12654   0.77180   0.90950   0.00000  Uiso   1.00
C695   C     0.22363   0.83728   0.56267   0.00000  Uiso   1.00
C696   C     0.30068   0.78198   0.55375   0.00000  Uiso   1.00
H697   H     0.00856   0.76710   0.57110   0.00000  Uiso   1.00
H698   H     0.10248   0.75361   0.86979   0.00000  Uiso   1.00
H699   H     0.06500   0.66986   0.74386   0.00000  Uiso   1.00
H700   H     0.26840   0.99685   0.75630   0.00000  Uiso   1.00
H701   H     0.17686   0.87561   0.79141   0.00000  Uiso   1.00
H702   H     0.19806   0.72584   0.90546   0.00000  Uiso   1.00
H703   H     0.28857   0.73369   0.97702   0.00000  Uiso   1.00
H704   H     0.20899   0.86859   0.58631   0.00000  Uiso   1.00
H705   H     0.31821   0.88193   0.93270   0.00000  Uiso   1.00
H706   H     0.11846   0.86596   0.57411   0.00000  Uiso   1.00
H707   H     0.02583   0.89706   0.53390   0.00000  Uiso   1.00
N708   N     0.14493   0.81890   0.73543   0.00000  Uiso   1.00
N709   N     0.18840   0.84777   0.76458   0.00000  Uiso   1.00
N710   N     0.16802   0.74756   0.66868   0.00000  Uiso   1.00
O711   O     0.29769   0.91296   0.75358   0.00000  Uiso   1.00
O712   O     0.05742   0.90371   0.74423   0.00000  Uiso   1.00
O713   O     0.31490   0.84024   0.83380   0.00000  Uiso   1.00
O714   O     0.07463   0.83099   0.82446   0.00000  Uiso   1.00
O715   O     0.27592   0.76296   0.75577   0.00000  Uiso   1.00
O716   O     0.03565   0.75371   0.74642   0.00000  Uiso   1.00
O717   O     0.25870   0.83567   0.67554   0.00000  Uiso   1.00
O718   O     0.01843   0.82642   0.66620   0.00000  Uiso   1.00
Zn719  Zn    0.27119   0.83951   0.75624   0.00000  Uiso   1.00
Zn720  Zn    0.06214   0.82716   0.74376   0.00000  Uiso   1.00
C721   C     0.34815   0.93153   0.74867   0.00000  Uiso   1.00
C722   C     0.38632   0.83434   0.91613   0.00000  Uiso   1.00
C723   C     0.35588   0.98610   0.74794   0.00000  Uiso   1.00
C724   C     0.36864   0.83451   0.85515   0.00000  Uiso   1.00
C725   C     0.64418   0.68059   0.75222   0.00000  Uiso   1.00
C726   C     0.65187   0.73514   0.75139   0.00000  Uiso   1.00
C727   C     0.63079   0.82935   0.64484   0.00000  Uiso   1.00
C728   C     0.60308   0.76216   0.50102   0.00000  Uiso   1.00
C729   C     0.60981   0.81871   0.58490   0.00000  Uiso   1.00
C730   C     0.35778   0.86448   0.95036   0.00000  Uiso   1.00
C731   C     0.38149   0.87427   0.50734   0.00000  Uiso   1.00
C732   C     0.46520   0.82729   0.99514   0.00000  Uiso   1.00
C733   C     0.43530   0.85686   0.52962   0.00000  Uiso   1.00
C734   C     0.49119   0.78011   0.69918   0.00000  Uiso   1.00
C735   C     0.43669   0.81065   0.93993   0.00000  Uiso   1.00
C736   C     0.52261   0.81394   0.51343   0.00000  Uiso   1.00
C737   C     0.54690   0.77708   0.98110   0.00000  Uiso   1.00
C738   C     0.51434   0.75512   0.93004   0.00000  Uiso   1.00
C739   C     0.45987   0.77180   0.90950   0.00000  Uiso   1.00
C740   C     0.55696   0.83728   0.56267   0.00000  Uiso   1.00
C741   C     0.63402   0.78198   0.55375   0.00000  Uiso   1.00
H742   H     0.34190   0.76710   0.57110   0.00000  Uiso   1.00
H743   H     0.43581   0.75361   0.86979   0.00000  Uiso   1.00
H744   H     0.39833   0.66986   0.74386   0.00000  Uiso   1.00
H745   H     0.60173   0.99685   0.75630   0.00000  Uiso   1.00
H746   H     0.51020   0.87561   0.79141   0.00000  Uiso   1.00
H747   H     0.53139   0.72584   0.90546   0.00000  Uiso   1.00
H748   H     0.62190   0.73369   0.97702   0.00000  Uiso   1.00
H749   H     0.54233   0.86859   0.58631   0.00000  Uiso   1.00
H750   H     0.65155   0.88193   0.93270   0.00000  Uiso   1.00
H751   H     0.45179   0.86596   0.57411   0.00000  Uiso   1.00
H752   H     0.35916   0.89706   0.53390   0.00000  Uiso   1.00
N753   N     0.47827   0.81890   0.73543   0.00000  Uiso   1.00
N754   N     0.52173   0.84777   0.76458   0.00000  Uiso   1.00
N755   N     0.50136   0.74756   0.66868   0.00000  Uiso   1.00
O756   O     0.63102   0.91296   0.75358   0.00000  Uiso   1.00
O757   O     0.39075   0.90371   0.74423   0.00000  Uiso   1.00
O758   O     0.64823   0.84024   0.83380   0.00000  Uiso   1.00
O759   O     0.40796   0.83099   0.82446   0.00000  Uiso   1.00
O760   O     0.60925   0.76296   0.75577   0.00000  Uiso   1.00
O761   O     0.36898   0.75371   0.74642   0.00000  Uiso   1.00
O762   O     0.59204   0.83567   0.67554   0.00000  Uiso   1.00
O763   O     0.35177   0.82642   0.66620   0.00000  Uiso   1.00
Zn764  Zn    0.60453   0.83951   0.75624   0.00000  Uiso   1.00
Zn765  Zn    0.39547   0.82716   0.74376   0.00000  Uiso   1.00
C766   C     0.68148   0.93153   0.74867   0.00000  Uiso   1.00
C767   C     0.71966   0.83434   0.91613   0.00000  Uiso   1.00
C768   C     0.68921   0.98610   0.74794   0.00000  Uiso   1.00
C769   C     0.70197   0.83451   0.85515   0.00000  Uiso   1.00
C770   C     0.97752   0.68059   0.75222   0.00000  Uiso   1.00
C771   C     0.98520   0.73514   0.75139   0.00000  Uiso   1.00
C772   C     0.96413   0.82935   0.64484   0.00000  Uiso   1.00
C773   C     0.93642   0.76216   0.50102   0.00000  Uiso   1.00
C774   C     0.94315   0.81871   0.58490   0.00000  Uiso   1.00
C775   C     0.69111   0.86448   0.95036   0.00000  Uiso   1.00
C776   C     0.71482   0.87427   0.50734   0.00000  Uiso   1.00
C777   C     0.79854   0.82729   0.99514   0.00000  Uiso   1.00
C778   C     0.76863   0.85686   0.52962   0.00000  Uiso   1.00
C779   C     0.82452   0.78011   0.69918   0.00000  Uiso   1.00
C780   C     0.77003   0.81065   0.93993   0.00000  Uiso   1.00
C781   C     0.85594   0.81394   0.51343   0.00000  Uiso   1.00
C782   C     0.88024   0.77708   0.98110   0.00000  Uiso   1.00
C783   C     0.84767   0.75512   0.93004   0.00000  Uiso   1.00
C784   C     0.79320   0.77180   0.90950   0.00000  Uiso   1.00
C785   C     0.89030   0.83728   0.56267   0.00000  Uiso   1.00
C786   C     0.96735   0.78198   0.55375   0.00000  Uiso   1.00
H787   H     0.67523   0.76710   0.57110   0.00000  Uiso   1.00
H788   H     0.76914   0.75361   0.86979   0.00000  Uiso   1.00
H789   H     0.73167   0.66986   0.74386   0.00000  Uiso   1.00
H790   H     0.93506   0.99685   0.75630   0.00000  Uiso   1.00
H791   H     0.84353   0.87561   0.79141   0.00000  Uiso   1.00
H792   H     0.86473   0.72584   0.90546   0.00000  Uiso   1.00
H793   H     0.95523   0.73369   0.97702   0.00000  Uiso   1.00
H794   H     0.87566   0.86859   0.58631   0.00000  Uiso   1.00
H795   H     0.98488   0.88193   0.93270   0.00000  Uiso   1.00
H796   H     0.78512   0.86596   0.57411   0.00000  Uiso   1.00
H797   H     0.69249   0.89706   0.53390   0.00000  Uiso   1.00
N798   N     0.81160   0.81890   0.73543   0.00000  Uiso   1.00
N799   N     0.85507   0.84777   0.76458   0.00000  Uiso   1.00
N800   N     0.83469   0.74756   0.66868   0.00000  Uiso   1.00
O801   O     0.96435   0.91296   0.75358   0.00000  Uiso   1.00
O802   O     0.72408   0.90371   0.74423   0.00000  Uiso   1.00
O803   O     0.98157   0.84024   0.83380   0.00000  Uiso   1.00
O804   O     0.74130   0.83099   0.82446   0.00000  Uiso   1.00
O805   O     0.94258   0.76296   0.75577   0.00000  Uiso   1.00
O806   O     0.70231   0.75371   0.74642   0.00000  Uiso   1.00
O807   O     0.92537   0.83567   0.67554   0.00000  Uiso   1.00
O808   O     0.68510   0.82642   0.66620   0.00000  Uiso   1.00
Zn809  Zn    0.93786   0.83951   0.75624   0.00000  Uiso   1.00
Zn810  Zn    0.72881   0.82716   0.74376   0.00000  Uiso   1.00
loop_
_geom_bond_atom_site_label_1
_geom_bond_atom_site_label_2
_geom_bond_distance
_geom_bond_site_symmetry_2
_ccdc_geom_bond_type
C1     O37     1.290   .     A
C1     C3      1.402   .     S
C1     O126    1.279   1_455 S
C2     C4      1.453   .     S
C2     C15     1.406   .     A
C2     C10     1.403   .     A
C3     C230    1.338   1_455 S
C3     H159    1.088   .     S
C4     O39     1.300   .     A
C4     O128    1.292   1_455 S
C5     C6      1.402   .     S
C5     C318    1.338   1_545 S
C5     H295    1.088   1_545 S
C6     O40     1.290   .     A
C6     O86     1.279   .     S
C7     O42     1.298   .     A
C7     C9      1.444   .     S
C7     O88     1.292   .     S
C8     C21     1.394   .     A
C8     C422    1.404   1_554 S
C8     H433    1.084   1_554 S
C9     C20     1.383   .     A
C9     C21     1.400   .     A
C10    C416    1.387   .     S
C10    H120    1.083   1_455 S
C11    C13     1.391   .     A
C11    H32     1.083   .     S
C11    C415    1.387   1_554 S
C12    C15     1.405   .     A
C12    C418    1.419   .     S
C12    C421    1.410   .     S
C13    H31     1.079   .     S
C13    C417    1.419   1_554 S
C14    N33     1.386   .     S
C14    N35     1.158   .     T
C15    C19     1.415   .     A
C16    C20     1.387   .     A
C16    C417    1.410   1_554 S
C16    C422    1.420   1_554 S
C17    C18     1.392   .     A
C17    C413    1.404   .     S
C17    C421    1.420   .     S
C18    C19     1.388   .     A
C18    H27     1.084   .     S
C19    H23     1.082   .     S
C20    H29     1.080   .     S
C21    H67     1.083   .     S
H22    C111    1.083   1_455 S
H24    C273    1.088   1_545 S
H25    C140    1.088   .     S
H26    N34     1.029   .     S
H28    C413    1.084   .     S
H30    C55     1.083   .     S
N33    Zn45    2.024   .     S
N33    N34     1.288   .     D
N34    Zn44    2.024   .     S
O36    Zn44    1.954   .     S
O36    C46     1.279   .     S
O37    Zn45    1.977   .     S
O38    Zn44    1.955   .     S
O38    C49     1.292   .     S
O39    Zn45    1.913   .     S
O40    Zn44    1.977   .     S
O41    Zn45    1.954   .     S
O41    C96     1.279   1_455 S
O42    Zn44    1.913   .     S
O43    Zn45    1.955   .     S
O43    C97     1.292   1_455 S
C46    O82     1.290   .     A
C46    C48     1.402   .     S
C47    C49     1.453   .     S
C47    C60     1.406   .     A
C47    C55     1.403   .     A
C48    C140    1.338   .     S
C48    H204    1.088   .     S
C49    O84     1.300   .     A
C50    C51     1.402   .     S
C50    C363    1.338   1_545 S
C50    H340    1.088   1_545 S
C51    O85     1.290   .     A
C51    O131    1.279   .     S
C52    O87     1.298   .     A
C52    C54     1.444   .     S
C52    O133    1.292   .     S
C53    C66     1.394   .     A
C53    C467    1.404   1_554 S
C53    H478    1.084   1_554 S
C54    C65     1.383   .     A
C54    C66     1.400   .     A
C55    C461    1.387   .     S
C56    C58     1.391   .     A
C56    H77     1.083   .     S
C56    C460    1.387   1_554 S
C57    C60     1.405   .     A
C57    C463    1.419   .     S
C57    C466    1.410   .     S
C58    H76     1.079   .     S
C58    C462    1.419   1_554 S
C59    N78     1.386   .     S
C59    N80     1.158   .     T
C60    C64     1.415   .     A
C61    C65     1.387   .     A
C61    C462    1.410   1_554 S
C61    C467    1.420   1_554 S
C62    C63     1.392   .     A
C62    C458    1.404   .     S
C62    C466    1.420   .     S
C63    C64     1.388   .     A
C63    H72     1.084   .     S
C64    H68     1.082   .     S
C65    H74     1.080   .     S
C66    H112    1.083   .     S
H69    C318    1.088   1_545 S
H70    C185    1.088   .     S
H71    N79     1.029   .     S
H73    C458    1.084   .     S
H75    C100    1.083   .     S
N78    Zn90    2.024   .     S
N78    N79     1.288   .     D
N79    Zn89    2.024   .     S
O81    Zn89    1.954   .     S
O81    C91     1.279   .     S
O82    Zn90    1.977   .     S
O83    Zn89    1.955   .     S
O83    C94     1.292   .     S
O84    Zn90    1.913   .     S
O85    Zn89    1.977   .     S
O86    Zn90    1.954   .     S
O87    Zn89    1.913   .     S
O88    Zn90    1.955   .     S
C91    O127    1.290   .     A
C91    C93     1.402   .     S
C92    C94     1.453   .     S
C92    C105    1.406   .     A
C92    C100    1.403   .     A
C93    C185    1.338   .     S
C93    H249    1.088   .     S
C94    O129    1.300   .     A
C95    C96     1.402   .     S
C95    C273    1.338   1_645 S
C95    H385    1.088   1_545 S
C96    O130    1.290   .     A
C96    O41     1.279   1_655 S
C97    O132    1.298   .     A
C97    C99     1.444   .     S
C97    O43     1.292   1_655 S
C98    C111    1.394   .     A
C98    C512    1.404   1_554 S
C98    H523    1.084   1_554 S
C99    C110    1.383   .     A
C99    C111    1.400   .     A
C100   C506    1.387   .     S
C101   C103    1.391   .     A
C101   H122    1.083   .     S
C101   C505    1.387   1_554 S
C102   C105    1.405   .     A
C102   C508    1.419   .     S
C102   C511    1.410   .     S
C103   H121    1.079   .     S
C103   C507    1.419   1_554 S
C104   N123    1.386   .     S
C104   N125    1.158   .     T
C105   C109    1.415   .     A
C106   C110    1.387   .     A
C106   C507    1.410   1_554 S
C106   C512    1.420   1_554 S
C107   C108    1.392   .     A
C107   C503    1.404   .     S
C107   C511    1.420   .     S
C108   C109    1.388   .     A
C108   H117    1.084   .     S
C109   H113    1.082   .     S
C110   H119    1.080   .     S
C111   H22     1.083   1_655 S
H114   C363    1.088   1_545 S
H115   C230    1.088   .     S
H116   N124    1.029   .     S
H118   C503    1.084   .     S
H120   C10     1.083   1_655 S
N123   Zn135   2.024   .     S
N123   N124    1.288   .     D
N124   Zn134   2.024   .     S
O126   Zn134   1.954   .     S
O126   C1      1.279   1_655 S
O127   Zn135   1.977   .     S
O128   Zn134   1.955   .     S
O128   C4      1.292   1_655 S
O129   Zn135   1.913   .     S
O130   Zn134   1.977   .     S
O131   Zn135   1.954   .     S
O132   Zn134   1.913   .     S
O133   Zn135   1.955   .     S
C136   O172    1.290   .     A
C136   C138    1.402   .     S
C136   O261    1.279   1_455 S
C137   C139    1.453   .     S
C137   C150    1.406   .     A
C137   C145    1.403   .     A
C138   C365    1.338   1_455 S
C138   H294    1.088   .     S
C139   O174    1.300   .     A
C139   O263    1.292   1_455 S
C140   C141    1.402   .     S
C141   O175    1.290   .     A
C141   O221    1.279   .     S
C142   O177    1.298   .     A
C142   C144    1.444   .     S
C142   O223    1.292   .     S
C143   C156    1.394   .     A
C143   C557    1.404   1_554 S
C143   H568    1.084   1_554 S
C144   C155    1.383   .     A
C144   C156    1.400   .     A
C145   C551    1.387   .     S
C145   H255    1.083   1_455 S
C146   C148    1.391   .     A
C146   H167    1.083   .     S
C146   C550    1.387   1_554 S
C147   C150    1.405   .     A
C147   C553    1.419   .     S
C147   C556    1.410   .     S
C148   H166    1.079   .     S
C148   C552    1.419   1_554 S
C149   N168    1.386   .     S
C149   N170    1.158   .     T
C150   C154    1.415   .     A
C151   C155    1.387   .     A
C151   C552    1.410   1_554 S
C151   C557    1.420   1_554 S
C152   C153    1.392   .     A
C152   C548    1.404   .     S
C152   C556    1.420   .     S
C153   C154    1.388   .     A
C153   H162    1.084   .     S
C154   H158    1.082   .     S
C155   H164    1.080   .     S
C156   H202    1.083   .     S
H157   C246    1.083   1_455 S
H160   C275    1.088   .     S
H161   N169    1.029   .     S
H163   C548    1.084   .     S
H165   C190    1.083   .     S
N168   Zn180   2.024   .     S
N168   N169    1.288   .     D
N169   Zn179   2.024   .     S
O171   Zn179   1.954   .     S
O171   C181    1.279   .     S
O172   Zn180   1.977   .     S
O173   Zn179   1.955   .     S
O173   C184    1.292   .     S
O174   Zn180   1.913   .     S
O175   Zn179   1.977   .     S
O176   Zn180   1.954   .     S
O176   C231    1.279   1_455 S
O177   Zn179   1.913   .     S
O178   Zn180   1.955   .     S
O178   C232    1.292   1_455 S
C181   O217    1.290   .     A
C181   C183    1.402   .     S
C182   C184    1.453   .     S
C182   C195    1.406   .     A
C182   C190    1.403   .     A
C183   C275    1.338   .     S
C183   H339    1.088   .     S
C184   O219    1.300   .     A
C185   C186    1.402   .     S
C186   O220    1.290   .     A
C186   O266    1.279   .     S
C187   O222    1.298   .     A
C187   C189    1.444   .     S
C187   O268    1.292   .     S
C188   C201    1.394   .     A
C188   C602    1.404   1_554 S
C188   H613    1.084   1_554 S
C189   C200    1.383   .     A
C189   C201    1.400   .     A
C190   C596    1.387   .     S
C191   C193    1.391   .     A
C191   H212    1.083   .     S
C191   C595    1.387   1_554 S
C192   C195    1.405   .     A
C192   C598    1.419   .     S
C192   C601    1.410   .     S
C193   H211    1.079   .     S
C193   C597    1.419   1_554 S
C194   N213    1.386   .     S
C194   N215    1.158   .     T
C195   C199    1.415   .     A
C196   C200    1.387   .     A
C196   C597    1.410   1_554 S
C196   C602    1.420   1_554 S
C197   C198    1.392   .     A
C197   C593    1.404   .     S
C197   C601    1.420   .     S
C198   C199    1.388   .     A
C198   H207    1.084   .     S
C199   H203    1.082   .     S
C200   H209    1.080   .     S
C201   H247    1.083   .     S
H205   C320    1.088   .     S
H206   N214    1.029   .     S
H208   C593    1.084   .     S
H210   C235    1.083   .     S
N213   Zn225   2.024   .     S
N213   N214    1.288   .     D
N214   Zn224   2.024   .     S
O216   Zn224   1.954   .     S
O216   C226    1.279   .     S
O217   Zn225   1.977   .     S
O218   Zn224   1.955   .     S
O218   C229    1.292   .     S
O219   Zn225   1.913   .     S
O220   Zn224   1.977   .     S
O221   Zn225   1.954   .     S
O222   Zn224   1.913   .     S
O223   Zn225   1.955   .     S
C226   O262    1.290   .     A
C226   C228    1.402   .     S
C227   C229    1.453   .     S
C227   C240    1.406   .     A
C227   C235    1.403   .     A
C228   C320    1.338   .     S
C228   H384    1.088   .     S
C229   O264    1.300   .     A
C230   C231    1.402   .     S
C230   C3      1.338   1_655 S
C231   O265    1.290   .     A
C231   O176    1.279   1_655 S
C232   O267    1.298   .     A
C232   C234    1.444   .     S
C232   O178    1.292   1_655 S
C233   C246    1.394   .     A
C233   C647    1.404   1_554 S
C233   H658    1.084   1_554 S
C234   C245    1.383   .     A
C234   C246    1.400   .     A
C235   C641    1.387   .     S
C236   C238    1.391   .     A
C236   H257    1.083   .     S
C236   C640    1.387   1_554 S
C237   C240    1.405   .     A
C237   C643    1.419   .     S
C237   C646    1.410   .     S
C238   H256    1.079   .     S
C238   C642    1.419   1_554 S
C239   N258    1.386   .     S
C239   N260    1.158   .     T
C240   C244    1.415   .     A
C241   C245    1.387   .     A
C241   C642    1.410   1_554 S
C241   C647    1.420   1_554 S
C242   C243    1.392   .     A
C242   C638    1.404   .     S
C242   C646    1.420   .     S
C243   C244    1.388   .     A
C243   H252    1.084   .     S
C244   H248    1.082   .     S
C245   H254    1.080   .     S
C246   H157    1.083   1_655 S
H250   C365    1.088   .     S
H251   N259    1.029   .     S
H253   C638    1.084   .     S
H255   C145    1.083   1_655 S
N258   Zn270   2.024   .     S
N258   N259    1.288   .     D
N259   Zn269   2.024   .     S
O261   Zn269   1.954   .     S
O261   C136    1.279   1_655 S
O262   Zn270   1.977   .     S
O263   Zn269   1.955   .     S
O263   C139    1.292   1_655 S
O264   Zn270   1.913   .     S
O265   Zn269   1.977   .     S
O266   Zn270   1.954   .     S
O267   Zn269   1.913   .     S
O268   Zn270   1.955   .     S
C271   O307    1.290   .     A
C271   C273    1.402   .     S
C271   O396    1.279   1_455 S
C272   C274    1.453   .     S
C272   C285    1.406   .     A
C272   C280    1.403   .     A
C273   C95     1.338   1_465 S
C273   H24     1.088   1_565 S
C274   O309    1.300   .     A
C274   O398    1.292   1_455 S
C275   C276    1.402   .     S
C276   O310    1.290   .     A
C276   O356    1.279   .     S
C277   O312    1.298   .     A
C277   C279    1.444   .     S
C277   O358    1.292   .     S
C278   C291    1.394   .     A
C278   C692    1.404   1_554 S
C278   H703    1.084   1_554 S
C279   C290    1.383   .     A
C279   C291    1.400   .     A
C280   C686    1.387   .     S
C280   H390    1.083   1_455 S
C281   C283    1.391   .     A
C281   H302    1.083   .     S
C281   C685    1.387   1_554 S
C282   C285    1.405   .     A
C282   C688    1.419   .     S
C282   C691    1.410   .     S
C283   H301    1.079   .     S
C283   C687    1.419   1_554 S
C284   N303    1.386   .     S
C284   N305    1.158   .     T
C285   C289    1.415   .     A
C286   C290    1.387   .     A
C286   C687    1.410   1_554 S
C286   C692    1.420   1_554 S
C287   C288    1.392   .     A
C287   C683    1.404   .     S
C287   C691    1.420   .     S
C288   C289    1.388   .     A
C288   H297    1.084   .     S
C289   H293    1.082   .     S
C290   H299    1.080   .     S
C291   H337    1.083   .     S
H292   C381    1.083   1_455 S
H295   C5      1.088   1_565 S
H296   N304    1.029   .     S
H298   C683    1.084   .     S
H300   C325    1.083   .     S
N303   Zn315   2.024   .     S
N303   N304    1.288   .     D
N304   Zn314   2.024   .     S
O306   Zn314   1.954   .     S
O306   C316    1.279   .     S
O307   Zn315   1.977   .     S
O308   Zn314   1.955   .     S
O308   C319    1.292   .     S
O309   Zn315   1.913   .     S
O310   Zn314   1.977   .     S
O311   Zn315   1.954   .     S
O311   C366    1.279   1_455 S
O312   Zn314   1.913   .     S
O313   Zn315   1.955   .     S
O313   C367    1.292   1_455 S
C316   O352    1.290   .     A
C316   C318    1.402   .     S
C317   C319    1.453   .     S
C317   C330    1.406   .     A
C317   C325    1.403   .     A
C318   C5      1.338   1_565 S
C318   H69     1.088   1_565 S
C319   O354    1.300   .     A
C320   C321    1.402   .     S
C321   O355    1.290   .     A
C321   O401    1.279   .     S
C322   O357    1.298   .     A
C322   C324    1.444   .     S
C322   O403    1.292   .     S
C323   C336    1.394   .     A
C323   C737    1.404   1_554 S
C323   H748    1.084   1_554 S
C324   C335    1.383   .     A
C324   C336    1.400   .     A
C325   C731    1.387   .     S
C326   C328    1.391   .     A
C326   H347    1.083   .     S
C326   C730    1.387   1_554 S
C327   C330    1.405   .     A
C327   C733    1.419   .     S
C327   C736    1.410   .     S
C328   H346    1.079   .     S
C328   C732    1.419   1_554 S
C329   N348    1.386   .     S
C329   N350    1.158   .     T
C330   C334    1.415   .     A
C331   C335    1.387   .     A
C331   C732    1.410   1_554 S
C331   C737    1.420   1_554 S
C332   C333    1.392   .     A
C332   C728    1.404   .     S
C332   C736    1.420   .     S
C333   C334    1.388   .     A
C333   H342    1.084   .     S
C334   H338    1.082   .     S
C335   H344    1.080   .     S
C336   H382    1.083   .     S
H340   C50     1.088   1_565 S
H341   N349    1.029   .     S
H343   C728    1.084   .     S
H345   C370    1.083   .     S
N348   Zn360   2.024   .     S
N348   N349    1.288   .     D
N349   Zn359   2.024   .     S
O351   Zn359   1.954   .     S
O351   C361    1.279   .     S
O352   Zn360   1.977   .     S
O353   Zn359   1.955   .     S
O353   C364    1.292   .     S
O354   Zn360   1.913   .     S
O355   Zn359   1.977   .     S
O356   Zn360   1.954   .     S
O357   Zn359   1.913   .     S
O358   Zn360   1.955   .     S
C361   O397    1.290   .     A
C361   C363    1.402   .     S
C362   C364    1.453   .     S
C362   C375    1.406   .     A
C362   C370    1.403   .     A
C363   C50     1.338   1_565 S
C363   H114    1.088   1_565 S
C364   O399    1.300   .     A
C365   C366    1.402   .     S
C365   C138    1.338   1_655 S
C366   O400    1.290   .     A
C366   O311    1.279   1_655 S
C367   O402    1.298   .     A
C367   C369    1.444   .     S
C367   O313    1.292   1_655 S
C368   C381    1.394   .     A
C368   C782    1.404   1_554 S
C368   H793    1.084   1_554 S
C369   C380    1.383   .     A
C369   C381    1.400   .     A
C370   C776    1.387   .     S
C371   C373    1.391   .     A
C371   H392    1.083   .     S
C371   C775    1.387   1_554 S
C372   C375    1.405   .     A
C372   C778    1.419   .     S
C372   C781    1.410   .     S
C373   H391    1.079   .     S
C373   C777    1.419   1_554 S
C374   N393    1.386   .     S
C374   N395    1.158   .     T
C375   C379    1.415   .     A
C376   C380    1.387   .     A
C376   C777    1.410   1_554 S
C376   C782    1.420   1_554 S
C377   C378    1.392   .     A
C377   C773    1.404   .     S
C377   C781    1.420   .     S
C378   C379    1.388   .     A
C378   H387    1.084   .     S
C379   H383    1.082   .     S
C380   H389    1.080   .     S
C381   H292    1.083   1_655 S
H385   C95     1.088   1_565 S
H386   N394    1.029   .     S
H388   C773    1.084   .     S
H390   C280    1.083   1_655 S
N393   Zn405   2.024   .     S
N393   N394    1.288   .     D
N394   Zn404   2.024   .     S
O396   Zn404   1.954   .     S
O396   C271    1.279   1_655 S
O397   Zn405   1.977   .     S
O398   Zn404   1.955   .     S
O398   C274    1.292   1_655 S
O399   Zn405   1.913   .     S
O400   Zn404   1.977   .     S
O401   Zn405   1.954   .     S
O402   Zn404   1.913   .     S
O403   Zn405   1.955   .     S
C406   O442    1.290   .     A
C406   C408    1.402   .     S
C406   O531    1.279   1_455 S
C407   C409    1.453   .     S
C407   C420    1.406   .     A
C407   C415    1.403   .     A
C408   C635    1.338   1_455 S
C408   H564    1.088   .     S
C409   O444    1.300   .     A
C409   O533    1.292   1_455 S
C410   C411    1.402   .     S
C410   C723    1.338   1_545 S
C410   H700    1.088   1_545 S
C411   O445    1.290   .     A
C411   O491    1.279   .     S
C412   O447    1.298   .     A
C412   C414    1.444   .     S
C412   O493    1.292   .     S
C413   C426    1.394   .     A
C414   C425    1.383   .     A
C414   C426    1.400   .     A
C415   C11     1.387   1_556 S
C415   H525    1.083   1_455 S
C416   C418    1.391   .     A
C416   H437    1.083   .     S
C417   C420    1.405   .     A
C417   C13     1.419   1_556 S
C417   C16     1.410   1_556 S
C418   H436    1.079   .     S
C419   N438    1.386   .     S
C419   N440    1.158   .     T
C420   C424    1.415   .     A
C421   C425    1.387   .     A
C422   C423    1.392   .     A
C422   C8      1.404   1_556 S
C422   C16     1.420   1_556 S
C423   C424    1.388   .     A
C423   H432    1.084   .     S
C424   H428    1.082   .     S
C425   H434    1.080   .     S
C426   H472    1.083   .     S
H427   C516    1.083   1_455 S
H429   C678    1.088   1_545 S
H430   C545    1.088   .     S
H431   N439    1.029   .     S
H433   C8      1.084   1_556 S
H435   C460    1.083   .     S
N438   Zn450   2.024   .     S
N438   N439    1.288   .     D
N439   Zn449   2.024   .     S
O441   Zn449   1.954   .     S
O441   C451    1.279   .     S
O442   Zn450   1.977   .     S
O443   Zn449   1.955   .     S
O443   C454    1.292   .     S
O444   Zn450   1.913   .     S
O445   Zn449   1.977   .     S
O446   Zn450   1.954   .     S
O446   C501    1.279   1_455 S
O447   Zn449   1.913   .     S
O448   Zn450   1.955   .     S
O448   C502    1.292   1_455 S
C451   O487    1.290   .     A
C451   C453    1.402   .     S
C452   C454    1.453   .     S
C452   C465    1.406   .     A
C452   C460    1.403   .     A
C453   C545    1.338   .     S
C453   H609    1.088   .     S
C454   O489    1.300   .     A
C455   C456    1.402   .     S
C455   C768    1.338   1_545 S
C455   H745    1.088   1_545 S
C456   O490    1.290   .     A
C456   O536    1.279   .     S
C457   O492    1.298   .     A
C457   C459    1.444   .     S
C457   O538    1.292   .     S
C458   C471    1.394   .     A
C459   C470    1.383   .     A
C459   C471    1.400   .     A
C460   C56     1.387   1_556 S
C461   C463    1.391   .     A
C461   H482    1.083   .     S
C462   C465    1.405   .     A
C462   C58     1.419   1_556 S
C462   C61     1.410   1_556 S
C463   H481    1.079   .     S
C464   N483    1.386   .     S
C464   N485    1.158   .     T
C465   C469    1.415   .     A
C466   C470    1.387   .     A
C467   C468    1.392   .     A
C467   C53     1.404   1_556 S
C467   C61     1.420   1_556 S
C468   C469    1.388   .     A
C468   H477    1.084   .     S
C469   H473    1.082   .     S
C470   H479    1.080   .     S
C471   H517    1.083   .     S
H474   C723    1.088   1_545 S
H475   C590    1.088   .     S
H476   N484    1.029   .     S
H478   C53     1.084   1_556 S
H480   C505    1.083   .     S
N483   Zn495   2.024   .     S
N483   N484    1.288   .     D
N484   Zn494   2.024   .     S
O486   Zn494   1.954   .     S
O486   C496    1.279   .     S
O487   Zn495   1.977   .     S
O488   Zn494   1.955   .     S
O488   C499    1.292   .     S
O489   Zn495   1.913   .     S
O490   Zn494   1.977   .     S
O491   Zn495   1.954   .     S
O492   Zn494   1.913   .     S
O493   Zn495   1.955   .     S
C496   O532    1.290   .     A
C496   C498    1.402   .     S
C497   C499    1.453   .     S
C497   C510    1.406   .     A
C497   C505    1.403   .     A
C498   C590    1.338   .     S
C498   H654    1.088   .     S
C499   O534    1.300   .     A
C500   C501    1.402   .     S
C500   C678    1.338   1_645 S
C500   H790    1.088   1_545 S
C501   O535    1.290   .     A
C501   O446    1.279   1_655 S
C502   O537    1.298   .     A
C502   C504    1.444   .     S
C502   O448    1.292   1_655 S
C503   C516    1.394   .     A
C504   C515    1.383   .     A
C504   C516    1.400   .     A
C505   C101    1.387   1_556 S
C506   C508    1.391   .     A
C506   H527    1.083   .     S
C507   C510    1.405   .     A
C507   C103    1.419   1_556 S
C507   C106    1.410   1_556 S
C508   H526    1.079   .     S
C509   N528    1.386   .     S
C509   N530    1.158   .     T
C510   C514    1.415   .     A
C511   C515    1.387   .     A
C512   C513    1.392   .     A
C512   C98     1.404   1_556 S
C512   C106    1.420   1_556 S
C513   C514    1.388   .     A
C513   H522    1.084   .     S
C514   H518    1.082   .     S
C515   H524    1.080   .     S
C516   H427    1.083   1_655 S
H519   C768    1.088   1_545 S
H520   C635    1.088   .     S
H521   N529    1.029   .     S
H523   C98     1.084   1_556 S
H525   C415    1.083   1_655 S
N528   Zn540   2.024   .     S
N528   N529    1.288   .     D
N529   Zn539   2.024   .     S
O531   Zn539   1.954   .     S
O531   C406    1.279   1_655 S
O532   Zn540   1.977   .     S
O533   Zn539   1.955   .     S
O533   C409    1.292   1_655 S
O534   Zn540   1.913   .     S
O535   Zn539   1.977   .     S
O536   Zn540   1.954   .     S
O537   Zn539   1.913   .     S
O538   Zn540   1.955   .     S
C541   O577    1.290   .     A
C541   C543    1.402   .     S
C541   O666    1.279   1_455 S
C542   C544    1.453   .     S
C542   C555    1.406   .     A
C542   C550    1.403   .     A
C543   C770    1.338   1_455 S
C543   H699    1.088   .     S
C544   O579    1.300   .     A
C544   O668    1.292   1_455 S
C545   C546    1.402   .     S
C546   O580    1.290   .     A
C546   O626    1.279   .     S
C547   O582    1.298   .     A
C547   C549    1.444   .     S
C547   O628    1.292   .     S
C548   C561    1.394   .     A
C549   C560    1.383   .     A
C549   C561    1.400   .     A
C550   C146    1.387   1_556 S
C550   H660    1.083   1_455 S
C551   C553    1.391   .     A
C551   H572    1.083   .     S
C552   C555    1.405   .     A
C552   C148    1.419   1_556 S
C552   C151    1.410   1_556 S
C553   H571    1.079   .     S
C554   N573    1.386   .     S
C554   N575    1.158   .     T
C555   C559    1.415   .     A
C556   C560    1.387   .     A
C557   C558    1.392   .     A
C557   C143    1.404   1_556 S
C557   C151    1.420   1_556 S
C558   C559    1.388   .     A
C558   H567    1.084   .     S
C559   H563    1.082   .     S
C560   H569    1.080   .     S
C561   H607    1.083   .     S
H562   C651    1.083   1_455 S
H565   C680    1.088   .     S
H566   N574    1.029   .     S
H568   C143    1.084   1_556 S
H570   C595    1.083   .     S
N573   Zn585   2.024   .     S
N573   N574    1.288   .     D
N574   Zn584   2.024   .     S
O576   Zn584   1.954   .     S
O576   C586    1.279   .     S
O577   Zn585   1.977   .     S
O578   Zn584   1.955   .     S
O578   C589    1.292   .     S
O579   Zn585   1.913   .     S
O580   Zn584   1.977   .     S
O581   Zn585   1.954   .     S
O581   C636    1.279   1_455 S
O582   Zn584   1.913   .     S
O583   Zn585   1.955   .     S
O583   C637    1.292   1_455 S
C586   O622    1.290   .     A
C586   C588    1.402   .     S
C587   C589    1.453   .     S
C587   C600    1.406   .     A
C587   C595    1.403   .     A
C588   C680    1.338   .     S
C588   H744    1.088   .     S
C589   O624    1.300   .     A
C590   C591    1.402   .     S
C591   O625    1.290   .     A
C591   O671    1.279   .     S
C592   O627    1.298   .     A
C592   C594    1.444   .     S
C592   O673    1.292   .     S
C593   C606    1.394   .     A
C594   C605    1.383   .     A
C594   C606    1.400   .     A
C595   C191    1.387   1_556 S
C596   C598    1.391   .     A
C596   H617    1.083   .     S
C597   C600    1.405   .     A
C597   C193    1.419   1_556 S
C597   C196    1.410   1_556 S
C598   H616    1.079   .     S
C599   N618    1.386   .     S
C599   N620    1.158   .     T
C600   C604    1.415   .     A
C601   C605    1.387   .     A
C602   C603    1.392   .     A
C602   C188    1.404   1_556 S
C602   C196    1.420   1_556 S
C603   C604    1.388   .     A
C603   H612    1.084   .     S
C604   H608    1.082   .     S
C605   H614    1.080   .     S
C606   H652    1.083   .     S
H610   C725    1.088   .     S
H611   N619    1.029   .     S
H613   C188    1.084   1_556 S
H615   C640    1.083   .     S
N618   Zn630   2.024   .     S
N618   N619    1.288   .     D
N619   Zn629   2.024   .     S
O621   Zn629   1.954   .     S
O621   C631    1.279   .     S
O622   Zn630   1.977   .     S
O623   Zn629   1.955   .     S
O623   C634    1.292   .     S
O624   Zn630   1.913   .     S
O625   Zn629   1.977   .     S
O626   Zn630   1.954   .     S
O627   Zn629   1.913   .     S
O628   Zn630   1.955   .     S
C631   O667    1.290   .     A
C631   C633    1.402   .     S
C632   C634    1.453   .     S
C632   C645    1.406   .     A
C632   C640    1.403   .     A
C633   C725    1.338   .     S
C633   H789    1.088   .     S
C634   O669    1.300   .     A
C635   C636    1.402   .     S
C635   C408    1.338   1_655 S
C636   O670    1.290   .     A
C636   O581    1.279   1_655 S
C637   O672    1.298   .     A
C637   C639    1.444   .     S
C637   O583    1.292   1_655 S
C638   C651    1.394   .     A
C639   C650    1.383   .     A
C639   C651    1.400   .     A
C640   C236    1.387   1_556 S
C641   C643    1.391   .     A
C641   H662    1.083   .     S
C642   C645    1.405   .     A
C642   C238    1.419   1_556 S
C642   C241    1.410   1_556 S
C643   H661    1.079   .     S
C644   N663    1.386   .     S
C644   N665    1.158   .     T
C645   C649    1.415   .     A
C646   C650    1.387   .     A
C647   C648    1.392   .     A
C647   C233    1.404   1_556 S
C647   C241    1.420   1_556 S
C648   C649    1.388   .     A
C648   H657    1.084   .     S
C649   H653    1.082   .     S
C650   H659    1.080   .     S
C651   H562    1.083   1_655 S
H655   C770    1.088   .     S
H656   N664    1.029   .     S
H658   C233    1.084   1_556 S
H660   C550    1.083   1_655 S
N663   Zn675   2.024   .     S
N663   N664    1.288   .     D
N664   Zn674   2.024   .     S
O666   Zn674   1.954   .     S
O666   C541    1.279   1_655 S
O667   Zn675   1.977   .     S
O668   Zn674   1.955   .     S
O668   C544    1.292   1_655 S
O669   Zn675   1.913   .     S
O670   Zn674   1.977   .     S
O671   Zn675   1.954   .     S
O672   Zn674   1.913   .     S
O673   Zn675   1.955   .     S
C676   O712    1.290   .     A
C676   C678    1.402   .     S
C676   O801    1.279   1_455 S
C677   C679    1.453   .     S
C677   C690    1.406   .     A
C677   C685    1.403   .     A
C678   C500    1.338   1_465 S
C678   H429    1.088   1_565 S
C679   O714    1.300   .     A
C679   O803    1.292   1_455 S
C680   C681    1.402   .     S
C681   O715    1.290   .     A
C681   O761    1.279   .     S
C682   O717    1.298   .     A
C682   C684    1.444   .     S
C682   O763    1.292   .     S
C683   C696    1.394   .     A
C684   C695    1.383   .     A
C684   C696    1.400   .     A
C685   C281    1.387   1_556 S
C685   H795    1.083   1_455 S
C686   C688    1.391   .     A
C686   H707    1.083   .     S
C687   C690    1.405   .     A
C687   C283    1.419   1_556 S
C687   C286    1.410   1_556 S
C688   H706    1.079   .     S
C689   N708    1.386   .     S
C689   N710    1.158   .     T
C690   C694    1.415   .     A
C691   C695    1.387   .     A
C692   C693    1.392   .     A
C692   C278    1.404   1_556 S
C692   C286    1.420   1_556 S
C693   C694    1.388   .     A
C693   H702    1.084   .     S
C694   H698    1.082   .     S
C695   H704    1.080   .     S
C696   H742    1.083   .     S
H697   C786    1.083   1_455 S
H700   C410    1.088   1_565 S
H701   N709    1.029   .     S
H703   C278    1.084   1_556 S
H705   C730    1.083   .     S
N708   Zn720   2.024   .     S
N708   N709    1.288   .     D
N709   Zn719   2.024   .     S
O711   Zn719   1.954   .     S
O711   C721    1.279   .     S
O712   Zn720   1.977   .     S
O713   Zn719   1.955   .     S
O713   C724    1.292   .     S
O714   Zn720   1.913   .     S
O715   Zn719   1.977   .     S
O716   Zn720   1.954   .     S
O716   C771    1.279   1_455 S
O717   Zn719   1.913   .     S
O718   Zn720   1.955   .     S
O718   C772    1.292   1_455 S
C721   O757    1.290   .     A
C721   C723    1.402   .     S
C722   C724    1.453   .     S
C722   C735    1.406   .     A
C722   C730    1.403   .     A
C723   C410    1.338   1_565 S
C723   H474    1.088   1_565 S
C724   O759    1.300   .     A
C725   C726    1.402   .     S
C726   O760    1.290   .     A
C726   O806    1.279   .     S
C727   O762    1.298   .     A
C727   C729    1.444   .     S
C727   O808    1.292   .     S
C728   C741    1.394   .     A
C729   C740    1.383   .     A
C729   C741    1.400   .     A
C730   C326    1.387   1_556 S
C731   C733    1.391   .     A
C731   H752    1.083   .     S
C732   C735    1.405   .     A
C732   C328    1.419   1_556 S
C732   C331    1.410   1_556 S
C733   H751    1.079   .     S
C734   N753    1.386   .     S
C734   N755    1.158   .     T
C735   C739    1.415   .     A
C736   C740    1.387   .     A
C737   C738    1.392   .     A
C737   C323    1.404   1_556 S
C737   C331    1.420   1_556 S
C738   C739    1.388   .     A
C738   H747    1.084   .     S
C739   H743    1.082   .     S
C740   H749    1.080   .     S
C741   H787    1.083   .     S
H745   C455    1.088   1_565 S
H746   N754    1.029   .     S
H748   C323    1.084   1_556 S
H750   C775    1.083   .     S
N753   Zn765   2.024   .     S
N753   N754    1.288   .     D
N754   Zn764   2.024   .     S
O756   Zn764   1.954   .     S
O756   C766    1.279   .     S
O757   Zn765   1.977   .     S
O758   Zn764   1.955   .     S
O758   C769    1.292   .     S
O759   Zn765   1.913   .     S
O760   Zn764   1.977   .     S
O761   Zn765   1.954   .     S
O762   Zn764   1.913   .     S
O763   Zn765   1.955   .     S
C766   O802    1.290   .     A
C766   C768    1.402   .     S
C767   C769    1.453   .     S
C767   C780    1.406   .     A
C767   C775    1.403   .     A
C768   C455    1.338   1_565 S
C768   H519    1.088   1_565 S
C769   O804    1.300   .     A
C770   C771    1.402   .     S
C770   C543    1.338   1_655 S
C771   O805    1.290   .     A
C771   O716    1.279   1_655 S
C772   O807    1.298   .     A
C772   C774    1.444   .     S
C772   O718    1.292   1_655 S
C773   C786    1.394   .     A
C774   C785    1.383   .     A
C774   C786    1.400   .     A
C775   C371    1.387   1_556 S
C776   C778    1.391   .     A
C776   H797    1.083   .     S
C777   C780    1.405   .     A
C777   C373    1.419   1_556 S
C777   C376    1.410   1_556 S
C778   H796    1.079   .     S
C779   N798    1.386   .     S
C779   N800    1.158   .     T
C780   C784    1.415   .     A
C781   C785    1.387   .     A
C782   C783    1.392   .     A
C782   C368    1.404   1_556 S
C782   C376    1.420   1_556 S
C783   C784    1.388   .     A
C783   H792    1.084   .     S
C784   H788    1.082   .     S
C785   H794    1.080   .     S
C786   H697    1.083   1_655 S
H790   C500    1.088   1_565 S
H791   N799    1.029   .     S
H793   C368    1.084   1_556 S
H795   C685    1.083   1_655 S
N798   Zn810   2.024   .     S
N798   N799    1.288   .     D
N799   Zn809   2.024   .     S
O801   Zn809   1.954   .     S
O801   C676    1.279   1_655 S
O802   Zn810   1.977   .     S
O803   Zn809   1.955   .     S
O803   C679    1.292   1_655 S
O804   Zn810   1.913   .     S
O805   Zn809   1.977   .     S
O806   Zn810   1.954   .     S
O807   Zn809   1.913   .     S
O808   Zn810   1.955   .     S
