data_str_m3_o1_o2_pcu_sym.128
_audit_creation_date              2020-01-03
_audit_creation_method            'Materials Studio'
_symmetry_space_group_name_H-M    'P1'
_symmetry_Int_Tables_number       1
_symmetry_cell_setting            triclinic
loop_
_symmetry_equiv_pos_as_xyz
  x,y,z
_cell_length_a                    31.9400
_cell_length_b                    29.4649
_cell_length_c                    29.8336
_cell_angle_alpha                 90.1056
_cell_angle_beta                  90.3492
_cell_angle_gamma                 88.1588
loop_
_atom_site_label
_atom_site_type_symbol
_atom_site_fract_x
_atom_site_fract_y
_atom_site_fract_z
_atom_site_U_iso_or_equiv
_atom_site_adp_type
_atom_site_occupancy
O1     O     0.10559   0.20487   0.25000   0.00000  Uiso   1.00
O2     O     0.22774   0.12846   0.25000   0.00000  Uiso   1.00
O3     O     0.22774   0.20487   0.25000   0.00000  Uiso   1.00
O4     O     0.10559   0.12846   0.24999   0.00000  Uiso   1.00
N5     N     0.16667   0.28573   0.25000   0.00000  Uiso   1.00
N6     N     0.16667   0.04760   0.25000   0.00000  Uiso   1.00
C7     C     0.08708   0.16736   0.25589   0.00000  Uiso   1.00
C8     C     0.24715   0.16603   0.25138   0.00000  Uiso   1.00
O9     O     0.16666   0.20489   0.18453   0.00000  Uiso   1.00
O10    O     0.16667   0.12845   0.31547   0.00000  Uiso   1.00
O11    O     0.16667   0.20489   0.31547   0.00000  Uiso   1.00
O12    O     0.16666   0.12845   0.18453   0.00000  Uiso   1.00
C13    C     0.16674   0.16658   0.16396   0.00000  Uiso   1.00
C14    C     0.16249   0.16700   0.33619   0.00000  Uiso   1.00
Zn15   Zn    0.16667   0.21771   0.25000   0.00000  Uiso   1.00
Zn16   Zn    0.16667   0.11563   0.25000   0.00000  Uiso   1.00
H17    H     0.20621   0.04066   0.30703   0.00000  Uiso   1.00
H18    H     0.12631   0.29238   0.19355   0.00000  Uiso   1.00
H19    H     0.12655   0.04351   0.19335   0.00000  Uiso   1.00
H20    H     0.20693   0.28975   0.30652   0.00000  Uiso   1.00
C21    C     0.18908   0.02319   0.28137   0.00000  Uiso   1.00
C22    C     0.14430   0.31004   0.21856   0.00000  Uiso   1.00
C23    C     0.14445   0.02471   0.21844   0.00000  Uiso   1.00
C24    C     0.18913   0.30856   0.28135   0.00000  Uiso   1.00
C25    C     0.02375   0.13276   0.28796   0.00000  Uiso   1.00
C26    C     0.31434   0.20286   0.24013   0.00000  Uiso   1.00
C27    C     0.31296   0.13226   0.28523   0.00000  Uiso   1.00
C28    C     0.02058   0.20874   0.25732   0.00000  Uiso   1.00
C29    C     0.18997   0.16069   0.04232   0.00000  Uiso   1.00
C30    C     0.14342   0.12983   0.45506   0.00000  Uiso   1.00
C31    C     0.14255   0.21323   0.45179   0.00000  Uiso   1.00
C32    C     0.11588   0.18359   0.05224   0.00000  Uiso   1.00
C33    C     0.19460   0.15496   0.08812   0.00000  Uiso   1.00
C34    C     0.14879   0.12770   0.40853   0.00000  Uiso   1.00
C35    C     0.14399   0.21085   0.40552   0.00000  Uiso   1.00
C36    C     0.12094   0.18053   0.09877   0.00000  Uiso   1.00
C37    C     0.16061   0.16657   0.11636   0.00000  Uiso   1.00
C38    C     0.15182   0.16841   0.38401   0.00000  Uiso   1.00
C39    C     0.15031   0.17383   0.02463   0.00000  Uiso   1.00
C40    C     0.14358   0.17257   0.47658   0.00000  Uiso   1.00
C41    C     0.29213   0.16540   0.25690   0.00000  Uiso   1.00
C42    C     0.04347   0.16930   0.26758   0.00000  Uiso   1.00
O43    O     0.22471   0.15170   0.01586   0.00000  Uiso   1.00
H44    H     0.22029   0.16525   0.48583   0.00000  Uiso   1.00
O45    O     0.14068   0.08965   0.47874   0.00000  Uiso   1.00
H46    H     0.12861   0.09582   0.00870   0.00000  Uiso   1.00
O47    O     0.14070   0.25609   0.47100   0.00000  Uiso   1.00
H48    H     0.14052   0.25409   0.00403   0.00000  Uiso   1.00
O49    O     0.07776   0.19524   0.03228   0.00000  Uiso   1.00
H50    H     0.05611   0.20082   0.05540   0.00000  Uiso   1.00
O51    O     0.23322   0.13904   0.10372   0.00000  Uiso   1.00
H52    H     0.23079   0.12803   0.13482   0.00000  Uiso   1.00
O53    O     0.15128   0.08648   0.38625   0.00000  Uiso   1.00
H54    H     0.14869   0.06092   0.40740   0.00000  Uiso   1.00
O55    O     0.13843   0.25104   0.38236   0.00000  Uiso   1.00
H56    H     0.11705   0.24575   0.35884   0.00000  Uiso   1.00
O57    O     0.08668   0.19093   0.12561   0.00000  Uiso   1.00
H58    H     0.09135   0.17922   0.15630   0.00000  Uiso   1.00
C59    C     0.04935   0.09991   0.31755   0.00000  Uiso   1.00
C60    C     0.05606   0.05317   0.29537   0.00000  Uiso   1.00
C61    C     0.08593   0.02336   0.32343   0.00000  Uiso   1.00
H62    H     0.11684   0.03903   0.32569   0.00000  Uiso   1.00
H63    H     0.07368   0.01949   0.35787   0.00000  Uiso   1.00
H64    H     0.09018   0.32285   0.30757   0.00000  Uiso   1.00
H65    H     0.02601   0.03587   0.29115   0.00000  Uiso   1.00
H66    H     0.06932   0.05679   0.26137   0.00000  Uiso   1.00
H67    H     0.08023   0.11409   0.32584   0.00000  Uiso   1.00
H68    H     0.03468   0.09665   0.35097   0.00000  Uiso   1.00
C69    C     0.29716   0.23902   0.20771   0.00000  Uiso   1.00
C70    C     0.28338   0.21845   0.16293   0.00000  Uiso   1.00
C71    C     0.26526   0.25490   0.13143   0.00000  Uiso   1.00
H72    H     0.23721   0.27191   0.14665   0.00000  Uiso   1.00
H73    H     0.28901   0.28061   0.12432   0.00000  Uiso   1.00
H74    H     0.25577   0.23900   0.09931   0.00000  Uiso   1.00
H75    H     0.31069   0.20099   0.14664   0.00000  Uiso   1.00
H76    H     0.25911   0.19319   0.16845   0.00000  Uiso   1.00
H77    H     0.27165   0.25998   0.22317   0.00000  Uiso   1.00
H78    H     0.32201   0.26333   0.19978   0.00000  Uiso   1.00
C79    C     0.28912   0.10105   0.31621   0.00000  Uiso   1.00
C80    C     0.27287   0.12735   0.35728   0.00000  Uiso   1.00
C81    C     0.25582   0.09542   0.39245   0.00000  Uiso   1.00
H82    H     0.23153   0.07390   0.37752   0.00000  Uiso   1.00
H83    H     0.28151   0.07314   0.40617   0.00000  Uiso   1.00
H84    H     0.24179   0.11553   0.42036   0.00000  Uiso   1.00
H85    H     0.29875   0.14640   0.37277   0.00000  Uiso   1.00
H86    H     0.24792   0.15227   0.34697   0.00000  Uiso   1.00
H87    H     0.26381   0.08367   0.29878   0.00000  Uiso   1.00
H88    H     0.30861   0.07194   0.32817   0.00000  Uiso   1.00
C89    C     0.02693   0.25027   0.28661   0.00000  Uiso   1.00
C90    C     0.00001   0.24736   0.32921   0.00000  Uiso   1.00
C91    C     0.00815   0.28562   0.36216   0.00000  Uiso   1.00
H92    H     0.04128   0.28371   0.37362   0.00000  Uiso   1.00
H93    H     0.00078   0.31902   0.34643   0.00000  Uiso   1.00
H94    H     0.32108   0.28210   0.39188   0.00000  Uiso   1.00
H95    H     0.29954   0.24878   0.31994   0.00000  Uiso   1.00
H96    H     0.00700   0.21456   0.34651   0.00000  Uiso   1.00
H97    H     0.06022   0.25231   0.29683   0.00000  Uiso   1.00
H98    H     0.01843   0.28192   0.26805   0.00000  Uiso   1.00
O99    O     0.43892   0.20487   0.25000   0.00000  Uiso   1.00
O100   O     0.56108   0.12846   0.25000   0.00000  Uiso   1.00
O101   O     0.56108   0.20487   0.25000   0.00000  Uiso   1.00
O102   O     0.43892   0.12846   0.24999   0.00000  Uiso   1.00
N103   N     0.50000   0.28573   0.25000   0.00000  Uiso   1.00
N104   N     0.50000   0.04760   0.25000   0.00000  Uiso   1.00
C105   C     0.42041   0.16736   0.25589   0.00000  Uiso   1.00
C106   C     0.58049   0.16603   0.25138   0.00000  Uiso   1.00
O107   O     0.50000   0.20489   0.18453   0.00000  Uiso   1.00
O108   O     0.50000   0.12845   0.31547   0.00000  Uiso   1.00
O109   O     0.50000   0.20489   0.31547   0.00000  Uiso   1.00
O110   O     0.50000   0.12845   0.18453   0.00000  Uiso   1.00
C111   C     0.50007   0.16658   0.16396   0.00000  Uiso   1.00
C112   C     0.49582   0.16700   0.33619   0.00000  Uiso   1.00
Zn113  Zn    0.50000   0.21771   0.25000   0.00000  Uiso   1.00
Zn114  Zn    0.50000   0.11563   0.25000   0.00000  Uiso   1.00
H115   H     0.53954   0.04066   0.30703   0.00000  Uiso   1.00
H116   H     0.45964   0.29238   0.19355   0.00000  Uiso   1.00
H117   H     0.45988   0.04351   0.19335   0.00000  Uiso   1.00
H118   H     0.54026   0.28975   0.30652   0.00000  Uiso   1.00
C119   C     0.52241   0.02319   0.28137   0.00000  Uiso   1.00
C120   C     0.47763   0.31004   0.21856   0.00000  Uiso   1.00
C121   C     0.47778   0.02471   0.21844   0.00000  Uiso   1.00
C122   C     0.52246   0.30856   0.28135   0.00000  Uiso   1.00
C123   C     0.35709   0.13276   0.28796   0.00000  Uiso   1.00
C124   C     0.64767   0.20286   0.24013   0.00000  Uiso   1.00
C125   C     0.64629   0.13226   0.28523   0.00000  Uiso   1.00
C126   C     0.35391   0.20874   0.25732   0.00000  Uiso   1.00
C127   C     0.52331   0.16069   0.04232   0.00000  Uiso   1.00
C128   C     0.47675   0.12983   0.45506   0.00000  Uiso   1.00
C129   C     0.47588   0.21323   0.45179   0.00000  Uiso   1.00
C130   C     0.44921   0.18359   0.05224   0.00000  Uiso   1.00
C131   C     0.52793   0.15496   0.08812   0.00000  Uiso   1.00
C132   C     0.48212   0.12770   0.40853   0.00000  Uiso   1.00
C133   C     0.47732   0.21085   0.40552   0.00000  Uiso   1.00
C134   C     0.45427   0.18053   0.09877   0.00000  Uiso   1.00
C135   C     0.49395   0.16657   0.11636   0.00000  Uiso   1.00
C136   C     0.48515   0.16841   0.38401   0.00000  Uiso   1.00
C137   C     0.48365   0.17383   0.02463   0.00000  Uiso   1.00
C138   C     0.47692   0.17257   0.47658   0.00000  Uiso   1.00
C139   C     0.62546   0.16540   0.25690   0.00000  Uiso   1.00
C140   C     0.37680   0.16930   0.26758   0.00000  Uiso   1.00
O141   O     0.55804   0.15170   0.01586   0.00000  Uiso   1.00
H142   H     0.55362   0.16525   0.48583   0.00000  Uiso   1.00
O143   O     0.47401   0.08965   0.47874   0.00000  Uiso   1.00
H144   H     0.46195   0.09582   0.00870   0.00000  Uiso   1.00
O145   O     0.47404   0.25609   0.47100   0.00000  Uiso   1.00
H146   H     0.47385   0.25409   0.00403   0.00000  Uiso   1.00
O147   O     0.41109   0.19524   0.03228   0.00000  Uiso   1.00
H148   H     0.38944   0.20082   0.05540   0.00000  Uiso   1.00
O149   O     0.56655   0.13904   0.10372   0.00000  Uiso   1.00
H150   H     0.56412   0.12803   0.13482   0.00000  Uiso   1.00
O151   O     0.48461   0.08648   0.38625   0.00000  Uiso   1.00
H152   H     0.48203   0.06092   0.40740   0.00000  Uiso   1.00
O153   O     0.47176   0.25104   0.38236   0.00000  Uiso   1.00
H154   H     0.45038   0.24575   0.35884   0.00000  Uiso   1.00
O155   O     0.42001   0.19093   0.12561   0.00000  Uiso   1.00
H156   H     0.42469   0.17922   0.15630   0.00000  Uiso   1.00
C157   C     0.38268   0.09991   0.31755   0.00000  Uiso   1.00
C158   C     0.38939   0.05317   0.29537   0.00000  Uiso   1.00
C159   C     0.41926   0.02336   0.32343   0.00000  Uiso   1.00
H160   H     0.45017   0.03903   0.32569   0.00000  Uiso   1.00
H161   H     0.40701   0.01949   0.35787   0.00000  Uiso   1.00
H162   H     0.42352   0.32285   0.30757   0.00000  Uiso   1.00
H163   H     0.35935   0.03587   0.29115   0.00000  Uiso   1.00
H164   H     0.40265   0.05679   0.26137   0.00000  Uiso   1.00
H165   H     0.41356   0.11409   0.32584   0.00000  Uiso   1.00
H166   H     0.36801   0.09665   0.35097   0.00000  Uiso   1.00
C167   C     0.63049   0.23902   0.20771   0.00000  Uiso   1.00
C168   C     0.61671   0.21845   0.16293   0.00000  Uiso   1.00
C169   C     0.59859   0.25490   0.13143   0.00000  Uiso   1.00
H170   H     0.57054   0.27191   0.14665   0.00000  Uiso   1.00
H171   H     0.62235   0.28061   0.12432   0.00000  Uiso   1.00
H172   H     0.58910   0.23900   0.09931   0.00000  Uiso   1.00
H173   H     0.64402   0.20099   0.14664   0.00000  Uiso   1.00
H174   H     0.59244   0.19319   0.16845   0.00000  Uiso   1.00
H175   H     0.60499   0.25998   0.22317   0.00000  Uiso   1.00
H176   H     0.65534   0.26333   0.19978   0.00000  Uiso   1.00
C177   C     0.62245   0.10105   0.31621   0.00000  Uiso   1.00
C178   C     0.60620   0.12735   0.35728   0.00000  Uiso   1.00
C179   C     0.58915   0.09542   0.39245   0.00000  Uiso   1.00
H180   H     0.56487   0.07390   0.37752   0.00000  Uiso   1.00
H181   H     0.61485   0.07314   0.40617   0.00000  Uiso   1.00
H182   H     0.57513   0.11553   0.42036   0.00000  Uiso   1.00
H183   H     0.63209   0.14640   0.37277   0.00000  Uiso   1.00
H184   H     0.58125   0.15227   0.34697   0.00000  Uiso   1.00
H185   H     0.59714   0.08367   0.29878   0.00000  Uiso   1.00
H186   H     0.64194   0.07194   0.32817   0.00000  Uiso   1.00
C187   C     0.36026   0.25027   0.28661   0.00000  Uiso   1.00
C188   C     0.33334   0.24736   0.32921   0.00000  Uiso   1.00
C189   C     0.34148   0.28562   0.36216   0.00000  Uiso   1.00
H190   H     0.37461   0.28371   0.37362   0.00000  Uiso   1.00
H191   H     0.33411   0.31902   0.34643   0.00000  Uiso   1.00
H192   H     0.65442   0.28210   0.39188   0.00000  Uiso   1.00
H193   H     0.63287   0.24878   0.31994   0.00000  Uiso   1.00
H194   H     0.34033   0.21456   0.34651   0.00000  Uiso   1.00
H195   H     0.39356   0.25231   0.29683   0.00000  Uiso   1.00
H196   H     0.35177   0.28192   0.26805   0.00000  Uiso   1.00
O197   O     0.77226   0.20487   0.25000   0.00000  Uiso   1.00
O198   O     0.89441   0.12846   0.25000   0.00000  Uiso   1.00
O199   O     0.89441   0.20487   0.25000   0.00000  Uiso   1.00
O200   O     0.77226   0.12846   0.24999   0.00000  Uiso   1.00
N201   N     0.83333   0.28573   0.25000   0.00000  Uiso   1.00
N202   N     0.83333   0.04760   0.25000   0.00000  Uiso   1.00
C203   C     0.75374   0.16736   0.25589   0.00000  Uiso   1.00
C204   C     0.91382   0.16603   0.25138   0.00000  Uiso   1.00
O205   O     0.83333   0.20489   0.18453   0.00000  Uiso   1.00
O206   O     0.83334   0.12845   0.31547   0.00000  Uiso   1.00
O207   O     0.83334   0.20489   0.31547   0.00000  Uiso   1.00
O208   O     0.83333   0.12845   0.18453   0.00000  Uiso   1.00
C209   C     0.83340   0.16658   0.16396   0.00000  Uiso   1.00
C210   C     0.82915   0.16700   0.33619   0.00000  Uiso   1.00
Zn211  Zn    0.83333   0.21771   0.25000   0.00000  Uiso   1.00
Zn212  Zn    0.83333   0.11563   0.25000   0.00000  Uiso   1.00
H213   H     0.87287   0.04066   0.30703   0.00000  Uiso   1.00
H214   H     0.79297   0.29238   0.19355   0.00000  Uiso   1.00
H215   H     0.79321   0.04351   0.19335   0.00000  Uiso   1.00
H216   H     0.87360   0.28975   0.30652   0.00000  Uiso   1.00
C217   C     0.85574   0.02319   0.28137   0.00000  Uiso   1.00
C218   C     0.81096   0.31004   0.21856   0.00000  Uiso   1.00
C219   C     0.81111   0.02471   0.21844   0.00000  Uiso   1.00
C220   C     0.85579   0.30856   0.28135   0.00000  Uiso   1.00
C221   C     0.69042   0.13276   0.28796   0.00000  Uiso   1.00
C222   C     0.98101   0.20286   0.24013   0.00000  Uiso   1.00
C223   C     0.97963   0.13226   0.28523   0.00000  Uiso   1.00
C224   C     0.68724   0.20874   0.25732   0.00000  Uiso   1.00
C225   C     0.85664   0.16069   0.04232   0.00000  Uiso   1.00
C226   C     0.81008   0.12983   0.45506   0.00000  Uiso   1.00
C227   C     0.80922   0.21323   0.45179   0.00000  Uiso   1.00
C228   C     0.78255   0.18359   0.05224   0.00000  Uiso   1.00
C229   C     0.86126   0.15496   0.08812   0.00000  Uiso   1.00
C230   C     0.81545   0.12770   0.40853   0.00000  Uiso   1.00
C231   C     0.81065   0.21085   0.40552   0.00000  Uiso   1.00
C232   C     0.78761   0.18053   0.09877   0.00000  Uiso   1.00
C233   C     0.82728   0.16657   0.11636   0.00000  Uiso   1.00
C234   C     0.81848   0.16841   0.38401   0.00000  Uiso   1.00
C235   C     0.81698   0.17383   0.02463   0.00000  Uiso   1.00
C236   C     0.81025   0.17257   0.47658   0.00000  Uiso   1.00
C237   C     0.95880   0.16540   0.25690   0.00000  Uiso   1.00
C238   C     0.71014   0.16930   0.26758   0.00000  Uiso   1.00
O239   O     0.89138   0.15170   0.01586   0.00000  Uiso   1.00
H240   H     0.88696   0.16525   0.48583   0.00000  Uiso   1.00
O241   O     0.80735   0.08965   0.47874   0.00000  Uiso   1.00
H242   H     0.79528   0.09582   0.00870   0.00000  Uiso   1.00
O243   O     0.80737   0.25609   0.47100   0.00000  Uiso   1.00
H244   H     0.80719   0.25409   0.00403   0.00000  Uiso   1.00
O245   O     0.74443   0.19524   0.03228   0.00000  Uiso   1.00
H246   H     0.72278   0.20082   0.05540   0.00000  Uiso   1.00
O247   O     0.89988   0.13904   0.10372   0.00000  Uiso   1.00
H248   H     0.89745   0.12803   0.13482   0.00000  Uiso   1.00
O249   O     0.81794   0.08648   0.38625   0.00000  Uiso   1.00
H250   H     0.81536   0.06092   0.40740   0.00000  Uiso   1.00
O251   O     0.80510   0.25104   0.38236   0.00000  Uiso   1.00
H252   H     0.78371   0.24575   0.35884   0.00000  Uiso   1.00
O253   O     0.75334   0.19093   0.12561   0.00000  Uiso   1.00
H254   H     0.75802   0.17922   0.15630   0.00000  Uiso   1.00
C255   C     0.71601   0.09991   0.31755   0.00000  Uiso   1.00
C256   C     0.72273   0.05317   0.29537   0.00000  Uiso   1.00
C257   C     0.75259   0.02336   0.32343   0.00000  Uiso   1.00
H258   H     0.78350   0.03903   0.32569   0.00000  Uiso   1.00
H259   H     0.74035   0.01949   0.35787   0.00000  Uiso   1.00
H260   H     0.75685   0.32285   0.30757   0.00000  Uiso   1.00
H261   H     0.69268   0.03587   0.29115   0.00000  Uiso   1.00
H262   H     0.73598   0.05679   0.26137   0.00000  Uiso   1.00
H263   H     0.74690   0.11409   0.32584   0.00000  Uiso   1.00
H264   H     0.70135   0.09665   0.35097   0.00000  Uiso   1.00
C265   C     0.96383   0.23902   0.20771   0.00000  Uiso   1.00
C266   C     0.95005   0.21845   0.16293   0.00000  Uiso   1.00
C267   C     0.93192   0.25490   0.13143   0.00000  Uiso   1.00
H268   H     0.90388   0.27191   0.14665   0.00000  Uiso   1.00
H269   H     0.95568   0.28061   0.12432   0.00000  Uiso   1.00
H270   H     0.92244   0.23900   0.09931   0.00000  Uiso   1.00
H271   H     0.97736   0.20099   0.14664   0.00000  Uiso   1.00
H272   H     0.92577   0.19319   0.16845   0.00000  Uiso   1.00
H273   H     0.93832   0.25998   0.22317   0.00000  Uiso   1.00
H274   H     0.98868   0.26333   0.19978   0.00000  Uiso   1.00
C275   C     0.95578   0.10105   0.31621   0.00000  Uiso   1.00
C276   C     0.93954   0.12735   0.35728   0.00000  Uiso   1.00
C277   C     0.92248   0.09542   0.39245   0.00000  Uiso   1.00
H278   H     0.89820   0.07390   0.37752   0.00000  Uiso   1.00
H279   H     0.94818   0.07314   0.40617   0.00000  Uiso   1.00
H280   H     0.90846   0.11553   0.42036   0.00000  Uiso   1.00
H281   H     0.96542   0.14640   0.37277   0.00000  Uiso   1.00
H282   H     0.91459   0.15227   0.34697   0.00000  Uiso   1.00
H283   H     0.93047   0.08367   0.29878   0.00000  Uiso   1.00
H284   H     0.97527   0.07194   0.32817   0.00000  Uiso   1.00
C285   C     0.69359   0.25027   0.28661   0.00000  Uiso   1.00
C286   C     0.66668   0.24736   0.32921   0.00000  Uiso   1.00
C287   C     0.67482   0.28562   0.36216   0.00000  Uiso   1.00
H288   H     0.70795   0.28371   0.37362   0.00000  Uiso   1.00
H289   H     0.66745   0.31902   0.34643   0.00000  Uiso   1.00
H290   H     0.98775   0.28210   0.39188   0.00000  Uiso   1.00
H291   H     0.96621   0.24878   0.31994   0.00000  Uiso   1.00
H292   H     0.67367   0.21456   0.34651   0.00000  Uiso   1.00
H293   H     0.72689   0.25231   0.29683   0.00000  Uiso   1.00
H294   H     0.68510   0.28192   0.26805   0.00000  Uiso   1.00
O295   O     0.10559   0.53821   0.25000   0.00000  Uiso   1.00
O296   O     0.22774   0.46179   0.25000   0.00000  Uiso   1.00
O297   O     0.22774   0.53821   0.25000   0.00000  Uiso   1.00
O298   O     0.10559   0.46179   0.24999   0.00000  Uiso   1.00
N299   N     0.16667   0.61907   0.25000   0.00000  Uiso   1.00
N300   N     0.16667   0.38093   0.25000   0.00000  Uiso   1.00
C301   C     0.08708   0.50069   0.25589   0.00000  Uiso   1.00
C302   C     0.24715   0.49937   0.25138   0.00000  Uiso   1.00
O303   O     0.16666   0.53822   0.18453   0.00000  Uiso   1.00
O304   O     0.16667   0.46178   0.31547   0.00000  Uiso   1.00
O305   O     0.16667   0.53822   0.31547   0.00000  Uiso   1.00
O306   O     0.16666   0.46178   0.18453   0.00000  Uiso   1.00
C307   C     0.16674   0.49991   0.16396   0.00000  Uiso   1.00
C308   C     0.16249   0.50033   0.33619   0.00000  Uiso   1.00
Zn309  Zn    0.16667   0.55104   0.25000   0.00000  Uiso   1.00
Zn310  Zn    0.16667   0.44896   0.25000   0.00000  Uiso   1.00
H311   H     0.20621   0.37400   0.30703   0.00000  Uiso   1.00
H312   H     0.12631   0.62572   0.19355   0.00000  Uiso   1.00
H313   H     0.12655   0.37684   0.19335   0.00000  Uiso   1.00
H314   H     0.20693   0.62309   0.30652   0.00000  Uiso   1.00
C315   C     0.18908   0.35652   0.28137   0.00000  Uiso   1.00
C316   C     0.14430   0.64337   0.21856   0.00000  Uiso   1.00
C317   C     0.14445   0.35804   0.21844   0.00000  Uiso   1.00
C318   C     0.18913   0.64189   0.28135   0.00000  Uiso   1.00
C319   C     0.02375   0.46609   0.28796   0.00000  Uiso   1.00
C320   C     0.31434   0.53619   0.24013   0.00000  Uiso   1.00
C321   C     0.31296   0.46560   0.28523   0.00000  Uiso   1.00
C322   C     0.02058   0.54208   0.25732   0.00000  Uiso   1.00
C323   C     0.18997   0.49402   0.04232   0.00000  Uiso   1.00
C324   C     0.14342   0.46316   0.45506   0.00000  Uiso   1.00
C325   C     0.14255   0.54656   0.45179   0.00000  Uiso   1.00
C326   C     0.11588   0.51692   0.05224   0.00000  Uiso   1.00
C327   C     0.19460   0.48829   0.08812   0.00000  Uiso   1.00
C328   C     0.14879   0.46104   0.40853   0.00000  Uiso   1.00
C329   C     0.14399   0.54418   0.40552   0.00000  Uiso   1.00
C330   C     0.12094   0.51386   0.09877   0.00000  Uiso   1.00
C331   C     0.16061   0.49990   0.11636   0.00000  Uiso   1.00
C332   C     0.15182   0.50175   0.38401   0.00000  Uiso   1.00
C333   C     0.15031   0.50716   0.02463   0.00000  Uiso   1.00
C334   C     0.14358   0.50590   0.47658   0.00000  Uiso   1.00
C335   C     0.29213   0.49874   0.25690   0.00000  Uiso   1.00
C336   C     0.04347   0.50263   0.26758   0.00000  Uiso   1.00
O337   O     0.22471   0.48503   0.01586   0.00000  Uiso   1.00
H338   H     0.22029   0.49859   0.48583   0.00000  Uiso   1.00
O339   O     0.14068   0.42299   0.47874   0.00000  Uiso   1.00
H340   H     0.12861   0.42915   0.00870   0.00000  Uiso   1.00
O341   O     0.14070   0.58942   0.47100   0.00000  Uiso   1.00
H342   H     0.14052   0.58742   0.00403   0.00000  Uiso   1.00
O343   O     0.07776   0.52857   0.03228   0.00000  Uiso   1.00
H344   H     0.05611   0.53415   0.05540   0.00000  Uiso   1.00
O345   O     0.23322   0.47238   0.10372   0.00000  Uiso   1.00
H346   H     0.23079   0.46136   0.13482   0.00000  Uiso   1.00
O347   O     0.15128   0.41981   0.38625   0.00000  Uiso   1.00
H348   H     0.14869   0.39425   0.40740   0.00000  Uiso   1.00
O349   O     0.13843   0.58437   0.38236   0.00000  Uiso   1.00
H350   H     0.11705   0.57908   0.35884   0.00000  Uiso   1.00
O351   O     0.08668   0.52427   0.12561   0.00000  Uiso   1.00
H352   H     0.09135   0.51255   0.15630   0.00000  Uiso   1.00
C353   C     0.04935   0.43325   0.31755   0.00000  Uiso   1.00
C354   C     0.05606   0.38650   0.29537   0.00000  Uiso   1.00
C355   C     0.08593   0.35669   0.32343   0.00000  Uiso   1.00
H356   H     0.11684   0.37237   0.32569   0.00000  Uiso   1.00
H357   H     0.07368   0.35282   0.35787   0.00000  Uiso   1.00
H358   H     0.09018   0.65618   0.30757   0.00000  Uiso   1.00
H359   H     0.02601   0.36921   0.29115   0.00000  Uiso   1.00
H360   H     0.06932   0.39012   0.26137   0.00000  Uiso   1.00
H361   H     0.08023   0.44743   0.32584   0.00000  Uiso   1.00
H362   H     0.03468   0.42998   0.35097   0.00000  Uiso   1.00
C363   C     0.29716   0.57235   0.20771   0.00000  Uiso   1.00
C364   C     0.28338   0.55178   0.16293   0.00000  Uiso   1.00
C365   C     0.26526   0.58823   0.13143   0.00000  Uiso   1.00
H366   H     0.23721   0.60524   0.14665   0.00000  Uiso   1.00
H367   H     0.28901   0.61394   0.12432   0.00000  Uiso   1.00
H368   H     0.25577   0.57233   0.09931   0.00000  Uiso   1.00
H369   H     0.31069   0.53433   0.14664   0.00000  Uiso   1.00
H370   H     0.25911   0.52652   0.16845   0.00000  Uiso   1.00
H371   H     0.27165   0.59331   0.22317   0.00000  Uiso   1.00
H372   H     0.32201   0.59666   0.19978   0.00000  Uiso   1.00
C373   C     0.28912   0.43438   0.31621   0.00000  Uiso   1.00
C374   C     0.27287   0.46069   0.35728   0.00000  Uiso   1.00
C375   C     0.25582   0.42875   0.39245   0.00000  Uiso   1.00
H376   H     0.23153   0.40723   0.37752   0.00000  Uiso   1.00
H377   H     0.28151   0.40647   0.40617   0.00000  Uiso   1.00
H378   H     0.24179   0.44886   0.42036   0.00000  Uiso   1.00
H379   H     0.29875   0.47973   0.37277   0.00000  Uiso   1.00
H380   H     0.24792   0.48560   0.34697   0.00000  Uiso   1.00
H381   H     0.26381   0.41701   0.29878   0.00000  Uiso   1.00
H382   H     0.30861   0.40527   0.32817   0.00000  Uiso   1.00
C383   C     0.02693   0.58361   0.28661   0.00000  Uiso   1.00
C384   C     0.00001   0.58069   0.32921   0.00000  Uiso   1.00
C385   C     0.00815   0.61895   0.36216   0.00000  Uiso   1.00
H386   H     0.04128   0.61704   0.37362   0.00000  Uiso   1.00
H387   H     0.00078   0.65235   0.34643   0.00000  Uiso   1.00
H388   H     0.32108   0.61543   0.39188   0.00000  Uiso   1.00
H389   H     0.29954   0.58211   0.31994   0.00000  Uiso   1.00
H390   H     0.00700   0.54790   0.34651   0.00000  Uiso   1.00
H391   H     0.06022   0.58565   0.29683   0.00000  Uiso   1.00
H392   H     0.01843   0.61525   0.26805   0.00000  Uiso   1.00
O393   O     0.43892   0.53821   0.25000   0.00000  Uiso   1.00
O394   O     0.56108   0.46179   0.25000   0.00000  Uiso   1.00
O395   O     0.56108   0.53821   0.25000   0.00000  Uiso   1.00
O396   O     0.43892   0.46179   0.24999   0.00000  Uiso   1.00
N397   N     0.50000   0.61907   0.25000   0.00000  Uiso   1.00
N398   N     0.50000   0.38093   0.25000   0.00000  Uiso   1.00
C399   C     0.42041   0.50069   0.25589   0.00000  Uiso   1.00
C400   C     0.58049   0.49937   0.25138   0.00000  Uiso   1.00
O401   O     0.50000   0.53822   0.18453   0.00000  Uiso   1.00
O402   O     0.50000   0.46178   0.31547   0.00000  Uiso   1.00
O403   O     0.50000   0.53822   0.31547   0.00000  Uiso   1.00
O404   O     0.50000   0.46178   0.18453   0.00000  Uiso   1.00
C405   C     0.50007   0.49991   0.16396   0.00000  Uiso   1.00
C406   C     0.49582   0.50033   0.33619   0.00000  Uiso   1.00
Zn407  Zn    0.50000   0.55104   0.25000   0.00000  Uiso   1.00
Zn408  Zn    0.50000   0.44896   0.25000   0.00000  Uiso   1.00
H409   H     0.53954   0.37400   0.30703   0.00000  Uiso   1.00
H410   H     0.45964   0.62572   0.19355   0.00000  Uiso   1.00
H411   H     0.45988   0.37684   0.19335   0.00000  Uiso   1.00
H412   H     0.54026   0.62309   0.30652   0.00000  Uiso   1.00
C413   C     0.52241   0.35652   0.28137   0.00000  Uiso   1.00
C414   C     0.47763   0.64337   0.21856   0.00000  Uiso   1.00
C415   C     0.47778   0.35804   0.21844   0.00000  Uiso   1.00
C416   C     0.52246   0.64189   0.28135   0.00000  Uiso   1.00
C417   C     0.35709   0.46609   0.28796   0.00000  Uiso   1.00
C418   C     0.64767   0.53619   0.24013   0.00000  Uiso   1.00
C419   C     0.64629   0.46560   0.28523   0.00000  Uiso   1.00
C420   C     0.35391   0.54208   0.25732   0.00000  Uiso   1.00
C421   C     0.52331   0.49402   0.04232   0.00000  Uiso   1.00
C422   C     0.47675   0.46316   0.45506   0.00000  Uiso   1.00
C423   C     0.47588   0.54656   0.45179   0.00000  Uiso   1.00
C424   C     0.44921   0.51692   0.05224   0.00000  Uiso   1.00
C425   C     0.52793   0.48829   0.08812   0.00000  Uiso   1.00
C426   C     0.48212   0.46104   0.40853   0.00000  Uiso   1.00
C427   C     0.47732   0.54418   0.40552   0.00000  Uiso   1.00
C428   C     0.45427   0.51386   0.09877   0.00000  Uiso   1.00
C429   C     0.49395   0.49990   0.11636   0.00000  Uiso   1.00
C430   C     0.48515   0.50175   0.38401   0.00000  Uiso   1.00
C431   C     0.48365   0.50716   0.02463   0.00000  Uiso   1.00
C432   C     0.47692   0.50590   0.47658   0.00000  Uiso   1.00
C433   C     0.62546   0.49874   0.25690   0.00000  Uiso   1.00
C434   C     0.37680   0.50263   0.26758   0.00000  Uiso   1.00
O435   O     0.55804   0.48503   0.01586   0.00000  Uiso   1.00
H436   H     0.55362   0.49859   0.48583   0.00000  Uiso   1.00
O437   O     0.47401   0.42299   0.47874   0.00000  Uiso   1.00
H438   H     0.46195   0.42915   0.00870   0.00000  Uiso   1.00
O439   O     0.47404   0.58942   0.47100   0.00000  Uiso   1.00
H440   H     0.47385   0.58742   0.00403   0.00000  Uiso   1.00
O441   O     0.41109   0.52857   0.03228   0.00000  Uiso   1.00
H442   H     0.38944   0.53415   0.05540   0.00000  Uiso   1.00
O443   O     0.56655   0.47238   0.10372   0.00000  Uiso   1.00
H444   H     0.56412   0.46136   0.13482   0.00000  Uiso   1.00
O445   O     0.48461   0.41981   0.38625   0.00000  Uiso   1.00
H446   H     0.48203   0.39425   0.40740   0.00000  Uiso   1.00
O447   O     0.47176   0.58437   0.38236   0.00000  Uiso   1.00
H448   H     0.45038   0.57908   0.35884   0.00000  Uiso   1.00
O449   O     0.42001   0.52427   0.12561   0.00000  Uiso   1.00
H450   H     0.42469   0.51255   0.15630   0.00000  Uiso   1.00
C451   C     0.38268   0.43325   0.31755   0.00000  Uiso   1.00
C452   C     0.38939   0.38650   0.29537   0.00000  Uiso   1.00
C453   C     0.41926   0.35669   0.32343   0.00000  Uiso   1.00
H454   H     0.45017   0.37237   0.32569   0.00000  Uiso   1.00
H455   H     0.40701   0.35282   0.35787   0.00000  Uiso   1.00
H456   H     0.42352   0.65618   0.30757   0.00000  Uiso   1.00
H457   H     0.35935   0.36921   0.29115   0.00000  Uiso   1.00
H458   H     0.40265   0.39012   0.26137   0.00000  Uiso   1.00
H459   H     0.41356   0.44743   0.32584   0.00000  Uiso   1.00
H460   H     0.36801   0.42998   0.35097   0.00000  Uiso   1.00
C461   C     0.63049   0.57235   0.20771   0.00000  Uiso   1.00
C462   C     0.61671   0.55178   0.16293   0.00000  Uiso   1.00
C463   C     0.59859   0.58823   0.13143   0.00000  Uiso   1.00
H464   H     0.57054   0.60524   0.14665   0.00000  Uiso   1.00
H465   H     0.62235   0.61394   0.12432   0.00000  Uiso   1.00
H466   H     0.58910   0.57233   0.09931   0.00000  Uiso   1.00
H467   H     0.64402   0.53433   0.14664   0.00000  Uiso   1.00
H468   H     0.59244   0.52652   0.16845   0.00000  Uiso   1.00
H469   H     0.60499   0.59331   0.22317   0.00000  Uiso   1.00
H470   H     0.65534   0.59666   0.19978   0.00000  Uiso   1.00
C471   C     0.62245   0.43438   0.31621   0.00000  Uiso   1.00
C472   C     0.60620   0.46069   0.35728   0.00000  Uiso   1.00
C473   C     0.58915   0.42875   0.39245   0.00000  Uiso   1.00
H474   H     0.56487   0.40723   0.37752   0.00000  Uiso   1.00
H475   H     0.61485   0.40647   0.40617   0.00000  Uiso   1.00
H476   H     0.57513   0.44886   0.42036   0.00000  Uiso   1.00
H477   H     0.63209   0.47973   0.37277   0.00000  Uiso   1.00
H478   H     0.58125   0.48560   0.34697   0.00000  Uiso   1.00
H479   H     0.59714   0.41701   0.29878   0.00000  Uiso   1.00
H480   H     0.64194   0.40527   0.32817   0.00000  Uiso   1.00
C481   C     0.36026   0.58361   0.28661   0.00000  Uiso   1.00
C482   C     0.33334   0.58069   0.32921   0.00000  Uiso   1.00
C483   C     0.34148   0.61895   0.36216   0.00000  Uiso   1.00
H484   H     0.37461   0.61704   0.37362   0.00000  Uiso   1.00
H485   H     0.33411   0.65235   0.34643   0.00000  Uiso   1.00
H486   H     0.65442   0.61543   0.39188   0.00000  Uiso   1.00
H487   H     0.63287   0.58211   0.31994   0.00000  Uiso   1.00
H488   H     0.34033   0.54790   0.34651   0.00000  Uiso   1.00
H489   H     0.39356   0.58565   0.29683   0.00000  Uiso   1.00
H490   H     0.35177   0.61525   0.26805   0.00000  Uiso   1.00
O491   O     0.77226   0.53821   0.25000   0.00000  Uiso   1.00
O492   O     0.89441   0.46179   0.25000   0.00000  Uiso   1.00
O493   O     0.89441   0.53821   0.25000   0.00000  Uiso   1.00
O494   O     0.77226   0.46179   0.24999   0.00000  Uiso   1.00
N495   N     0.83333   0.61907   0.25000   0.00000  Uiso   1.00
N496   N     0.83333   0.38093   0.25000   0.00000  Uiso   1.00
C497   C     0.75374   0.50069   0.25589   0.00000  Uiso   1.00
C498   C     0.91382   0.49937   0.25138   0.00000  Uiso   1.00
O499   O     0.83333   0.53822   0.18453   0.00000  Uiso   1.00
O500   O     0.83334   0.46178   0.31547   0.00000  Uiso   1.00
O501   O     0.83334   0.53822   0.31547   0.00000  Uiso   1.00
O502   O     0.83333   0.46178   0.18453   0.00000  Uiso   1.00
C503   C     0.83340   0.49991   0.16396   0.00000  Uiso   1.00
C504   C     0.82915   0.50033   0.33619   0.00000  Uiso   1.00
Zn505  Zn    0.83333   0.55104   0.25000   0.00000  Uiso   1.00
Zn506  Zn    0.83333   0.44896   0.25000   0.00000  Uiso   1.00
H507   H     0.87287   0.37400   0.30703   0.00000  Uiso   1.00
H508   H     0.79297   0.62572   0.19355   0.00000  Uiso   1.00
H509   H     0.79321   0.37684   0.19335   0.00000  Uiso   1.00
H510   H     0.87360   0.62309   0.30652   0.00000  Uiso   1.00
C511   C     0.85574   0.35652   0.28137   0.00000  Uiso   1.00
C512   C     0.81096   0.64337   0.21856   0.00000  Uiso   1.00
C513   C     0.81111   0.35804   0.21844   0.00000  Uiso   1.00
C514   C     0.85579   0.64189   0.28135   0.00000  Uiso   1.00
C515   C     0.69042   0.46609   0.28796   0.00000  Uiso   1.00
C516   C     0.98101   0.53619   0.24013   0.00000  Uiso   1.00
C517   C     0.97963   0.46560   0.28523   0.00000  Uiso   1.00
C518   C     0.68724   0.54208   0.25732   0.00000  Uiso   1.00
C519   C     0.85664   0.49402   0.04232   0.00000  Uiso   1.00
C520   C     0.81008   0.46316   0.45506   0.00000  Uiso   1.00
C521   C     0.80922   0.54656   0.45179   0.00000  Uiso   1.00
C522   C     0.78255   0.51692   0.05224   0.00000  Uiso   1.00
C523   C     0.86126   0.48829   0.08812   0.00000  Uiso   1.00
C524   C     0.81545   0.46104   0.40853   0.00000  Uiso   1.00
C525   C     0.81065   0.54418   0.40552   0.00000  Uiso   1.00
C526   C     0.78761   0.51386   0.09877   0.00000  Uiso   1.00
C527   C     0.82728   0.49990   0.11636   0.00000  Uiso   1.00
C528   C     0.81848   0.50175   0.38401   0.00000  Uiso   1.00
C529   C     0.81698   0.50716   0.02463   0.00000  Uiso   1.00
C530   C     0.81025   0.50590   0.47658   0.00000  Uiso   1.00
C531   C     0.95880   0.49874   0.25690   0.00000  Uiso   1.00
C532   C     0.71014   0.50263   0.26758   0.00000  Uiso   1.00
O533   O     0.89138   0.48503   0.01586   0.00000  Uiso   1.00
H534   H     0.88696   0.49859   0.48583   0.00000  Uiso   1.00
O535   O     0.80735   0.42299   0.47874   0.00000  Uiso   1.00
H536   H     0.79528   0.42915   0.00870   0.00000  Uiso   1.00
O537   O     0.80737   0.58942   0.47100   0.00000  Uiso   1.00
H538   H     0.80719   0.58742   0.00403   0.00000  Uiso   1.00
O539   O     0.74443   0.52857   0.03228   0.00000  Uiso   1.00
H540   H     0.72278   0.53415   0.05540   0.00000  Uiso   1.00
O541   O     0.89988   0.47238   0.10372   0.00000  Uiso   1.00
H542   H     0.89745   0.46136   0.13482   0.00000  Uiso   1.00
O543   O     0.81794   0.41981   0.38625   0.00000  Uiso   1.00
H544   H     0.81536   0.39425   0.40740   0.00000  Uiso   1.00
O545   O     0.80510   0.58437   0.38236   0.00000  Uiso   1.00
H546   H     0.78371   0.57908   0.35884   0.00000  Uiso   1.00
O547   O     0.75334   0.52427   0.12561   0.00000  Uiso   1.00
H548   H     0.75802   0.51255   0.15630   0.00000  Uiso   1.00
C549   C     0.71601   0.43325   0.31755   0.00000  Uiso   1.00
C550   C     0.72273   0.38650   0.29537   0.00000  Uiso   1.00
C551   C     0.75259   0.35669   0.32343   0.00000  Uiso   1.00
H552   H     0.78350   0.37237   0.32569   0.00000  Uiso   1.00
H553   H     0.74035   0.35282   0.35787   0.00000  Uiso   1.00
H554   H     0.75685   0.65618   0.30757   0.00000  Uiso   1.00
H555   H     0.69268   0.36921   0.29115   0.00000  Uiso   1.00
H556   H     0.73598   0.39012   0.26137   0.00000  Uiso   1.00
H557   H     0.74690   0.44743   0.32584   0.00000  Uiso   1.00
H558   H     0.70135   0.42998   0.35097   0.00000  Uiso   1.00
C559   C     0.96383   0.57235   0.20771   0.00000  Uiso   1.00
C560   C     0.95005   0.55178   0.16293   0.00000  Uiso   1.00
C561   C     0.93192   0.58823   0.13143   0.00000  Uiso   1.00
H562   H     0.90388   0.60524   0.14665   0.00000  Uiso   1.00
H563   H     0.95568   0.61394   0.12432   0.00000  Uiso   1.00
H564   H     0.92244   0.57233   0.09931   0.00000  Uiso   1.00
H565   H     0.97736   0.53433   0.14664   0.00000  Uiso   1.00
H566   H     0.92577   0.52652   0.16845   0.00000  Uiso   1.00
H567   H     0.93832   0.59331   0.22317   0.00000  Uiso   1.00
H568   H     0.98868   0.59666   0.19978   0.00000  Uiso   1.00
C569   C     0.95578   0.43438   0.31621   0.00000  Uiso   1.00
C570   C     0.93954   0.46069   0.35728   0.00000  Uiso   1.00
C571   C     0.92248   0.42875   0.39245   0.00000  Uiso   1.00
H572   H     0.89820   0.40723   0.37752   0.00000  Uiso   1.00
H573   H     0.94818   0.40647   0.40617   0.00000  Uiso   1.00
H574   H     0.90846   0.44886   0.42036   0.00000  Uiso   1.00
H575   H     0.96542   0.47973   0.37277   0.00000  Uiso   1.00
H576   H     0.91459   0.48560   0.34697   0.00000  Uiso   1.00
H577   H     0.93047   0.41701   0.29878   0.00000  Uiso   1.00
H578   H     0.97527   0.40527   0.32817   0.00000  Uiso   1.00
C579   C     0.69359   0.58361   0.28661   0.00000  Uiso   1.00
C580   C     0.66668   0.58069   0.32921   0.00000  Uiso   1.00
C581   C     0.67482   0.61895   0.36216   0.00000  Uiso   1.00
H582   H     0.70795   0.61704   0.37362   0.00000  Uiso   1.00
H583   H     0.66745   0.65235   0.34643   0.00000  Uiso   1.00
H584   H     0.98775   0.61543   0.39188   0.00000  Uiso   1.00
H585   H     0.96621   0.58211   0.31994   0.00000  Uiso   1.00
H586   H     0.67367   0.54790   0.34651   0.00000  Uiso   1.00
H587   H     0.72689   0.58565   0.29683   0.00000  Uiso   1.00
H588   H     0.68510   0.61525   0.26805   0.00000  Uiso   1.00
O589   O     0.10559   0.87154   0.25000   0.00000  Uiso   1.00
O590   O     0.22774   0.79513   0.25000   0.00000  Uiso   1.00
O591   O     0.22774   0.87154   0.25000   0.00000  Uiso   1.00
O592   O     0.10559   0.79513   0.24999   0.00000  Uiso   1.00
N593   N     0.16667   0.95240   0.25000   0.00000  Uiso   1.00
N594   N     0.16667   0.71427   0.25000   0.00000  Uiso   1.00
C595   C     0.08708   0.83403   0.25589   0.00000  Uiso   1.00
C596   C     0.24715   0.83270   0.25138   0.00000  Uiso   1.00
O597   O     0.16666   0.87155   0.18453   0.00000  Uiso   1.00
O598   O     0.16667   0.79511   0.31547   0.00000  Uiso   1.00
O599   O     0.16667   0.87155   0.31547   0.00000  Uiso   1.00
O600   O     0.16666   0.79511   0.18453   0.00000  Uiso   1.00
C601   C     0.16674   0.83325   0.16396   0.00000  Uiso   1.00
C602   C     0.16249   0.83367   0.33619   0.00000  Uiso   1.00
Zn603  Zn    0.16667   0.88437   0.25000   0.00000  Uiso   1.00
Zn604  Zn    0.16667   0.78229   0.25000   0.00000  Uiso   1.00
H605   H     0.20621   0.70733   0.30703   0.00000  Uiso   1.00
H606   H     0.12631   0.95905   0.19355   0.00000  Uiso   1.00
H607   H     0.12655   0.71017   0.19335   0.00000  Uiso   1.00
H608   H     0.20693   0.95642   0.30652   0.00000  Uiso   1.00
C609   C     0.18908   0.68986   0.28137   0.00000  Uiso   1.00
C610   C     0.14430   0.97671   0.21856   0.00000  Uiso   1.00
C611   C     0.14445   0.69137   0.21844   0.00000  Uiso   1.00
C612   C     0.18913   0.97523   0.28135   0.00000  Uiso   1.00
C613   C     0.02375   0.79942   0.28796   0.00000  Uiso   1.00
C614   C     0.31434   0.86952   0.24013   0.00000  Uiso   1.00
C615   C     0.31296   0.79893   0.28523   0.00000  Uiso   1.00
C616   C     0.02058   0.87541   0.25732   0.00000  Uiso   1.00
C617   C     0.18997   0.82735   0.04232   0.00000  Uiso   1.00
C618   C     0.14342   0.79649   0.45506   0.00000  Uiso   1.00
C619   C     0.14255   0.87990   0.45179   0.00000  Uiso   1.00
C620   C     0.11588   0.85025   0.05224   0.00000  Uiso   1.00
C621   C     0.19460   0.82162   0.08812   0.00000  Uiso   1.00
C622   C     0.14879   0.79437   0.40853   0.00000  Uiso   1.00
C623   C     0.14399   0.87752   0.40552   0.00000  Uiso   1.00
C624   C     0.12094   0.84719   0.09877   0.00000  Uiso   1.00
C625   C     0.16061   0.83323   0.11636   0.00000  Uiso   1.00
C626   C     0.15182   0.83508   0.38401   0.00000  Uiso   1.00
C627   C     0.15031   0.84050   0.02463   0.00000  Uiso   1.00
C628   C     0.14358   0.83923   0.47658   0.00000  Uiso   1.00
C629   C     0.29213   0.83207   0.25690   0.00000  Uiso   1.00
C630   C     0.04347   0.83597   0.26758   0.00000  Uiso   1.00
O631   O     0.22471   0.81837   0.01586   0.00000  Uiso   1.00
H632   H     0.22029   0.83192   0.48583   0.00000  Uiso   1.00
O633   O     0.14068   0.75632   0.47874   0.00000  Uiso   1.00
H634   H     0.12861   0.76248   0.00870   0.00000  Uiso   1.00
O635   O     0.14070   0.92275   0.47100   0.00000  Uiso   1.00
H636   H     0.14052   0.92075   0.00403   0.00000  Uiso   1.00
O637   O     0.07776   0.86190   0.03228   0.00000  Uiso   1.00
H638   H     0.05611   0.86749   0.05540   0.00000  Uiso   1.00
O639   O     0.23322   0.80571   0.10372   0.00000  Uiso   1.00
H640   H     0.23079   0.79469   0.13482   0.00000  Uiso   1.00
O641   O     0.15128   0.75315   0.38625   0.00000  Uiso   1.00
H642   H     0.14869   0.72758   0.40740   0.00000  Uiso   1.00
O643   O     0.13843   0.91770   0.38236   0.00000  Uiso   1.00
H644   H     0.11705   0.91242   0.35884   0.00000  Uiso   1.00
O645   O     0.08668   0.85760   0.12561   0.00000  Uiso   1.00
H646   H     0.09135   0.84588   0.15630   0.00000  Uiso   1.00
C647   C     0.04935   0.76658   0.31755   0.00000  Uiso   1.00
C648   C     0.05606   0.71983   0.29537   0.00000  Uiso   1.00
C649   C     0.08593   0.69002   0.32343   0.00000  Uiso   1.00
H650   H     0.11684   0.70570   0.32569   0.00000  Uiso   1.00
H651   H     0.07368   0.68616   0.35787   0.00000  Uiso   1.00
H652   H     0.09018   0.98952   0.30757   0.00000  Uiso   1.00
H653   H     0.02601   0.70254   0.29115   0.00000  Uiso   1.00
H654   H     0.06932   0.72345   0.26137   0.00000  Uiso   1.00
H655   H     0.08023   0.78076   0.32584   0.00000  Uiso   1.00
H656   H     0.03468   0.76332   0.35097   0.00000  Uiso   1.00
C657   C     0.29716   0.90568   0.20771   0.00000  Uiso   1.00
C658   C     0.28338   0.88512   0.16293   0.00000  Uiso   1.00
C659   C     0.26526   0.92156   0.13143   0.00000  Uiso   1.00
H660   H     0.23721   0.93857   0.14665   0.00000  Uiso   1.00
H661   H     0.28901   0.94728   0.12432   0.00000  Uiso   1.00
H662   H     0.25577   0.90567   0.09931   0.00000  Uiso   1.00
H663   H     0.31069   0.86766   0.14664   0.00000  Uiso   1.00
H664   H     0.25911   0.85986   0.16845   0.00000  Uiso   1.00
H665   H     0.27165   0.92665   0.22317   0.00000  Uiso   1.00
H666   H     0.32201   0.92999   0.19978   0.00000  Uiso   1.00
C667   C     0.28912   0.76771   0.31621   0.00000  Uiso   1.00
C668   C     0.27287   0.79402   0.35728   0.00000  Uiso   1.00
C669   C     0.25582   0.76208   0.39245   0.00000  Uiso   1.00
H670   H     0.23153   0.74056   0.37752   0.00000  Uiso   1.00
H671   H     0.28151   0.73980   0.40617   0.00000  Uiso   1.00
H672   H     0.24179   0.78220   0.42036   0.00000  Uiso   1.00
H673   H     0.29875   0.81307   0.37277   0.00000  Uiso   1.00
H674   H     0.24792   0.81894   0.34697   0.00000  Uiso   1.00
H675   H     0.26381   0.75034   0.29878   0.00000  Uiso   1.00
H676   H     0.30861   0.73861   0.32817   0.00000  Uiso   1.00
C677   C     0.02693   0.91694   0.28661   0.00000  Uiso   1.00
C678   C     0.00001   0.91403   0.32921   0.00000  Uiso   1.00
C679   C     0.00815   0.95228   0.36216   0.00000  Uiso   1.00
H680   H     0.04128   0.95037   0.37362   0.00000  Uiso   1.00
H681   H     0.00078   0.98569   0.34643   0.00000  Uiso   1.00
H682   H     0.32108   0.94876   0.39188   0.00000  Uiso   1.00
H683   H     0.29954   0.91545   0.31994   0.00000  Uiso   1.00
H684   H     0.00700   0.88123   0.34651   0.00000  Uiso   1.00
H685   H     0.06022   0.91898   0.29683   0.00000  Uiso   1.00
H686   H     0.01843   0.94858   0.26805   0.00000  Uiso   1.00
O687   O     0.43892   0.87154   0.25000   0.00000  Uiso   1.00
O688   O     0.56108   0.79513   0.25000   0.00000  Uiso   1.00
O689   O     0.56108   0.87154   0.25000   0.00000  Uiso   1.00
O690   O     0.43892   0.79513   0.24999   0.00000  Uiso   1.00
N691   N     0.50000   0.95240   0.25000   0.00000  Uiso   1.00
N692   N     0.50000   0.71427   0.25000   0.00000  Uiso   1.00
C693   C     0.42041   0.83403   0.25589   0.00000  Uiso   1.00
C694   C     0.58049   0.83270   0.25138   0.00000  Uiso   1.00
O695   O     0.50000   0.87155   0.18453   0.00000  Uiso   1.00
O696   O     0.50000   0.79511   0.31547   0.00000  Uiso   1.00
O697   O     0.50000   0.87155   0.31547   0.00000  Uiso   1.00
O698   O     0.50000   0.79511   0.18453   0.00000  Uiso   1.00
C699   C     0.50007   0.83325   0.16396   0.00000  Uiso   1.00
C700   C     0.49582   0.83367   0.33619   0.00000  Uiso   1.00
Zn701  Zn    0.50000   0.88437   0.25000   0.00000  Uiso   1.00
Zn702  Zn    0.50000   0.78229   0.25000   0.00000  Uiso   1.00
H703   H     0.53954   0.70733   0.30703   0.00000  Uiso   1.00
H704   H     0.45964   0.95905   0.19355   0.00000  Uiso   1.00
H705   H     0.45988   0.71017   0.19335   0.00000  Uiso   1.00
H706   H     0.54026   0.95642   0.30652   0.00000  Uiso   1.00
C707   C     0.52241   0.68986   0.28137   0.00000  Uiso   1.00
C708   C     0.47763   0.97671   0.21856   0.00000  Uiso   1.00
C709   C     0.47778   0.69137   0.21844   0.00000  Uiso   1.00
C710   C     0.52246   0.97523   0.28135   0.00000  Uiso   1.00
C711   C     0.35709   0.79942   0.28796   0.00000  Uiso   1.00
C712   C     0.64767   0.86952   0.24013   0.00000  Uiso   1.00
C713   C     0.64629   0.79893   0.28523   0.00000  Uiso   1.00
C714   C     0.35391   0.87541   0.25732   0.00000  Uiso   1.00
C715   C     0.52331   0.82735   0.04232   0.00000  Uiso   1.00
C716   C     0.47675   0.79649   0.45506   0.00000  Uiso   1.00
C717   C     0.47588   0.87990   0.45179   0.00000  Uiso   1.00
C718   C     0.44921   0.85025   0.05224   0.00000  Uiso   1.00
C719   C     0.52793   0.82162   0.08812   0.00000  Uiso   1.00
C720   C     0.48212   0.79437   0.40853   0.00000  Uiso   1.00
C721   C     0.47732   0.87752   0.40552   0.00000  Uiso   1.00
C722   C     0.45427   0.84719   0.09877   0.00000  Uiso   1.00
C723   C     0.49395   0.83323   0.11636   0.00000  Uiso   1.00
C724   C     0.48515   0.83508   0.38401   0.00000  Uiso   1.00
C725   C     0.48365   0.84050   0.02463   0.00000  Uiso   1.00
C726   C     0.47692   0.83923   0.47658   0.00000  Uiso   1.00
C727   C     0.62546   0.83207   0.25690   0.00000  Uiso   1.00
C728   C     0.37680   0.83597   0.26758   0.00000  Uiso   1.00
O729   O     0.55804   0.81837   0.01586   0.00000  Uiso   1.00
H730   H     0.55362   0.83192   0.48583   0.00000  Uiso   1.00
O731   O     0.47401   0.75632   0.47874   0.00000  Uiso   1.00
H732   H     0.46195   0.76248   0.00870   0.00000  Uiso   1.00
O733   O     0.47404   0.92275   0.47100   0.00000  Uiso   1.00
H734   H     0.47385   0.92075   0.00403   0.00000  Uiso   1.00
O735   O     0.41109   0.86190   0.03228   0.00000  Uiso   1.00
H736   H     0.38944   0.86749   0.05540   0.00000  Uiso   1.00
O737   O     0.56655   0.80571   0.10372   0.00000  Uiso   1.00
H738   H     0.56412   0.79469   0.13482   0.00000  Uiso   1.00
O739   O     0.48461   0.75315   0.38625   0.00000  Uiso   1.00
H740   H     0.48203   0.72758   0.40740   0.00000  Uiso   1.00
O741   O     0.47176   0.91770   0.38236   0.00000  Uiso   1.00
H742   H     0.45038   0.91242   0.35884   0.00000  Uiso   1.00
O743   O     0.42001   0.85760   0.12561   0.00000  Uiso   1.00
H744   H     0.42469   0.84588   0.15630   0.00000  Uiso   1.00
C745   C     0.38268   0.76658   0.31755   0.00000  Uiso   1.00
C746   C     0.38939   0.71983   0.29537   0.00000  Uiso   1.00
C747   C     0.41926   0.69002   0.32343   0.00000  Uiso   1.00
H748   H     0.45017   0.70570   0.32569   0.00000  Uiso   1.00
H749   H     0.40701   0.68616   0.35787   0.00000  Uiso   1.00
H750   H     0.42352   0.98952   0.30757   0.00000  Uiso   1.00
H751   H     0.35935   0.70254   0.29115   0.00000  Uiso   1.00
H752   H     0.40265   0.72345   0.26137   0.00000  Uiso   1.00
H753   H     0.41356   0.78076   0.32584   0.00000  Uiso   1.00
H754   H     0.36801   0.76332   0.35097   0.00000  Uiso   1.00
C755   C     0.63049   0.90568   0.20771   0.00000  Uiso   1.00
C756   C     0.61671   0.88512   0.16293   0.00000  Uiso   1.00
C757   C     0.59859   0.92156   0.13143   0.00000  Uiso   1.00
H758   H     0.57054   0.93857   0.14665   0.00000  Uiso   1.00
H759   H     0.62235   0.94728   0.12432   0.00000  Uiso   1.00
H760   H     0.58910   0.90567   0.09931   0.00000  Uiso   1.00
H761   H     0.64402   0.86766   0.14664   0.00000  Uiso   1.00
H762   H     0.59244   0.85986   0.16845   0.00000  Uiso   1.00
H763   H     0.60499   0.92665   0.22317   0.00000  Uiso   1.00
H764   H     0.65534   0.92999   0.19978   0.00000  Uiso   1.00
C765   C     0.62245   0.76771   0.31621   0.00000  Uiso   1.00
C766   C     0.60620   0.79402   0.35728   0.00000  Uiso   1.00
C767   C     0.58915   0.76208   0.39245   0.00000  Uiso   1.00
H768   H     0.56487   0.74056   0.37752   0.00000  Uiso   1.00
H769   H     0.61485   0.73980   0.40617   0.00000  Uiso   1.00
H770   H     0.57513   0.78220   0.42036   0.00000  Uiso   1.00
H771   H     0.63209   0.81307   0.37277   0.00000  Uiso   1.00
H772   H     0.58125   0.81894   0.34697   0.00000  Uiso   1.00
H773   H     0.59714   0.75034   0.29878   0.00000  Uiso   1.00
H774   H     0.64194   0.73861   0.32817   0.00000  Uiso   1.00
C775   C     0.36026   0.91694   0.28661   0.00000  Uiso   1.00
C776   C     0.33334   0.91403   0.32921   0.00000  Uiso   1.00
C777   C     0.34148   0.95228   0.36216   0.00000  Uiso   1.00
H778   H     0.37461   0.95037   0.37362   0.00000  Uiso   1.00
H779   H     0.33411   0.98569   0.34643   0.00000  Uiso   1.00
H780   H     0.65442   0.94876   0.39188   0.00000  Uiso   1.00
H781   H     0.63287   0.91545   0.31994   0.00000  Uiso   1.00
H782   H     0.34033   0.88123   0.34651   0.00000  Uiso   1.00
H783   H     0.39356   0.91898   0.29683   0.00000  Uiso   1.00
H784   H     0.35177   0.94858   0.26805   0.00000  Uiso   1.00
O785   O     0.77226   0.87154   0.25000   0.00000  Uiso   1.00
O786   O     0.89441   0.79513   0.25000   0.00000  Uiso   1.00
O787   O     0.89441   0.87154   0.25000   0.00000  Uiso   1.00
O788   O     0.77226   0.79513   0.24999   0.00000  Uiso   1.00
N789   N     0.83333   0.95240   0.25000   0.00000  Uiso   1.00
N790   N     0.83333   0.71427   0.25000   0.00000  Uiso   1.00
C791   C     0.75374   0.83403   0.25589   0.00000  Uiso   1.00
C792   C     0.91382   0.83270   0.25138   0.00000  Uiso   1.00
O793   O     0.83333   0.87155   0.18453   0.00000  Uiso   1.00
O794   O     0.83334   0.79511   0.31547   0.00000  Uiso   1.00
O795   O     0.83334   0.87155   0.31547   0.00000  Uiso   1.00
O796   O     0.83333   0.79511   0.18453   0.00000  Uiso   1.00
C797   C     0.83340   0.83325   0.16396   0.00000  Uiso   1.00
C798   C     0.82915   0.83367   0.33619   0.00000  Uiso   1.00
Zn799  Zn    0.83333   0.88437   0.25000   0.00000  Uiso   1.00
Zn800  Zn    0.83333   0.78229   0.25000   0.00000  Uiso   1.00
H801   H     0.87287   0.70733   0.30703   0.00000  Uiso   1.00
H802   H     0.79297   0.95905   0.19355   0.00000  Uiso   1.00
H803   H     0.79321   0.71017   0.19335   0.00000  Uiso   1.00
H804   H     0.87360   0.95642   0.30652   0.00000  Uiso   1.00
C805   C     0.85574   0.68986   0.28137   0.00000  Uiso   1.00
C806   C     0.81096   0.97671   0.21856   0.00000  Uiso   1.00
C807   C     0.81111   0.69137   0.21844   0.00000  Uiso   1.00
C808   C     0.85579   0.97523   0.28135   0.00000  Uiso   1.00
C809   C     0.69042   0.79942   0.28796   0.00000  Uiso   1.00
C810   C     0.98101   0.86952   0.24013   0.00000  Uiso   1.00
C811   C     0.97963   0.79893   0.28523   0.00000  Uiso   1.00
C812   C     0.68724   0.87541   0.25732   0.00000  Uiso   1.00
C813   C     0.85664   0.82735   0.04232   0.00000  Uiso   1.00
C814   C     0.81008   0.79649   0.45506   0.00000  Uiso   1.00
C815   C     0.80922   0.87990   0.45179   0.00000  Uiso   1.00
C816   C     0.78255   0.85025   0.05224   0.00000  Uiso   1.00
C817   C     0.86126   0.82162   0.08812   0.00000  Uiso   1.00
C818   C     0.81545   0.79437   0.40853   0.00000  Uiso   1.00
C819   C     0.81065   0.87752   0.40552   0.00000  Uiso   1.00
C820   C     0.78761   0.84719   0.09877   0.00000  Uiso   1.00
C821   C     0.82728   0.83323   0.11636   0.00000  Uiso   1.00
C822   C     0.81848   0.83508   0.38401   0.00000  Uiso   1.00
C823   C     0.81698   0.84050   0.02463   0.00000  Uiso   1.00
C824   C     0.81025   0.83923   0.47658   0.00000  Uiso   1.00
C825   C     0.95880   0.83207   0.25690   0.00000  Uiso   1.00
C826   C     0.71014   0.83597   0.26758   0.00000  Uiso   1.00
O827   O     0.89138   0.81837   0.01586   0.00000  Uiso   1.00
H828   H     0.88696   0.83192   0.48583   0.00000  Uiso   1.00
O829   O     0.80735   0.75632   0.47874   0.00000  Uiso   1.00
H830   H     0.79528   0.76248   0.00870   0.00000  Uiso   1.00
O831   O     0.80737   0.92275   0.47100   0.00000  Uiso   1.00
H832   H     0.80719   0.92075   0.00403   0.00000  Uiso   1.00
O833   O     0.74443   0.86190   0.03228   0.00000  Uiso   1.00
H834   H     0.72278   0.86749   0.05540   0.00000  Uiso   1.00
O835   O     0.89988   0.80571   0.10372   0.00000  Uiso   1.00
H836   H     0.89745   0.79469   0.13482   0.00000  Uiso   1.00
O837   O     0.81794   0.75315   0.38625   0.00000  Uiso   1.00
H838   H     0.81536   0.72758   0.40740   0.00000  Uiso   1.00
O839   O     0.80510   0.91770   0.38236   0.00000  Uiso   1.00
H840   H     0.78371   0.91242   0.35884   0.00000  Uiso   1.00
O841   O     0.75334   0.85760   0.12561   0.00000  Uiso   1.00
H842   H     0.75802   0.84588   0.15630   0.00000  Uiso   1.00
C843   C     0.71601   0.76658   0.31755   0.00000  Uiso   1.00
C844   C     0.72273   0.71983   0.29537   0.00000  Uiso   1.00
C845   C     0.75259   0.69002   0.32343   0.00000  Uiso   1.00
H846   H     0.78350   0.70570   0.32569   0.00000  Uiso   1.00
H847   H     0.74035   0.68616   0.35787   0.00000  Uiso   1.00
H848   H     0.75685   0.98952   0.30757   0.00000  Uiso   1.00
H849   H     0.69268   0.70254   0.29115   0.00000  Uiso   1.00
H850   H     0.73598   0.72345   0.26137   0.00000  Uiso   1.00
H851   H     0.74690   0.78076   0.32584   0.00000  Uiso   1.00
H852   H     0.70135   0.76332   0.35097   0.00000  Uiso   1.00
C853   C     0.96383   0.90568   0.20771   0.00000  Uiso   1.00
C854   C     0.95005   0.88512   0.16293   0.00000  Uiso   1.00
C855   C     0.93192   0.92156   0.13143   0.00000  Uiso   1.00
H856   H     0.90388   0.93857   0.14665   0.00000  Uiso   1.00
H857   H     0.95568   0.94728   0.12432   0.00000  Uiso   1.00
H858   H     0.92244   0.90567   0.09931   0.00000  Uiso   1.00
H859   H     0.97736   0.86766   0.14664   0.00000  Uiso   1.00
H860   H     0.92577   0.85986   0.16845   0.00000  Uiso   1.00
H861   H     0.93832   0.92665   0.22317   0.00000  Uiso   1.00
H862   H     0.98868   0.92999   0.19978   0.00000  Uiso   1.00
C863   C     0.95578   0.76771   0.31621   0.00000  Uiso   1.00
C864   C     0.93954   0.79402   0.35728   0.00000  Uiso   1.00
C865   C     0.92248   0.76208   0.39245   0.00000  Uiso   1.00
H866   H     0.89820   0.74056   0.37752   0.00000  Uiso   1.00
H867   H     0.94818   0.73980   0.40617   0.00000  Uiso   1.00
H868   H     0.90846   0.78220   0.42036   0.00000  Uiso   1.00
H869   H     0.96542   0.81307   0.37277   0.00000  Uiso   1.00
H870   H     0.91459   0.81894   0.34697   0.00000  Uiso   1.00
H871   H     0.93047   0.75034   0.29878   0.00000  Uiso   1.00
H872   H     0.97527   0.73861   0.32817   0.00000  Uiso   1.00
C873   C     0.69359   0.91694   0.28661   0.00000  Uiso   1.00
C874   C     0.66668   0.91403   0.32921   0.00000  Uiso   1.00
C875   C     0.67482   0.95228   0.36216   0.00000  Uiso   1.00
H876   H     0.70795   0.95037   0.37362   0.00000  Uiso   1.00
H877   H     0.66745   0.98569   0.34643   0.00000  Uiso   1.00
H878   H     0.98775   0.94876   0.39188   0.00000  Uiso   1.00
H879   H     0.96621   0.91545   0.31994   0.00000  Uiso   1.00
H880   H     0.67367   0.88123   0.34651   0.00000  Uiso   1.00
H881   H     0.72689   0.91898   0.29683   0.00000  Uiso   1.00
H882   H     0.68510   0.94858   0.26805   0.00000  Uiso   1.00
O883   O     0.10559   0.20487   0.75000   0.00000  Uiso   1.00
O884   O     0.22774   0.12846   0.75000   0.00000  Uiso   1.00
O885   O     0.22774   0.20487   0.75000   0.00000  Uiso   1.00
O886   O     0.10559   0.12846   0.74999   0.00000  Uiso   1.00
N887   N     0.16667   0.28573   0.75000   0.00000  Uiso   1.00
N888   N     0.16667   0.04760   0.75000   0.00000  Uiso   1.00
C889   C     0.08708   0.16736   0.75589   0.00000  Uiso   1.00
C890   C     0.24715   0.16603   0.75138   0.00000  Uiso   1.00
O891   O     0.16666   0.20489   0.68453   0.00000  Uiso   1.00
O892   O     0.16667   0.12845   0.81547   0.00000  Uiso   1.00
O893   O     0.16667   0.20489   0.81547   0.00000  Uiso   1.00
O894   O     0.16666   0.12845   0.68453   0.00000  Uiso   1.00
C895   C     0.16674   0.16658   0.66396   0.00000  Uiso   1.00
C896   C     0.16249   0.16700   0.83619   0.00000  Uiso   1.00
Zn897  Zn    0.16667   0.21771   0.75000   0.00000  Uiso   1.00
Zn898  Zn    0.16667   0.11563   0.75000   0.00000  Uiso   1.00
H899   H     0.20621   0.04066   0.80703   0.00000  Uiso   1.00
H900   H     0.12631   0.29238   0.69355   0.00000  Uiso   1.00
H901   H     0.12655   0.04351   0.69335   0.00000  Uiso   1.00
H902   H     0.20693   0.28975   0.80652   0.00000  Uiso   1.00
C903   C     0.18908   0.02319   0.78137   0.00000  Uiso   1.00
C904   C     0.14430   0.31004   0.71856   0.00000  Uiso   1.00
C905   C     0.14445   0.02471   0.71844   0.00000  Uiso   1.00
C906   C     0.18913   0.30856   0.78135   0.00000  Uiso   1.00
C907   C     0.02375   0.13276   0.78796   0.00000  Uiso   1.00
C908   C     0.31434   0.20286   0.74013   0.00000  Uiso   1.00
C909   C     0.31296   0.13226   0.78523   0.00000  Uiso   1.00
C910   C     0.02058   0.20874   0.75732   0.00000  Uiso   1.00
C911   C     0.18997   0.16069   0.54232   0.00000  Uiso   1.00
C912   C     0.14342   0.12983   0.95506   0.00000  Uiso   1.00
C913   C     0.14255   0.21323   0.95179   0.00000  Uiso   1.00
C914   C     0.11588   0.18359   0.55224   0.00000  Uiso   1.00
C915   C     0.19460   0.15496   0.58812   0.00000  Uiso   1.00
C916   C     0.14879   0.12770   0.90853   0.00000  Uiso   1.00
C917   C     0.14399   0.21085   0.90552   0.00000  Uiso   1.00
C918   C     0.12094   0.18053   0.59877   0.00000  Uiso   1.00
C919   C     0.16061   0.16657   0.61636   0.00000  Uiso   1.00
C920   C     0.15182   0.16841   0.88401   0.00000  Uiso   1.00
C921   C     0.15031   0.17383   0.52463   0.00000  Uiso   1.00
C922   C     0.14358   0.17257   0.97658   0.00000  Uiso   1.00
C923   C     0.29213   0.16540   0.75690   0.00000  Uiso   1.00
C924   C     0.04347   0.16930   0.76758   0.00000  Uiso   1.00
O925   O     0.22471   0.15170   0.51586   0.00000  Uiso   1.00
H926   H     0.22029   0.16525   0.98583   0.00000  Uiso   1.00
O927   O     0.14068   0.08965   0.97874   0.00000  Uiso   1.00
H928   H     0.12861   0.09582   0.50870   0.00000  Uiso   1.00
O929   O     0.14070   0.25609   0.97100   0.00000  Uiso   1.00
H930   H     0.14052   0.25409   0.50403   0.00000  Uiso   1.00
O931   O     0.07776   0.19524   0.53228   0.00000  Uiso   1.00
H932   H     0.05611   0.20082   0.55540   0.00000  Uiso   1.00
O933   O     0.23322   0.13904   0.60372   0.00000  Uiso   1.00
H934   H     0.23079   0.12803   0.63482   0.00000  Uiso   1.00
O935   O     0.15128   0.08648   0.88625   0.00000  Uiso   1.00
H936   H     0.14869   0.06092   0.90740   0.00000  Uiso   1.00
O937   O     0.13843   0.25104   0.88236   0.00000  Uiso   1.00
H938   H     0.11705   0.24575   0.85884   0.00000  Uiso   1.00
O939   O     0.08668   0.19093   0.62561   0.00000  Uiso   1.00
H940   H     0.09135   0.17922   0.65630   0.00000  Uiso   1.00
C941   C     0.04935   0.09991   0.81755   0.00000  Uiso   1.00
C942   C     0.05606   0.05317   0.79537   0.00000  Uiso   1.00
C943   C     0.08593   0.02336   0.82343   0.00000  Uiso   1.00
H944   H     0.11684   0.03903   0.82569   0.00000  Uiso   1.00
H945   H     0.07368   0.01949   0.85787   0.00000  Uiso   1.00
H946   H     0.09018   0.32285   0.80757   0.00000  Uiso   1.00
H947   H     0.02601   0.03587   0.79115   0.00000  Uiso   1.00
H948   H     0.06932   0.05679   0.76137   0.00000  Uiso   1.00
H949   H     0.08023   0.11409   0.82584   0.00000  Uiso   1.00
H950   H     0.03468   0.09665   0.85097   0.00000  Uiso   1.00
C951   C     0.29716   0.23902   0.70771   0.00000  Uiso   1.00
C952   C     0.28338   0.21845   0.66293   0.00000  Uiso   1.00
C953   C     0.26526   0.25490   0.63143   0.00000  Uiso   1.00
H954   H     0.23721   0.27191   0.64665   0.00000  Uiso   1.00
H955   H     0.28901   0.28061   0.62432   0.00000  Uiso   1.00
H956   H     0.25577   0.23900   0.59931   0.00000  Uiso   1.00
H957   H     0.31069   0.20099   0.64664   0.00000  Uiso   1.00
H958   H     0.25911   0.19319   0.66845   0.00000  Uiso   1.00
H959   H     0.27165   0.25998   0.72317   0.00000  Uiso   1.00
H960   H     0.32201   0.26333   0.69978   0.00000  Uiso   1.00
C961   C     0.28912   0.10105   0.81621   0.00000  Uiso   1.00
C962   C     0.27287   0.12735   0.85728   0.00000  Uiso   1.00
C963   C     0.25582   0.09542   0.89245   0.00000  Uiso   1.00
H964   H     0.23153   0.07390   0.87752   0.00000  Uiso   1.00
H965   H     0.28151   0.07314   0.90617   0.00000  Uiso   1.00
H966   H     0.24179   0.11553   0.92036   0.00000  Uiso   1.00
H967   H     0.29875   0.14640   0.87277   0.00000  Uiso   1.00
H968   H     0.24792   0.15227   0.84697   0.00000  Uiso   1.00
H969   H     0.26381   0.08367   0.79878   0.00000  Uiso   1.00
H970   H     0.30861   0.07194   0.82817   0.00000  Uiso   1.00
C971   C     0.02693   0.25027   0.78661   0.00000  Uiso   1.00
C972   C     0.00001   0.24736   0.82921   0.00000  Uiso   1.00
C973   C     0.00815   0.28562   0.86216   0.00000  Uiso   1.00
H974   H     0.04128   0.28371   0.87362   0.00000  Uiso   1.00
H975   H     0.00078   0.31902   0.84643   0.00000  Uiso   1.00
H976   H     0.32108   0.28210   0.89188   0.00000  Uiso   1.00
H977   H     0.29954   0.24878   0.81994   0.00000  Uiso   1.00
H978   H     0.00700   0.21456   0.84651   0.00000  Uiso   1.00
H979   H     0.06022   0.25231   0.79683   0.00000  Uiso   1.00
H980   H     0.01843   0.28192   0.76805   0.00000  Uiso   1.00
O981   O     0.43892   0.20487   0.75000   0.00000  Uiso   1.00
O982   O     0.56108   0.12846   0.75000   0.00000  Uiso   1.00
O983   O     0.56108   0.20487   0.75000   0.00000  Uiso   1.00
O984   O     0.43892   0.12846   0.74999   0.00000  Uiso   1.00
N985   N     0.50000   0.28573   0.75000   0.00000  Uiso   1.00
N986   N     0.50000   0.04760   0.75000   0.00000  Uiso   1.00
C987   C     0.42041   0.16736   0.75589   0.00000  Uiso   1.00
C988   C     0.58049   0.16603   0.75138   0.00000  Uiso   1.00
O989   O     0.50000   0.20489   0.68453   0.00000  Uiso   1.00
O990   O     0.50000   0.12845   0.81547   0.00000  Uiso   1.00
O991   O     0.50000   0.20489   0.81547   0.00000  Uiso   1.00
O992   O     0.50000   0.12845   0.68453   0.00000  Uiso   1.00
C993   C     0.50007   0.16658   0.66396   0.00000  Uiso   1.00
C994   C     0.49582   0.16700   0.83619   0.00000  Uiso   1.00
Zn995  Zn    0.50000   0.21771   0.75000   0.00000  Uiso   1.00
Zn996  Zn    0.50000   0.11563   0.75000   0.00000  Uiso   1.00
H997   H     0.53954   0.04066   0.80703   0.00000  Uiso   1.00
H998   H     0.45964   0.29238   0.69355   0.00000  Uiso   1.00
H999   H     0.45988   0.04351   0.69335   0.00000  Uiso   1.00
H1000  H     0.54026   0.28975   0.80652   0.00000  Uiso   1.00
C1001  C     0.52241   0.02319   0.78137   0.00000  Uiso   1.00
C1002  C     0.47763   0.31004   0.71856   0.00000  Uiso   1.00
C1003  C     0.47778   0.02471   0.71844   0.00000  Uiso   1.00
C1004  C     0.52246   0.30856   0.78135   0.00000  Uiso   1.00
C1005  C     0.35709   0.13276   0.78796   0.00000  Uiso   1.00
C1006  C     0.64767   0.20286   0.74013   0.00000  Uiso   1.00
C1007  C     0.64629   0.13226   0.78523   0.00000  Uiso   1.00
C1008  C     0.35391   0.20874   0.75732   0.00000  Uiso   1.00
C1009  C     0.52331   0.16069   0.54232   0.00000  Uiso   1.00
C1010  C     0.47675   0.12983   0.95506   0.00000  Uiso   1.00
C1011  C     0.47588   0.21323   0.95179   0.00000  Uiso   1.00
C1012  C     0.44921   0.18359   0.55224   0.00000  Uiso   1.00
C1013  C     0.52793   0.15496   0.58812   0.00000  Uiso   1.00
C1014  C     0.48212   0.12770   0.90853   0.00000  Uiso   1.00
C1015  C     0.47732   0.21085   0.90552   0.00000  Uiso   1.00
C1016  C     0.45427   0.18053   0.59877   0.00000  Uiso   1.00
C1017  C     0.49395   0.16657   0.61636   0.00000  Uiso   1.00
C1018  C     0.48515   0.16841   0.88401   0.00000  Uiso   1.00
C1019  C     0.48365   0.17383   0.52463   0.00000  Uiso   1.00
C1020  C     0.47692   0.17257   0.97658   0.00000  Uiso   1.00
C1021  C     0.62546   0.16540   0.75690   0.00000  Uiso   1.00
C1022  C     0.37680   0.16930   0.76758   0.00000  Uiso   1.00
O1023  O     0.55804   0.15170   0.51586   0.00000  Uiso   1.00
H1024  H     0.55362   0.16525   0.98583   0.00000  Uiso   1.00
O1025  O     0.47401   0.08965   0.97874   0.00000  Uiso   1.00
H1026  H     0.46195   0.09582   0.50870   0.00000  Uiso   1.00
O1027  O     0.47404   0.25609   0.97100   0.00000  Uiso   1.00
H1028  H     0.47385   0.25409   0.50403   0.00000  Uiso   1.00
O1029  O     0.41109   0.19524   0.53228   0.00000  Uiso   1.00
H1030  H     0.38944   0.20082   0.55540   0.00000  Uiso   1.00
O1031  O     0.56655   0.13904   0.60372   0.00000  Uiso   1.00
H1032  H     0.56412   0.12803   0.63482   0.00000  Uiso   1.00
O1033  O     0.48461   0.08648   0.88625   0.00000  Uiso   1.00
H1034  H     0.48203   0.06092   0.90740   0.00000  Uiso   1.00
O1035  O     0.47176   0.25104   0.88236   0.00000  Uiso   1.00
H1036  H     0.45038   0.24575   0.85884   0.00000  Uiso   1.00
O1037  O     0.42001   0.19093   0.62561   0.00000  Uiso   1.00
H1038  H     0.42469   0.17922   0.65630   0.00000  Uiso   1.00
C1039  C     0.38268   0.09991   0.81755   0.00000  Uiso   1.00
C1040  C     0.38939   0.05317   0.79537   0.00000  Uiso   1.00
C1041  C     0.41926   0.02336   0.82343   0.00000  Uiso   1.00
H1042  H     0.45017   0.03903   0.82569   0.00000  Uiso   1.00
H1043  H     0.40701   0.01949   0.85787   0.00000  Uiso   1.00
H1044  H     0.42352   0.32285   0.80757   0.00000  Uiso   1.00
H1045  H     0.35935   0.03587   0.79115   0.00000  Uiso   1.00
H1046  H     0.40265   0.05679   0.76137   0.00000  Uiso   1.00
H1047  H     0.41356   0.11409   0.82584   0.00000  Uiso   1.00
H1048  H     0.36801   0.09665   0.85097   0.00000  Uiso   1.00
C1049  C     0.63049   0.23902   0.70771   0.00000  Uiso   1.00
C1050  C     0.61671   0.21845   0.66293   0.00000  Uiso   1.00
C1051  C     0.59859   0.25490   0.63143   0.00000  Uiso   1.00
H1052  H     0.57054   0.27191   0.64665   0.00000  Uiso   1.00
H1053  H     0.62235   0.28061   0.62432   0.00000  Uiso   1.00
H1054  H     0.58910   0.23900   0.59931   0.00000  Uiso   1.00
H1055  H     0.64402   0.20099   0.64664   0.00000  Uiso   1.00
H1056  H     0.59244   0.19319   0.66845   0.00000  Uiso   1.00
H1057  H     0.60499   0.25998   0.72317   0.00000  Uiso   1.00
H1058  H     0.65534   0.26333   0.69978   0.00000  Uiso   1.00
C1059  C     0.62245   0.10105   0.81621   0.00000  Uiso   1.00
C1060  C     0.60620   0.12735   0.85728   0.00000  Uiso   1.00
C1061  C     0.58915   0.09542   0.89245   0.00000  Uiso   1.00
H1062  H     0.56487   0.07390   0.87752   0.00000  Uiso   1.00
H1063  H     0.61485   0.07314   0.90617   0.00000  Uiso   1.00
H1064  H     0.57513   0.11553   0.92036   0.00000  Uiso   1.00
H1065  H     0.63209   0.14640   0.87277   0.00000  Uiso   1.00
H1066  H     0.58125   0.15227   0.84697   0.00000  Uiso   1.00
H1067  H     0.59714   0.08367   0.79878   0.00000  Uiso   1.00
H1068  H     0.64194   0.07194   0.82817   0.00000  Uiso   1.00
C1069  C     0.36026   0.25027   0.78661   0.00000  Uiso   1.00
C1070  C     0.33334   0.24736   0.82921   0.00000  Uiso   1.00
C1071  C     0.34148   0.28562   0.86216   0.00000  Uiso   1.00
H1072  H     0.37461   0.28371   0.87362   0.00000  Uiso   1.00
H1073  H     0.33411   0.31902   0.84643   0.00000  Uiso   1.00
H1074  H     0.65442   0.28210   0.89188   0.00000  Uiso   1.00
H1075  H     0.63287   0.24878   0.81994   0.00000  Uiso   1.00
H1076  H     0.34033   0.21456   0.84651   0.00000  Uiso   1.00
H1077  H     0.39356   0.25231   0.79683   0.00000  Uiso   1.00
H1078  H     0.35177   0.28192   0.76805   0.00000  Uiso   1.00
O1079  O     0.77226   0.20487   0.75000   0.00000  Uiso   1.00
O1080  O     0.89441   0.12846   0.75000   0.00000  Uiso   1.00
O1081  O     0.89441   0.20487   0.75000   0.00000  Uiso   1.00
O1082  O     0.77226   0.12846   0.74999   0.00000  Uiso   1.00
N1083  N     0.83333   0.28573   0.75000   0.00000  Uiso   1.00
N1084  N     0.83333   0.04760   0.75000   0.00000  Uiso   1.00
C1085  C     0.75374   0.16736   0.75589   0.00000  Uiso   1.00
C1086  C     0.91382   0.16603   0.75138   0.00000  Uiso   1.00
O1087  O     0.83333   0.20489   0.68453   0.00000  Uiso   1.00
O1088  O     0.83334   0.12845   0.81547   0.00000  Uiso   1.00
O1089  O     0.83334   0.20489   0.81547   0.00000  Uiso   1.00
O1090  O     0.83333   0.12845   0.68453   0.00000  Uiso   1.00
C1091  C     0.83340   0.16658   0.66396   0.00000  Uiso   1.00
C1092  C     0.82915   0.16700   0.83619   0.00000  Uiso   1.00
Zn1093 Zn    0.83333   0.21771   0.75000   0.00000  Uiso   1.00
Zn1094 Zn    0.83333   0.11563   0.75000   0.00000  Uiso   1.00
H1095  H     0.87287   0.04066   0.80703   0.00000  Uiso   1.00
H1096  H     0.79297   0.29238   0.69355   0.00000  Uiso   1.00
H1097  H     0.79321   0.04351   0.69335   0.00000  Uiso   1.00
H1098  H     0.87360   0.28975   0.80652   0.00000  Uiso   1.00
C1099  C     0.85574   0.02319   0.78137   0.00000  Uiso   1.00
C1100  C     0.81096   0.31004   0.71856   0.00000  Uiso   1.00
C1101  C     0.81111   0.02471   0.71844   0.00000  Uiso   1.00
C1102  C     0.85579   0.30856   0.78135   0.00000  Uiso   1.00
C1103  C     0.69042   0.13276   0.78796   0.00000  Uiso   1.00
C1104  C     0.98101   0.20286   0.74013   0.00000  Uiso   1.00
C1105  C     0.97963   0.13226   0.78523   0.00000  Uiso   1.00
C1106  C     0.68724   0.20874   0.75732   0.00000  Uiso   1.00
C1107  C     0.85664   0.16069   0.54232   0.00000  Uiso   1.00
C1108  C     0.81008   0.12983   0.95506   0.00000  Uiso   1.00
C1109  C     0.80922   0.21323   0.95179   0.00000  Uiso   1.00
C1110  C     0.78255   0.18359   0.55224   0.00000  Uiso   1.00
C1111  C     0.86126   0.15496   0.58812   0.00000  Uiso   1.00
C1112  C     0.81545   0.12770   0.90853   0.00000  Uiso   1.00
C1113  C     0.81065   0.21085   0.90552   0.00000  Uiso   1.00
C1114  C     0.78761   0.18053   0.59877   0.00000  Uiso   1.00
C1115  C     0.82728   0.16657   0.61636   0.00000  Uiso   1.00
C1116  C     0.81848   0.16841   0.88401   0.00000  Uiso   1.00
C1117  C     0.81698   0.17383   0.52463   0.00000  Uiso   1.00
C1118  C     0.81025   0.17257   0.97658   0.00000  Uiso   1.00
C1119  C     0.95880   0.16540   0.75690   0.00000  Uiso   1.00
C1120  C     0.71014   0.16930   0.76758   0.00000  Uiso   1.00
O1121  O     0.89138   0.15170   0.51586   0.00000  Uiso   1.00
H1122  H     0.88696   0.16525   0.98583   0.00000  Uiso   1.00
O1123  O     0.80735   0.08965   0.97874   0.00000  Uiso   1.00
H1124  H     0.79528   0.09582   0.50870   0.00000  Uiso   1.00
O1125  O     0.80737   0.25609   0.97100   0.00000  Uiso   1.00
H1126  H     0.80719   0.25409   0.50403   0.00000  Uiso   1.00
O1127  O     0.74443   0.19524   0.53228   0.00000  Uiso   1.00
H1128  H     0.72278   0.20082   0.55540   0.00000  Uiso   1.00
O1129  O     0.89988   0.13904   0.60372   0.00000  Uiso   1.00
H1130  H     0.89745   0.12803   0.63482   0.00000  Uiso   1.00
O1131  O     0.81794   0.08648   0.88625   0.00000  Uiso   1.00
H1132  H     0.81536   0.06092   0.90740   0.00000  Uiso   1.00
O1133  O     0.80510   0.25104   0.88236   0.00000  Uiso   1.00
H1134  H     0.78371   0.24575   0.85884   0.00000  Uiso   1.00
O1135  O     0.75334   0.19093   0.62561   0.00000  Uiso   1.00
H1136  H     0.75802   0.17922   0.65630   0.00000  Uiso   1.00
C1137  C     0.71601   0.09991   0.81755   0.00000  Uiso   1.00
C1138  C     0.72273   0.05317   0.79537   0.00000  Uiso   1.00
C1139  C     0.75259   0.02336   0.82343   0.00000  Uiso   1.00
H1140  H     0.78350   0.03903   0.82569   0.00000  Uiso   1.00
H1141  H     0.74035   0.01949   0.85787   0.00000  Uiso   1.00
H1142  H     0.75685   0.32285   0.80757   0.00000  Uiso   1.00
H1143  H     0.69268   0.03587   0.79115   0.00000  Uiso   1.00
H1144  H     0.73598   0.05679   0.76137   0.00000  Uiso   1.00
H1145  H     0.74690   0.11409   0.82584   0.00000  Uiso   1.00
H1146  H     0.70135   0.09665   0.85097   0.00000  Uiso   1.00
C1147  C     0.96383   0.23902   0.70771   0.00000  Uiso   1.00
C1148  C     0.95005   0.21845   0.66293   0.00000  Uiso   1.00
C1149  C     0.93192   0.25490   0.63143   0.00000  Uiso   1.00
H1150  H     0.90388   0.27191   0.64665   0.00000  Uiso   1.00
H1151  H     0.95568   0.28061   0.62432   0.00000  Uiso   1.00
H1152  H     0.92244   0.23900   0.59931   0.00000  Uiso   1.00
H1153  H     0.97736   0.20099   0.64664   0.00000  Uiso   1.00
H1154  H     0.92577   0.19319   0.66845   0.00000  Uiso   1.00
H1155  H     0.93832   0.25998   0.72317   0.00000  Uiso   1.00
H1156  H     0.98868   0.26333   0.69978   0.00000  Uiso   1.00
C1157  C     0.95578   0.10105   0.81621   0.00000  Uiso   1.00
C1158  C     0.93954   0.12735   0.85728   0.00000  Uiso   1.00
C1159  C     0.92248   0.09542   0.89245   0.00000  Uiso   1.00
H1160  H     0.89820   0.07390   0.87752   0.00000  Uiso   1.00
H1161  H     0.94818   0.07314   0.90617   0.00000  Uiso   1.00
H1162  H     0.90846   0.11553   0.92036   0.00000  Uiso   1.00
H1163  H     0.96542   0.14640   0.87277   0.00000  Uiso   1.00
H1164  H     0.91459   0.15227   0.84697   0.00000  Uiso   1.00
H1165  H     0.93047   0.08367   0.79878   0.00000  Uiso   1.00
H1166  H     0.97527   0.07194   0.82817   0.00000  Uiso   1.00
C1167  C     0.69359   0.25027   0.78661   0.00000  Uiso   1.00
C1168  C     0.66668   0.24736   0.82921   0.00000  Uiso   1.00
C1169  C     0.67482   0.28562   0.86216   0.00000  Uiso   1.00
H1170  H     0.70795   0.28371   0.87362   0.00000  Uiso   1.00
H1171  H     0.66745   0.31902   0.84643   0.00000  Uiso   1.00
H1172  H     0.98775   0.28210   0.89188   0.00000  Uiso   1.00
H1173  H     0.96621   0.24878   0.81994   0.00000  Uiso   1.00
H1174  H     0.67367   0.21456   0.84651   0.00000  Uiso   1.00
H1175  H     0.72689   0.25231   0.79683   0.00000  Uiso   1.00
H1176  H     0.68510   0.28192   0.76805   0.00000  Uiso   1.00
O1177  O     0.10559   0.53821   0.75000   0.00000  Uiso   1.00
O1178  O     0.22774   0.46179   0.75000   0.00000  Uiso   1.00
O1179  O     0.22774   0.53821   0.75000   0.00000  Uiso   1.00
O1180  O     0.10559   0.46179   0.74999   0.00000  Uiso   1.00
N1181  N     0.16667   0.61907   0.75000   0.00000  Uiso   1.00
N1182  N     0.16667   0.38093   0.75000   0.00000  Uiso   1.00
C1183  C     0.08708   0.50069   0.75589   0.00000  Uiso   1.00
C1184  C     0.24715   0.49937   0.75138   0.00000  Uiso   1.00
O1185  O     0.16666   0.53822   0.68453   0.00000  Uiso   1.00
O1186  O     0.16667   0.46178   0.81547   0.00000  Uiso   1.00
O1187  O     0.16667   0.53822   0.81547   0.00000  Uiso   1.00
O1188  O     0.16666   0.46178   0.68453   0.00000  Uiso   1.00
C1189  C     0.16674   0.49991   0.66396   0.00000  Uiso   1.00
C1190  C     0.16249   0.50033   0.83619   0.00000  Uiso   1.00
Zn1191 Zn    0.16667   0.55104   0.75000   0.00000  Uiso   1.00
Zn1192 Zn    0.16667   0.44896   0.75000   0.00000  Uiso   1.00
H1193  H     0.20621   0.37400   0.80703   0.00000  Uiso   1.00
H1194  H     0.12631   0.62572   0.69355   0.00000  Uiso   1.00
H1195  H     0.12655   0.37684   0.69335   0.00000  Uiso   1.00
H1196  H     0.20693   0.62309   0.80652   0.00000  Uiso   1.00
C1197  C     0.18908   0.35652   0.78137   0.00000  Uiso   1.00
C1198  C     0.14430   0.64337   0.71856   0.00000  Uiso   1.00
C1199  C     0.14445   0.35804   0.71844   0.00000  Uiso   1.00
C1200  C     0.18913   0.64189   0.78135   0.00000  Uiso   1.00
C1201  C     0.02375   0.46609   0.78796   0.00000  Uiso   1.00
C1202  C     0.31434   0.53619   0.74013   0.00000  Uiso   1.00
C1203  C     0.31296   0.46560   0.78523   0.00000  Uiso   1.00
C1204  C     0.02058   0.54208   0.75732   0.00000  Uiso   1.00
C1205  C     0.18997   0.49402   0.54232   0.00000  Uiso   1.00
C1206  C     0.14342   0.46316   0.95506   0.00000  Uiso   1.00
C1207  C     0.14255   0.54656   0.95179   0.00000  Uiso   1.00
C1208  C     0.11588   0.51692   0.55224   0.00000  Uiso   1.00
C1209  C     0.19460   0.48829   0.58812   0.00000  Uiso   1.00
C1210  C     0.14879   0.46104   0.90853   0.00000  Uiso   1.00
C1211  C     0.14399   0.54418   0.90552   0.00000  Uiso   1.00
C1212  C     0.12094   0.51386   0.59877   0.00000  Uiso   1.00
C1213  C     0.16061   0.49990   0.61636   0.00000  Uiso   1.00
C1214  C     0.15182   0.50175   0.88401   0.00000  Uiso   1.00
C1215  C     0.15031   0.50716   0.52463   0.00000  Uiso   1.00
C1216  C     0.14358   0.50590   0.97658   0.00000  Uiso   1.00
C1217  C     0.29213   0.49874   0.75690   0.00000  Uiso   1.00
C1218  C     0.04347   0.50263   0.76758   0.00000  Uiso   1.00
O1219  O     0.22471   0.48503   0.51586   0.00000  Uiso   1.00
H1220  H     0.22029   0.49859   0.98583   0.00000  Uiso   1.00
O1221  O     0.14068   0.42299   0.97874   0.00000  Uiso   1.00
H1222  H     0.12861   0.42915   0.50870   0.00000  Uiso   1.00
O1223  O     0.14070   0.58942   0.97100   0.00000  Uiso   1.00
H1224  H     0.14052   0.58742   0.50403   0.00000  Uiso   1.00
O1225  O     0.07776   0.52857   0.53228   0.00000  Uiso   1.00
H1226  H     0.05611   0.53415   0.55540   0.00000  Uiso   1.00
O1227  O     0.23322   0.47238   0.60372   0.00000  Uiso   1.00
H1228  H     0.23079   0.46136   0.63482   0.00000  Uiso   1.00
O1229  O     0.15128   0.41981   0.88625   0.00000  Uiso   1.00
H1230  H     0.14869   0.39425   0.90740   0.00000  Uiso   1.00
O1231  O     0.13843   0.58437   0.88236   0.00000  Uiso   1.00
H1232  H     0.11705   0.57908   0.85884   0.00000  Uiso   1.00
O1233  O     0.08668   0.52427   0.62561   0.00000  Uiso   1.00
H1234  H     0.09135   0.51255   0.65630   0.00000  Uiso   1.00
C1235  C     0.04935   0.43325   0.81755   0.00000  Uiso   1.00
C1236  C     0.05606   0.38650   0.79537   0.00000  Uiso   1.00
C1237  C     0.08593   0.35669   0.82343   0.00000  Uiso   1.00
H1238  H     0.11684   0.37237   0.82569   0.00000  Uiso   1.00
H1239  H     0.07368   0.35282   0.85787   0.00000  Uiso   1.00
H1240  H     0.09018   0.65618   0.80757   0.00000  Uiso   1.00
H1241  H     0.02601   0.36921   0.79115   0.00000  Uiso   1.00
H1242  H     0.06932   0.39012   0.76137   0.00000  Uiso   1.00
H1243  H     0.08023   0.44743   0.82584   0.00000  Uiso   1.00
H1244  H     0.03468   0.42998   0.85097   0.00000  Uiso   1.00
C1245  C     0.29716   0.57235   0.70771   0.00000  Uiso   1.00
C1246  C     0.28338   0.55178   0.66293   0.00000  Uiso   1.00
C1247  C     0.26526   0.58823   0.63143   0.00000  Uiso   1.00
H1248  H     0.23721   0.60524   0.64665   0.00000  Uiso   1.00
H1249  H     0.28901   0.61394   0.62432   0.00000  Uiso   1.00
H1250  H     0.25577   0.57233   0.59931   0.00000  Uiso   1.00
H1251  H     0.31069   0.53433   0.64664   0.00000  Uiso   1.00
H1252  H     0.25911   0.52652   0.66845   0.00000  Uiso   1.00
H1253  H     0.27165   0.59331   0.72317   0.00000  Uiso   1.00
H1254  H     0.32201   0.59666   0.69978   0.00000  Uiso   1.00
C1255  C     0.28912   0.43438   0.81621   0.00000  Uiso   1.00
C1256  C     0.27287   0.46069   0.85728   0.00000  Uiso   1.00
C1257  C     0.25582   0.42875   0.89245   0.00000  Uiso   1.00
H1258  H     0.23153   0.40723   0.87752   0.00000  Uiso   1.00
H1259  H     0.28151   0.40647   0.90617   0.00000  Uiso   1.00
H1260  H     0.24179   0.44886   0.92036   0.00000  Uiso   1.00
H1261  H     0.29875   0.47973   0.87277   0.00000  Uiso   1.00
H1262  H     0.24792   0.48560   0.84697   0.00000  Uiso   1.00
H1263  H     0.26381   0.41701   0.79878   0.00000  Uiso   1.00
H1264  H     0.30861   0.40527   0.82817   0.00000  Uiso   1.00
C1265  C     0.02693   0.58361   0.78661   0.00000  Uiso   1.00
C1266  C     0.00001   0.58069   0.82921   0.00000  Uiso   1.00
C1267  C     0.00815   0.61895   0.86216   0.00000  Uiso   1.00
H1268  H     0.04128   0.61704   0.87362   0.00000  Uiso   1.00
H1269  H     0.00078   0.65235   0.84643   0.00000  Uiso   1.00
H1270  H     0.32108   0.61543   0.89188   0.00000  Uiso   1.00
H1271  H     0.29954   0.58211   0.81994   0.00000  Uiso   1.00
H1272  H     0.00700   0.54790   0.84651   0.00000  Uiso   1.00
H1273  H     0.06022   0.58565   0.79683   0.00000  Uiso   1.00
H1274  H     0.01843   0.61525   0.76805   0.00000  Uiso   1.00
O1275  O     0.43892   0.53821   0.75000   0.00000  Uiso   1.00
O1276  O     0.56108   0.46179   0.75000   0.00000  Uiso   1.00
O1277  O     0.56108   0.53821   0.75000   0.00000  Uiso   1.00
O1278  O     0.43892   0.46179   0.74999   0.00000  Uiso   1.00
N1279  N     0.50000   0.61907   0.75000   0.00000  Uiso   1.00
N1280  N     0.50000   0.38093   0.75000   0.00000  Uiso   1.00
C1281  C     0.42041   0.50069   0.75589   0.00000  Uiso   1.00
C1282  C     0.58049   0.49937   0.75138   0.00000  Uiso   1.00
O1283  O     0.50000   0.53822   0.68453   0.00000  Uiso   1.00
O1284  O     0.50000   0.46178   0.81547   0.00000  Uiso   1.00
O1285  O     0.50000   0.53822   0.81547   0.00000  Uiso   1.00
O1286  O     0.50000   0.46178   0.68453   0.00000  Uiso   1.00
C1287  C     0.50007   0.49991   0.66396   0.00000  Uiso   1.00
C1288  C     0.49582   0.50033   0.83619   0.00000  Uiso   1.00
Zn1289 Zn    0.50000   0.55104   0.75000   0.00000  Uiso   1.00
Zn1290 Zn    0.50000   0.44896   0.75000   0.00000  Uiso   1.00
H1291  H     0.53954   0.37400   0.80703   0.00000  Uiso   1.00
H1292  H     0.45964   0.62572   0.69355   0.00000  Uiso   1.00
H1293  H     0.45988   0.37684   0.69335   0.00000  Uiso   1.00
H1294  H     0.54026   0.62309   0.80652   0.00000  Uiso   1.00
C1295  C     0.52241   0.35652   0.78137   0.00000  Uiso   1.00
C1296  C     0.47763   0.64337   0.71856   0.00000  Uiso   1.00
C1297  C     0.47778   0.35804   0.71844   0.00000  Uiso   1.00
C1298  C     0.52246   0.64189   0.78135   0.00000  Uiso   1.00
C1299  C     0.35709   0.46609   0.78796   0.00000  Uiso   1.00
C1300  C     0.64767   0.53619   0.74013   0.00000  Uiso   1.00
C1301  C     0.64629   0.46560   0.78523   0.00000  Uiso   1.00
C1302  C     0.35391   0.54208   0.75732   0.00000  Uiso   1.00
C1303  C     0.52331   0.49402   0.54232   0.00000  Uiso   1.00
C1304  C     0.47675   0.46316   0.95506   0.00000  Uiso   1.00
C1305  C     0.47588   0.54656   0.95179   0.00000  Uiso   1.00
C1306  C     0.44921   0.51692   0.55224   0.00000  Uiso   1.00
C1307  C     0.52793   0.48829   0.58812   0.00000  Uiso   1.00
C1308  C     0.48212   0.46104   0.90853   0.00000  Uiso   1.00
C1309  C     0.47732   0.54418   0.90552   0.00000  Uiso   1.00
C1310  C     0.45427   0.51386   0.59877   0.00000  Uiso   1.00
C1311  C     0.49395   0.49990   0.61636   0.00000  Uiso   1.00
C1312  C     0.48515   0.50175   0.88401   0.00000  Uiso   1.00
C1313  C     0.48365   0.50716   0.52463   0.00000  Uiso   1.00
C1314  C     0.47692   0.50590   0.97658   0.00000  Uiso   1.00
C1315  C     0.62546   0.49874   0.75690   0.00000  Uiso   1.00
C1316  C     0.37680   0.50263   0.76758   0.00000  Uiso   1.00
O1317  O     0.55804   0.48503   0.51586   0.00000  Uiso   1.00
H1318  H     0.55362   0.49859   0.98583   0.00000  Uiso   1.00
O1319  O     0.47401   0.42299   0.97874   0.00000  Uiso   1.00
H1320  H     0.46195   0.42915   0.50870   0.00000  Uiso   1.00
O1321  O     0.47404   0.58942   0.97100   0.00000  Uiso   1.00
H1322  H     0.47385   0.58742   0.50403   0.00000  Uiso   1.00
O1323  O     0.41109   0.52857   0.53228   0.00000  Uiso   1.00
H1324  H     0.38944   0.53415   0.55540   0.00000  Uiso   1.00
O1325  O     0.56655   0.47238   0.60372   0.00000  Uiso   1.00
H1326  H     0.56412   0.46136   0.63482   0.00000  Uiso   1.00
O1327  O     0.48461   0.41981   0.88625   0.00000  Uiso   1.00
H1328  H     0.48203   0.39425   0.90740   0.00000  Uiso   1.00
O1329  O     0.47176   0.58437   0.88236   0.00000  Uiso   1.00
H1330  H     0.45038   0.57908   0.85884   0.00000  Uiso   1.00
O1331  O     0.42001   0.52427   0.62561   0.00000  Uiso   1.00
H1332  H     0.42469   0.51255   0.65630   0.00000  Uiso   1.00
C1333  C     0.38268   0.43325   0.81755   0.00000  Uiso   1.00
C1334  C     0.38939   0.38650   0.79537   0.00000  Uiso   1.00
C1335  C     0.41926   0.35669   0.82343   0.00000  Uiso   1.00
H1336  H     0.45017   0.37237   0.82569   0.00000  Uiso   1.00
H1337  H     0.40701   0.35282   0.85787   0.00000  Uiso   1.00
H1338  H     0.42352   0.65618   0.80757   0.00000  Uiso   1.00
H1339  H     0.35935   0.36921   0.79115   0.00000  Uiso   1.00
H1340  H     0.40265   0.39012   0.76137   0.00000  Uiso   1.00
H1341  H     0.41356   0.44743   0.82584   0.00000  Uiso   1.00
H1342  H     0.36801   0.42998   0.85097   0.00000  Uiso   1.00
C1343  C     0.63049   0.57235   0.70771   0.00000  Uiso   1.00
C1344  C     0.61671   0.55178   0.66293   0.00000  Uiso   1.00
C1345  C     0.59859   0.58823   0.63143   0.00000  Uiso   1.00
H1346  H     0.57054   0.60524   0.64665   0.00000  Uiso   1.00
H1347  H     0.62235   0.61394   0.62432   0.00000  Uiso   1.00
H1348  H     0.58910   0.57233   0.59931   0.00000  Uiso   1.00
H1349  H     0.64402   0.53433   0.64664   0.00000  Uiso   1.00
H1350  H     0.59244   0.52652   0.66845   0.00000  Uiso   1.00
H1351  H     0.60499   0.59331   0.72317   0.00000  Uiso   1.00
H1352  H     0.65534   0.59666   0.69978   0.00000  Uiso   1.00
C1353  C     0.62245   0.43438   0.81621   0.00000  Uiso   1.00
C1354  C     0.60620   0.46069   0.85728   0.00000  Uiso   1.00
C1355  C     0.58915   0.42875   0.89245   0.00000  Uiso   1.00
H1356  H     0.56487   0.40723   0.87752   0.00000  Uiso   1.00
H1357  H     0.61485   0.40647   0.90617   0.00000  Uiso   1.00
H1358  H     0.57513   0.44886   0.92036   0.00000  Uiso   1.00
H1359  H     0.63209   0.47973   0.87277   0.00000  Uiso   1.00
H1360  H     0.58125   0.48560   0.84697   0.00000  Uiso   1.00
H1361  H     0.59714   0.41701   0.79878   0.00000  Uiso   1.00
H1362  H     0.64194   0.40527   0.82817   0.00000  Uiso   1.00
C1363  C     0.36026   0.58361   0.78661   0.00000  Uiso   1.00
C1364  C     0.33334   0.58069   0.82921   0.00000  Uiso   1.00
C1365  C     0.34148   0.61895   0.86216   0.00000  Uiso   1.00
H1366  H     0.37461   0.61704   0.87362   0.00000  Uiso   1.00
H1367  H     0.33411   0.65235   0.84643   0.00000  Uiso   1.00
H1368  H     0.65442   0.61543   0.89188   0.00000  Uiso   1.00
H1369  H     0.63287   0.58211   0.81994   0.00000  Uiso   1.00
H1370  H     0.34033   0.54790   0.84651   0.00000  Uiso   1.00
H1371  H     0.39356   0.58565   0.79683   0.00000  Uiso   1.00
H1372  H     0.35177   0.61525   0.76805   0.00000  Uiso   1.00
O1373  O     0.77226   0.53821   0.75000   0.00000  Uiso   1.00
O1374  O     0.89441   0.46179   0.75000   0.00000  Uiso   1.00
O1375  O     0.89441   0.53821   0.75000   0.00000  Uiso   1.00
O1376  O     0.77226   0.46179   0.74999   0.00000  Uiso   1.00
N1377  N     0.83333   0.61907   0.75000   0.00000  Uiso   1.00
N1378  N     0.83333   0.38093   0.75000   0.00000  Uiso   1.00
C1379  C     0.75374   0.50069   0.75589   0.00000  Uiso   1.00
C1380  C     0.91382   0.49937   0.75138   0.00000  Uiso   1.00
O1381  O     0.83333   0.53822   0.68453   0.00000  Uiso   1.00
O1382  O     0.83334   0.46178   0.81547   0.00000  Uiso   1.00
O1383  O     0.83334   0.53822   0.81547   0.00000  Uiso   1.00
O1384  O     0.83333   0.46178   0.68453   0.00000  Uiso   1.00
C1385  C     0.83340   0.49991   0.66396   0.00000  Uiso   1.00
C1386  C     0.82915   0.50033   0.83619   0.00000  Uiso   1.00
Zn1387 Zn    0.83333   0.55104   0.75000   0.00000  Uiso   1.00
Zn1388 Zn    0.83333   0.44896   0.75000   0.00000  Uiso   1.00
H1389  H     0.87287   0.37400   0.80703   0.00000  Uiso   1.00
H1390  H     0.79297   0.62572   0.69355   0.00000  Uiso   1.00
H1391  H     0.79321   0.37684   0.69335   0.00000  Uiso   1.00
H1392  H     0.87360   0.62309   0.80652   0.00000  Uiso   1.00
C1393  C     0.85574   0.35652   0.78137   0.00000  Uiso   1.00
C1394  C     0.81096   0.64337   0.71856   0.00000  Uiso   1.00
C1395  C     0.81111   0.35804   0.71844   0.00000  Uiso   1.00
C1396  C     0.85579   0.64189   0.78135   0.00000  Uiso   1.00
C1397  C     0.69042   0.46609   0.78796   0.00000  Uiso   1.00
C1398  C     0.98101   0.53619   0.74013   0.00000  Uiso   1.00
C1399  C     0.97963   0.46560   0.78523   0.00000  Uiso   1.00
C1400  C     0.68724   0.54208   0.75732   0.00000  Uiso   1.00
C1401  C     0.85664   0.49402   0.54232   0.00000  Uiso   1.00
C1402  C     0.81008   0.46316   0.95506   0.00000  Uiso   1.00
C1403  C     0.80922   0.54656   0.95179   0.00000  Uiso   1.00
C1404  C     0.78255   0.51692   0.55224   0.00000  Uiso   1.00
C1405  C     0.86126   0.48829   0.58812   0.00000  Uiso   1.00
C1406  C     0.81545   0.46104   0.90853   0.00000  Uiso   1.00
C1407  C     0.81065   0.54418   0.90552   0.00000  Uiso   1.00
C1408  C     0.78761   0.51386   0.59877   0.00000  Uiso   1.00
C1409  C     0.82728   0.49990   0.61636   0.00000  Uiso   1.00
C1410  C     0.81848   0.50175   0.88401   0.00000  Uiso   1.00
C1411  C     0.81698   0.50716   0.52463   0.00000  Uiso   1.00
C1412  C     0.81025   0.50590   0.97658   0.00000  Uiso   1.00
C1413  C     0.95880   0.49874   0.75690   0.00000  Uiso   1.00
C1414  C     0.71014   0.50263   0.76758   0.00000  Uiso   1.00
O1415  O     0.89138   0.48503   0.51586   0.00000  Uiso   1.00
H1416  H     0.88696   0.49859   0.98583   0.00000  Uiso   1.00
O1417  O     0.80735   0.42299   0.97874   0.00000  Uiso   1.00
H1418  H     0.79528   0.42915   0.50870   0.00000  Uiso   1.00
O1419  O     0.80737   0.58942   0.97100   0.00000  Uiso   1.00
H1420  H     0.80719   0.58742   0.50403   0.00000  Uiso   1.00
O1421  O     0.74443   0.52857   0.53228   0.00000  Uiso   1.00
H1422  H     0.72278   0.53415   0.55540   0.00000  Uiso   1.00
O1423  O     0.89988   0.47238   0.60372   0.00000  Uiso   1.00
H1424  H     0.89745   0.46136   0.63482   0.00000  Uiso   1.00
O1425  O     0.81794   0.41981   0.88625   0.00000  Uiso   1.00
H1426  H     0.81536   0.39425   0.90740   0.00000  Uiso   1.00
O1427  O     0.80510   0.58437   0.88236   0.00000  Uiso   1.00
H1428  H     0.78371   0.57908   0.85884   0.00000  Uiso   1.00
O1429  O     0.75334   0.52427   0.62561   0.00000  Uiso   1.00
H1430  H     0.75802   0.51255   0.65630   0.00000  Uiso   1.00
C1431  C     0.71601   0.43325   0.81755   0.00000  Uiso   1.00
C1432  C     0.72273   0.38650   0.79537   0.00000  Uiso   1.00
C1433  C     0.75259   0.35669   0.82343   0.00000  Uiso   1.00
H1434  H     0.78350   0.37237   0.82569   0.00000  Uiso   1.00
H1435  H     0.74035   0.35282   0.85787   0.00000  Uiso   1.00
H1436  H     0.75685   0.65618   0.80757   0.00000  Uiso   1.00
H1437  H     0.69268   0.36921   0.79115   0.00000  Uiso   1.00
H1438  H     0.73598   0.39012   0.76137   0.00000  Uiso   1.00
H1439  H     0.74690   0.44743   0.82584   0.00000  Uiso   1.00
H1440  H     0.70135   0.42998   0.85097   0.00000  Uiso   1.00
C1441  C     0.96383   0.57235   0.70771   0.00000  Uiso   1.00
C1442  C     0.95005   0.55178   0.66293   0.00000  Uiso   1.00
C1443  C     0.93192   0.58823   0.63143   0.00000  Uiso   1.00
H1444  H     0.90388   0.60524   0.64665   0.00000  Uiso   1.00
H1445  H     0.95568   0.61394   0.62432   0.00000  Uiso   1.00
H1446  H     0.92244   0.57233   0.59931   0.00000  Uiso   1.00
H1447  H     0.97736   0.53433   0.64664   0.00000  Uiso   1.00
H1448  H     0.92577   0.52652   0.66845   0.00000  Uiso   1.00
H1449  H     0.93832   0.59331   0.72317   0.00000  Uiso   1.00
H1450  H     0.98868   0.59666   0.69978   0.00000  Uiso   1.00
C1451  C     0.95578   0.43438   0.81621   0.00000  Uiso   1.00
C1452  C     0.93954   0.46069   0.85728   0.00000  Uiso   1.00
C1453  C     0.92248   0.42875   0.89245   0.00000  Uiso   1.00
H1454  H     0.89820   0.40723   0.87752   0.00000  Uiso   1.00
H1455  H     0.94818   0.40647   0.90617   0.00000  Uiso   1.00
H1456  H     0.90846   0.44886   0.92036   0.00000  Uiso   1.00
H1457  H     0.96542   0.47973   0.87277   0.00000  Uiso   1.00
H1458  H     0.91459   0.48560   0.84697   0.00000  Uiso   1.00
H1459  H     0.93047   0.41701   0.79878   0.00000  Uiso   1.00
H1460  H     0.97527   0.40527   0.82817   0.00000  Uiso   1.00
C1461  C     0.69359   0.58361   0.78661   0.00000  Uiso   1.00
C1462  C     0.66668   0.58069   0.82921   0.00000  Uiso   1.00
C1463  C     0.67482   0.61895   0.86216   0.00000  Uiso   1.00
H1464  H     0.70795   0.61704   0.87362   0.00000  Uiso   1.00
H1465  H     0.66745   0.65235   0.84643   0.00000  Uiso   1.00
H1466  H     0.98775   0.61543   0.89188   0.00000  Uiso   1.00
H1467  H     0.96621   0.58211   0.81994   0.00000  Uiso   1.00
H1468  H     0.67367   0.54790   0.84651   0.00000  Uiso   1.00
H1469  H     0.72689   0.58565   0.79683   0.00000  Uiso   1.00
H1470  H     0.68510   0.61525   0.76805   0.00000  Uiso   1.00
O1471  O     0.10559   0.87154   0.75000   0.00000  Uiso   1.00
O1472  O     0.22774   0.79513   0.75000   0.00000  Uiso   1.00
O1473  O     0.22774   0.87154   0.75000   0.00000  Uiso   1.00
O1474  O     0.10559   0.79513   0.74999   0.00000  Uiso   1.00
N1475  N     0.16667   0.95240   0.75000   0.00000  Uiso   1.00
N1476  N     0.16667   0.71427   0.75000   0.00000  Uiso   1.00
C1477  C     0.08708   0.83403   0.75589   0.00000  Uiso   1.00
C1478  C     0.24715   0.83270   0.75138   0.00000  Uiso   1.00
O1479  O     0.16666   0.87155   0.68453   0.00000  Uiso   1.00
O1480  O     0.16667   0.79511   0.81547   0.00000  Uiso   1.00
O1481  O     0.16667   0.87155   0.81547   0.00000  Uiso   1.00
O1482  O     0.16666   0.79511   0.68453   0.00000  Uiso   1.00
C1483  C     0.16674   0.83325   0.66396   0.00000  Uiso   1.00
C1484  C     0.16249   0.83367   0.83619   0.00000  Uiso   1.00
Zn1485 Zn    0.16667   0.88437   0.75000   0.00000  Uiso   1.00
Zn1486 Zn    0.16667   0.78229   0.75000   0.00000  Uiso   1.00
H1487  H     0.20621   0.70733   0.80703   0.00000  Uiso   1.00
H1488  H     0.12631   0.95905   0.69355   0.00000  Uiso   1.00
H1489  H     0.12655   0.71017   0.69335   0.00000  Uiso   1.00
H1490  H     0.20693   0.95642   0.80652   0.00000  Uiso   1.00
C1491  C     0.18908   0.68986   0.78137   0.00000  Uiso   1.00
C1492  C     0.14430   0.97671   0.71856   0.00000  Uiso   1.00
C1493  C     0.14445   0.69137   0.71844   0.00000  Uiso   1.00
C1494  C     0.18913   0.97523   0.78135   0.00000  Uiso   1.00
C1495  C     0.02375   0.79942   0.78796   0.00000  Uiso   1.00
C1496  C     0.31434   0.86952   0.74013   0.00000  Uiso   1.00
C1497  C     0.31296   0.79893   0.78523   0.00000  Uiso   1.00
C1498  C     0.02058   0.87541   0.75732   0.00000  Uiso   1.00
C1499  C     0.18997   0.82735   0.54232   0.00000  Uiso   1.00
C1500  C     0.14342   0.79649   0.95506   0.00000  Uiso   1.00
C1501  C     0.14255   0.87990   0.95179   0.00000  Uiso   1.00
C1502  C     0.11588   0.85025   0.55224   0.00000  Uiso   1.00
C1503  C     0.19460   0.82162   0.58812   0.00000  Uiso   1.00
C1504  C     0.14879   0.79437   0.90853   0.00000  Uiso   1.00
C1505  C     0.14399   0.87752   0.90552   0.00000  Uiso   1.00
C1506  C     0.12094   0.84719   0.59877   0.00000  Uiso   1.00
C1507  C     0.16061   0.83323   0.61636   0.00000  Uiso   1.00
C1508  C     0.15182   0.83508   0.88401   0.00000  Uiso   1.00
C1509  C     0.15031   0.84050   0.52463   0.00000  Uiso   1.00
C1510  C     0.14358   0.83923   0.97658   0.00000  Uiso   1.00
C1511  C     0.29213   0.83207   0.75690   0.00000  Uiso   1.00
C1512  C     0.04347   0.83597   0.76758   0.00000  Uiso   1.00
O1513  O     0.22471   0.81837   0.51586   0.00000  Uiso   1.00
H1514  H     0.22029   0.83192   0.98583   0.00000  Uiso   1.00
O1515  O     0.14068   0.75632   0.97874   0.00000  Uiso   1.00
H1516  H     0.12861   0.76248   0.50870   0.00000  Uiso   1.00
O1517  O     0.14070   0.92275   0.97100   0.00000  Uiso   1.00
H1518  H     0.14052   0.92075   0.50403   0.00000  Uiso   1.00
O1519  O     0.07776   0.86190   0.53228   0.00000  Uiso   1.00
H1520  H     0.05611   0.86749   0.55540   0.00000  Uiso   1.00
O1521  O     0.23322   0.80571   0.60372   0.00000  Uiso   1.00
H1522  H     0.23079   0.79469   0.63482   0.00000  Uiso   1.00
O1523  O     0.15128   0.75315   0.88625   0.00000  Uiso   1.00
H1524  H     0.14869   0.72758   0.90740   0.00000  Uiso   1.00
O1525  O     0.13843   0.91770   0.88236   0.00000  Uiso   1.00
H1526  H     0.11705   0.91242   0.85884   0.00000  Uiso   1.00
O1527  O     0.08668   0.85760   0.62561   0.00000  Uiso   1.00
H1528  H     0.09135   0.84588   0.65630   0.00000  Uiso   1.00
C1529  C     0.04935   0.76658   0.81755   0.00000  Uiso   1.00
C1530  C     0.05606   0.71983   0.79537   0.00000  Uiso   1.00
C1531  C     0.08593   0.69002   0.82343   0.00000  Uiso   1.00
H1532  H     0.11684   0.70570   0.82569   0.00000  Uiso   1.00
H1533  H     0.07368   0.68616   0.85787   0.00000  Uiso   1.00
H1534  H     0.09018   0.98952   0.80757   0.00000  Uiso   1.00
H1535  H     0.02601   0.70254   0.79115   0.00000  Uiso   1.00
H1536  H     0.06932   0.72345   0.76137   0.00000  Uiso   1.00
H1537  H     0.08023   0.78076   0.82584   0.00000  Uiso   1.00
H1538  H     0.03468   0.76332   0.85097   0.00000  Uiso   1.00
C1539  C     0.29716   0.90568   0.70771   0.00000  Uiso   1.00
C1540  C     0.28338   0.88512   0.66293   0.00000  Uiso   1.00
C1541  C     0.26526   0.92156   0.63143   0.00000  Uiso   1.00
H1542  H     0.23721   0.93857   0.64665   0.00000  Uiso   1.00
H1543  H     0.28901   0.94728   0.62432   0.00000  Uiso   1.00
H1544  H     0.25577   0.90567   0.59931   0.00000  Uiso   1.00
H1545  H     0.31069   0.86766   0.64664   0.00000  Uiso   1.00
H1546  H     0.25911   0.85986   0.66845   0.00000  Uiso   1.00
H1547  H     0.27165   0.92665   0.72317   0.00000  Uiso   1.00
H1548  H     0.32201   0.92999   0.69978   0.00000  Uiso   1.00
C1549  C     0.28912   0.76771   0.81621   0.00000  Uiso   1.00
C1550  C     0.27287   0.79402   0.85728   0.00000  Uiso   1.00
C1551  C     0.25582   0.76208   0.89245   0.00000  Uiso   1.00
H1552  H     0.23153   0.74056   0.87752   0.00000  Uiso   1.00
H1553  H     0.28151   0.73980   0.90617   0.00000  Uiso   1.00
H1554  H     0.24179   0.78220   0.92036   0.00000  Uiso   1.00
H1555  H     0.29875   0.81307   0.87277   0.00000  Uiso   1.00
H1556  H     0.24792   0.81894   0.84697   0.00000  Uiso   1.00
H1557  H     0.26381   0.75034   0.79878   0.00000  Uiso   1.00
H1558  H     0.30861   0.73861   0.82817   0.00000  Uiso   1.00
C1559  C     0.02693   0.91694   0.78661   0.00000  Uiso   1.00
C1560  C     0.00001   0.91403   0.82921   0.00000  Uiso   1.00
C1561  C     0.00815   0.95228   0.86216   0.00000  Uiso   1.00
H1562  H     0.04128   0.95037   0.87362   0.00000  Uiso   1.00
H1563  H     0.00078   0.98569   0.84643   0.00000  Uiso   1.00
H1564  H     0.32108   0.94876   0.89188   0.00000  Uiso   1.00
H1565  H     0.29954   0.91545   0.81994   0.00000  Uiso   1.00
H1566  H     0.00700   0.88123   0.84651   0.00000  Uiso   1.00
H1567  H     0.06022   0.91898   0.79683   0.00000  Uiso   1.00
H1568  H     0.01843   0.94858   0.76805   0.00000  Uiso   1.00
O1569  O     0.43892   0.87154   0.75000   0.00000  Uiso   1.00
O1570  O     0.56108   0.79513   0.75000   0.00000  Uiso   1.00
O1571  O     0.56108   0.87154   0.75000   0.00000  Uiso   1.00
O1572  O     0.43892   0.79513   0.74999   0.00000  Uiso   1.00
N1573  N     0.50000   0.95240   0.75000   0.00000  Uiso   1.00
N1574  N     0.50000   0.71427   0.75000   0.00000  Uiso   1.00
C1575  C     0.42041   0.83403   0.75589   0.00000  Uiso   1.00
C1576  C     0.58049   0.83270   0.75138   0.00000  Uiso   1.00
O1577  O     0.50000   0.87155   0.68453   0.00000  Uiso   1.00
O1578  O     0.50000   0.79511   0.81547   0.00000  Uiso   1.00
O1579  O     0.50000   0.87155   0.81547   0.00000  Uiso   1.00
O1580  O     0.50000   0.79511   0.68453   0.00000  Uiso   1.00
C1581  C     0.50007   0.83325   0.66396   0.00000  Uiso   1.00
C1582  C     0.49582   0.83367   0.83619   0.00000  Uiso   1.00
Zn1583 Zn    0.50000   0.88437   0.75000   0.00000  Uiso   1.00
Zn1584 Zn    0.50000   0.78229   0.75000   0.00000  Uiso   1.00
H1585  H     0.53954   0.70733   0.80703   0.00000  Uiso   1.00
H1586  H     0.45964   0.95905   0.69355   0.00000  Uiso   1.00
H1587  H     0.45988   0.71017   0.69335   0.00000  Uiso   1.00
H1588  H     0.54026   0.95642   0.80652   0.00000  Uiso   1.00
C1589  C     0.52241   0.68986   0.78137   0.00000  Uiso   1.00
C1590  C     0.47763   0.97671   0.71856   0.00000  Uiso   1.00
C1591  C     0.47778   0.69137   0.71844   0.00000  Uiso   1.00
C1592  C     0.52246   0.97523   0.78135   0.00000  Uiso   1.00
C1593  C     0.35709   0.79942   0.78796   0.00000  Uiso   1.00
C1594  C     0.64767   0.86952   0.74013   0.00000  Uiso   1.00
C1595  C     0.64629   0.79893   0.78523   0.00000  Uiso   1.00
C1596  C     0.35391   0.87541   0.75732   0.00000  Uiso   1.00
C1597  C     0.52331   0.82735   0.54232   0.00000  Uiso   1.00
C1598  C     0.47675   0.79649   0.95506   0.00000  Uiso   1.00
C1599  C     0.47588   0.87990   0.95179   0.00000  Uiso   1.00
C1600  C     0.44921   0.85025   0.55224   0.00000  Uiso   1.00
C1601  C     0.52793   0.82162   0.58812   0.00000  Uiso   1.00
C1602  C     0.48212   0.79437   0.90853   0.00000  Uiso   1.00
C1603  C     0.47732   0.87752   0.90552   0.00000  Uiso   1.00
C1604  C     0.45427   0.84719   0.59877   0.00000  Uiso   1.00
C1605  C     0.49395   0.83323   0.61636   0.00000  Uiso   1.00
C1606  C     0.48515   0.83508   0.88401   0.00000  Uiso   1.00
C1607  C     0.48365   0.84050   0.52463   0.00000  Uiso   1.00
C1608  C     0.47692   0.83923   0.97658   0.00000  Uiso   1.00
C1609  C     0.62546   0.83207   0.75690   0.00000  Uiso   1.00
C1610  C     0.37680   0.83597   0.76758   0.00000  Uiso   1.00
O1611  O     0.55804   0.81837   0.51586   0.00000  Uiso   1.00
H1612  H     0.55362   0.83192   0.98583   0.00000  Uiso   1.00
O1613  O     0.47401   0.75632   0.97874   0.00000  Uiso   1.00
H1614  H     0.46195   0.76248   0.50870   0.00000  Uiso   1.00
O1615  O     0.47404   0.92275   0.97100   0.00000  Uiso   1.00
H1616  H     0.47385   0.92075   0.50403   0.00000  Uiso   1.00
O1617  O     0.41109   0.86190   0.53228   0.00000  Uiso   1.00
H1618  H     0.38944   0.86749   0.55540   0.00000  Uiso   1.00
O1619  O     0.56655   0.80571   0.60372   0.00000  Uiso   1.00
H1620  H     0.56412   0.79469   0.63482   0.00000  Uiso   1.00
O1621  O     0.48461   0.75315   0.88625   0.00000  Uiso   1.00
H1622  H     0.48203   0.72758   0.90740   0.00000  Uiso   1.00
O1623  O     0.47176   0.91770   0.88236   0.00000  Uiso   1.00
H1624  H     0.45038   0.91242   0.85884   0.00000  Uiso   1.00
O1625  O     0.42001   0.85760   0.62561   0.00000  Uiso   1.00
H1626  H     0.42469   0.84588   0.65630   0.00000  Uiso   1.00
C1627  C     0.38268   0.76658   0.81755   0.00000  Uiso   1.00
C1628  C     0.38939   0.71983   0.79537   0.00000  Uiso   1.00
C1629  C     0.41926   0.69002   0.82343   0.00000  Uiso   1.00
H1630  H     0.45017   0.70570   0.82569   0.00000  Uiso   1.00
H1631  H     0.40701   0.68616   0.85787   0.00000  Uiso   1.00
H1632  H     0.42352   0.98952   0.80757   0.00000  Uiso   1.00
H1633  H     0.35935   0.70254   0.79115   0.00000  Uiso   1.00
H1634  H     0.40265   0.72345   0.76137   0.00000  Uiso   1.00
H1635  H     0.41356   0.78076   0.82584   0.00000  Uiso   1.00
H1636  H     0.36801   0.76332   0.85097   0.00000  Uiso   1.00
C1637  C     0.63049   0.90568   0.70771   0.00000  Uiso   1.00
C1638  C     0.61671   0.88512   0.66293   0.00000  Uiso   1.00
C1639  C     0.59859   0.92156   0.63143   0.00000  Uiso   1.00
H1640  H     0.57054   0.93857   0.64665   0.00000  Uiso   1.00
H1641  H     0.62235   0.94728   0.62432   0.00000  Uiso   1.00
H1642  H     0.58910   0.90567   0.59931   0.00000  Uiso   1.00
H1643  H     0.64402   0.86766   0.64664   0.00000  Uiso   1.00
H1644  H     0.59244   0.85986   0.66845   0.00000  Uiso   1.00
H1645  H     0.60499   0.92665   0.72317   0.00000  Uiso   1.00
H1646  H     0.65534   0.92999   0.69978   0.00000  Uiso   1.00
C1647  C     0.62245   0.76771   0.81621   0.00000  Uiso   1.00
C1648  C     0.60620   0.79402   0.85728   0.00000  Uiso   1.00
C1649  C     0.58915   0.76208   0.89245   0.00000  Uiso   1.00
H1650  H     0.56487   0.74056   0.87752   0.00000  Uiso   1.00
H1651  H     0.61485   0.73980   0.90617   0.00000  Uiso   1.00
H1652  H     0.57513   0.78220   0.92036   0.00000  Uiso   1.00
H1653  H     0.63209   0.81307   0.87277   0.00000  Uiso   1.00
H1654  H     0.58125   0.81894   0.84697   0.00000  Uiso   1.00
H1655  H     0.59714   0.75034   0.79878   0.00000  Uiso   1.00
H1656  H     0.64194   0.73861   0.82817   0.00000  Uiso   1.00
C1657  C     0.36026   0.91694   0.78661   0.00000  Uiso   1.00
C1658  C     0.33334   0.91403   0.82921   0.00000  Uiso   1.00
C1659  C     0.34148   0.95228   0.86216   0.00000  Uiso   1.00
H1660  H     0.37461   0.95037   0.87362   0.00000  Uiso   1.00
H1661  H     0.33411   0.98569   0.84643   0.00000  Uiso   1.00
H1662  H     0.65442   0.94876   0.89188   0.00000  Uiso   1.00
H1663  H     0.63287   0.91545   0.81994   0.00000  Uiso   1.00
H1664  H     0.34033   0.88123   0.84651   0.00000  Uiso   1.00
H1665  H     0.39356   0.91898   0.79683   0.00000  Uiso   1.00
H1666  H     0.35177   0.94858   0.76805   0.00000  Uiso   1.00
O1667  O     0.77226   0.87154   0.75000   0.00000  Uiso   1.00
O1668  O     0.89441   0.79513   0.75000   0.00000  Uiso   1.00
O1669  O     0.89441   0.87154   0.75000   0.00000  Uiso   1.00
O1670  O     0.77226   0.79513   0.74999   0.00000  Uiso   1.00
N1671  N     0.83333   0.95240   0.75000   0.00000  Uiso   1.00
N1672  N     0.83333   0.71427   0.75000   0.00000  Uiso   1.00
C1673  C     0.75374   0.83403   0.75589   0.00000  Uiso   1.00
C1674  C     0.91382   0.83270   0.75138   0.00000  Uiso   1.00
O1675  O     0.83333   0.87155   0.68453   0.00000  Uiso   1.00
O1676  O     0.83334   0.79511   0.81547   0.00000  Uiso   1.00
O1677  O     0.83334   0.87155   0.81547   0.00000  Uiso   1.00
O1678  O     0.83333   0.79511   0.68453   0.00000  Uiso   1.00
C1679  C     0.83340   0.83325   0.66396   0.00000  Uiso   1.00
C1680  C     0.82915   0.83367   0.83619   0.00000  Uiso   1.00
Zn1681 Zn    0.83333   0.88437   0.75000   0.00000  Uiso   1.00
Zn1682 Zn    0.83333   0.78229   0.75000   0.00000  Uiso   1.00
H1683  H     0.87287   0.70733   0.80703   0.00000  Uiso   1.00
H1684  H     0.79297   0.95905   0.69355   0.00000  Uiso   1.00
H1685  H     0.79321   0.71017   0.69335   0.00000  Uiso   1.00
H1686  H     0.87360   0.95642   0.80652   0.00000  Uiso   1.00
C1687  C     0.85574   0.68986   0.78137   0.00000  Uiso   1.00
C1688  C     0.81096   0.97671   0.71856   0.00000  Uiso   1.00
C1689  C     0.81111   0.69137   0.71844   0.00000  Uiso   1.00
C1690  C     0.85579   0.97523   0.78135   0.00000  Uiso   1.00
C1691  C     0.69042   0.79942   0.78796   0.00000  Uiso   1.00
C1692  C     0.98101   0.86952   0.74013   0.00000  Uiso   1.00
C1693  C     0.97963   0.79893   0.78523   0.00000  Uiso   1.00
C1694  C     0.68724   0.87541   0.75732   0.00000  Uiso   1.00
C1695  C     0.85664   0.82735   0.54232   0.00000  Uiso   1.00
C1696  C     0.81008   0.79649   0.95506   0.00000  Uiso   1.00
C1697  C     0.80922   0.87990   0.95179   0.00000  Uiso   1.00
C1698  C     0.78255   0.85025   0.55224   0.00000  Uiso   1.00
C1699  C     0.86126   0.82162   0.58812   0.00000  Uiso   1.00
C1700  C     0.81545   0.79437   0.90853   0.00000  Uiso   1.00
C1701  C     0.81065   0.87752   0.90552   0.00000  Uiso   1.00
C1702  C     0.78761   0.84719   0.59877   0.00000  Uiso   1.00
C1703  C     0.82728   0.83323   0.61636   0.00000  Uiso   1.00
C1704  C     0.81848   0.83508   0.88401   0.00000  Uiso   1.00
C1705  C     0.81698   0.84050   0.52463   0.00000  Uiso   1.00
C1706  C     0.81025   0.83923   0.97658   0.00000  Uiso   1.00
C1707  C     0.95880   0.83207   0.75690   0.00000  Uiso   1.00
C1708  C     0.71014   0.83597   0.76758   0.00000  Uiso   1.00
O1709  O     0.89138   0.81837   0.51586   0.00000  Uiso   1.00
H1710  H     0.88696   0.83192   0.98583   0.00000  Uiso   1.00
O1711  O     0.80735   0.75632   0.97874   0.00000  Uiso   1.00
H1712  H     0.79528   0.76248   0.50870   0.00000  Uiso   1.00
O1713  O     0.80737   0.92275   0.97100   0.00000  Uiso   1.00
H1714  H     0.80719   0.92075   0.50403   0.00000  Uiso   1.00
O1715  O     0.74443   0.86190   0.53228   0.00000  Uiso   1.00
H1716  H     0.72278   0.86749   0.55540   0.00000  Uiso   1.00
O1717  O     0.89988   0.80571   0.60372   0.00000  Uiso   1.00
H1718  H     0.89745   0.79469   0.63482   0.00000  Uiso   1.00
O1719  O     0.81794   0.75315   0.88625   0.00000  Uiso   1.00
H1720  H     0.81536   0.72758   0.90740   0.00000  Uiso   1.00
O1721  O     0.80510   0.91770   0.88236   0.00000  Uiso   1.00
H1722  H     0.78371   0.91242   0.85884   0.00000  Uiso   1.00
O1723  O     0.75334   0.85760   0.62561   0.00000  Uiso   1.00
H1724  H     0.75802   0.84588   0.65630   0.00000  Uiso   1.00
C1725  C     0.71601   0.76658   0.81755   0.00000  Uiso   1.00
C1726  C     0.72273   0.71983   0.79537   0.00000  Uiso   1.00
C1727  C     0.75259   0.69002   0.82343   0.00000  Uiso   1.00
H1728  H     0.78350   0.70570   0.82569   0.00000  Uiso   1.00
H1729  H     0.74035   0.68616   0.85787   0.00000  Uiso   1.00
H1730  H     0.75685   0.98952   0.80757   0.00000  Uiso   1.00
H1731  H     0.69268   0.70254   0.79115   0.00000  Uiso   1.00
H1732  H     0.73598   0.72345   0.76137   0.00000  Uiso   1.00
H1733  H     0.74690   0.78076   0.82584   0.00000  Uiso   1.00
H1734  H     0.70135   0.76332   0.85097   0.00000  Uiso   1.00
C1735  C     0.96383   0.90568   0.70771   0.00000  Uiso   1.00
C1736  C     0.95005   0.88512   0.66293   0.00000  Uiso   1.00
C1737  C     0.93192   0.92156   0.63143   0.00000  Uiso   1.00
H1738  H     0.90388   0.93857   0.64665   0.00000  Uiso   1.00
H1739  H     0.95568   0.94728   0.62432   0.00000  Uiso   1.00
H1740  H     0.92244   0.90567   0.59931   0.00000  Uiso   1.00
H1741  H     0.97736   0.86766   0.64664   0.00000  Uiso   1.00
H1742  H     0.92577   0.85986   0.66845   0.00000  Uiso   1.00
H1743  H     0.93832   0.92665   0.72317   0.00000  Uiso   1.00
H1744  H     0.98868   0.92999   0.69978   0.00000  Uiso   1.00
C1745  C     0.95578   0.76771   0.81621   0.00000  Uiso   1.00
C1746  C     0.93954   0.79402   0.85728   0.00000  Uiso   1.00
C1747  C     0.92248   0.76208   0.89245   0.00000  Uiso   1.00
H1748  H     0.89820   0.74056   0.87752   0.00000  Uiso   1.00
H1749  H     0.94818   0.73980   0.90617   0.00000  Uiso   1.00
H1750  H     0.90846   0.78220   0.92036   0.00000  Uiso   1.00
H1751  H     0.96542   0.81307   0.87277   0.00000  Uiso   1.00
H1752  H     0.91459   0.81894   0.84697   0.00000  Uiso   1.00
H1753  H     0.93047   0.75034   0.79878   0.00000  Uiso   1.00
H1754  H     0.97527   0.73861   0.82817   0.00000  Uiso   1.00
C1755  C     0.69359   0.91694   0.78661   0.00000  Uiso   1.00
C1756  C     0.66668   0.91403   0.82921   0.00000  Uiso   1.00
C1757  C     0.67482   0.95228   0.86216   0.00000  Uiso   1.00
H1758  H     0.70795   0.95037   0.87362   0.00000  Uiso   1.00
H1759  H     0.66745   0.98569   0.84643   0.00000  Uiso   1.00
H1760  H     0.98775   0.94876   0.89188   0.00000  Uiso   1.00
H1761  H     0.96621   0.91545   0.81994   0.00000  Uiso   1.00
H1762  H     0.67367   0.88123   0.84651   0.00000  Uiso   1.00
H1763  H     0.72689   0.91898   0.79683   0.00000  Uiso   1.00
H1764  H     0.68510   0.94858   0.76805   0.00000  Uiso   1.00
loop_
_geom_bond_atom_site_label_1
_geom_bond_atom_site_label_2
_geom_bond_distance
_geom_bond_site_symmetry_2
_ccdc_geom_bond_type
O1     C7      1.283   .     A
O1     Zn15    1.999   .     S
O2     Zn16    1.999   .     S
O2     C8      1.287   .     A
O3     C8      1.285   .     A
O3     Zn15    1.975   .     S
O4     C7      1.285   .     A
O4     Zn16    1.975   .     S
N5     C22     1.366   .     A
N5     C24     1.365   .     A
N5     Zn15    2.004   .     S
N6     C21     1.366   .     A
N6     C23     1.366   .     A
N6     Zn16    2.004   .     S
C7     C42     1.437   .     S
C8     C41     1.444   .     S
O9     C13     1.284   .     A
O9     Zn15    1.989   .     S
O10    C14     1.296   .     A
O10    Zn16    1.989   .     S
O11    C14     1.288   .     A
O11    Zn15    1.990   .     S
O12    Zn16    1.990   .     S
O12    C13     1.281   .     A
C13    C37     1.432   .     S
C14    C38     1.469   .     S
H17    C21     1.078   .     S
H18    C22     1.082   .     S
H19    C23     1.082   .     S
H20    C24     1.082   .     S
C21    C612    1.413   1_545 S
C22    C317    1.414   .     S
C23    C610    1.414   1_545 S
C24    C315    1.413   .     S
C25    C42     1.406   .     A
C25    C59     1.526   .     S
C25    C223    1.412   1_455 S
C26    C69     1.527   .     S
C26    C41     1.424   .     A
C26    C126    1.377   .     S
C27    C79     1.529   .     S
C27    C41     1.437   .     A
C27    C123    1.412   .     S
C28    C89     1.520   .     S
C28    C42     1.387   .     A
C28    C222    1.377   1_455 S
C29    C33     1.384   .     A
C29    O43     1.384   .     S
C29    C39     1.412   .     A
C30    O45     1.385   .     S
C30    C34     1.401   .     A
C30    C40     1.413   .     A
C31    C40     1.409   .     A
C31    C35     1.383   .     A
C31    O47     1.385   .     S
C32    C36     1.399   .     A
C32    C39     1.400   .     A
C32    O49     1.386   .     S
C33    C37     1.411   .     A
C33    O51     1.384   .     S
C34    C38     1.412   .     A
C34    O53     1.384   .     S
C35    O55     1.378   .     S
C35    C38     1.420   .     A
C36    C37     1.418   .     A
C36    O57     1.386   .     S
C39    C922    1.449   1_554 S
C40    C921    1.449   .     S
O43    H926    0.989   1_554 S
H44    O925    0.989   .     S
O45    H928    0.990   .     S
H46    O927    0.990   1_554 S
O47    H930    0.987   .     S
H48    O929    0.987   1_554 S
O49    H50     0.989   .     S
O51    H52     0.988   .     S
O53    H54     0.989   .     S
O55    H56     0.992   .     S
O57    H58     0.988   .     S
C59    H67     1.110   .     S
C59    C60     1.536   .     S
C59    H68     1.110   .     S
C60    H66     1.108   .     S
C60    C61     1.524   .     S
C60    H65     1.107   .     S
C61    H63     1.109   .     S
C61    H62     1.105   .     S
C61    H652    1.108   1_545 S
H64    C355    1.108   .     S
C69    H77     1.109   .     S
C69    H78     1.113   .     S
C69    C70     1.534   .     S
C70    C71     1.526   .     S
C70    H76     1.105   .     S
C70    H75     1.112   .     S
C71    H73     1.111   .     S
C71    H74     1.111   .     S
C71    H72     1.111   .     S
C79    H87     1.098   .     S
C79    H88     1.102   .     S
C79    C80     1.533   .     S
C80    H86     1.109   .     S
C80    H85     1.112   .     S
C80    C81     1.525   .     S
C81    H82     1.108   .     S
C81    H83     1.111   .     S
C81    H84     1.109   .     S
C89    H97     1.108   .     S
C89    H98     1.110   .     S
C89    C90     1.543   .     S
C90    H96     1.112   .     S
C90    C91     1.522   .     S
C90    H291    1.112   1_455 S
C91    H92     1.110   .     S
C91    H93     1.109   .     S
C91    H290    1.111   1_455 S
H94    C189    1.111   .     S
H95    C188    1.112   .     S
O99    C105    1.283   .     A
O99    Zn113   1.999   .     S
O100   Zn114   1.999   .     S
O100   C106    1.287   .     A
O101   C106    1.285   .     A
O101   Zn113   1.975   .     S
O102   C105    1.285   .     A
O102   Zn114   1.975   .     S
N103   C120    1.366   .     A
N103   C122    1.365   .     A
N103   Zn113   2.004   .     S
N104   C119    1.366   .     A
N104   C121    1.366   .     A
N104   Zn114   2.004   .     S
C105   C140    1.437   .     S
C106   C139    1.444   .     S
O107   C111    1.284   .     A
O107   Zn113   1.989   .     S
O108   C112    1.296   .     A
O108   Zn114   1.989   .     S
O109   C112    1.288   .     A
O109   Zn113   1.990   .     S
O110   Zn114   1.990   .     S
O110   C111    1.281   .     A
C111   C135    1.432   .     S
C112   C136    1.469   .     S
H115   C119    1.078   .     S
H116   C120    1.082   .     S
H117   C121    1.082   .     S
H118   C122    1.082   .     S
C119   C710    1.413   1_545 S
C120   C415    1.414   .     S
C121   C708    1.414   1_545 S
C122   C413    1.413   .     S
C123   C140    1.406   .     A
C123   C157    1.526   .     S
C124   C167    1.527   .     S
C124   C139    1.424   .     A
C124   C224    1.377   .     S
C125   C177    1.529   .     S
C125   C139    1.437   .     A
C125   C221    1.412   .     S
C126   C187    1.520   .     S
C126   C140    1.387   .     A
C127   C131    1.384   .     A
C127   O141    1.384   .     S
C127   C137    1.412   .     A
C128   O143    1.385   .     S
C128   C132    1.401   .     A
C128   C138    1.413   .     A
C129   C138    1.409   .     A
C129   C133    1.383   .     A
C129   O145    1.385   .     S
C130   C134    1.399   .     A
C130   C137    1.400   .     A
C130   O147    1.386   .     S
C131   C135    1.411   .     A
C131   O149    1.384   .     S
C132   C136    1.412   .     A
C132   O151    1.384   .     S
C133   O153    1.378   .     S
C133   C136    1.420   .     A
C134   C135    1.418   .     A
C134   O155    1.386   .     S
C137   C1020   1.449   1_554 S
C138   C1019   1.449   .     S
O141   H1024   0.989   1_554 S
H142   O1023   0.989   .     S
O143   H1026   0.990   .     S
H144   O1025   0.990   1_554 S
O145   H1028   0.987   .     S
H146   O1027   0.987   1_554 S
O147   H148    0.989   .     S
O149   H150    0.988   .     S
O151   H152    0.989   .     S
O153   H154    0.992   .     S
O155   H156    0.988   .     S
C157   H165    1.110   .     S
C157   C158    1.536   .     S
C157   H166    1.110   .     S
C158   H164    1.108   .     S
C158   C159    1.524   .     S
C158   H163    1.107   .     S
C159   H161    1.109   .     S
C159   H160    1.105   .     S
C159   H750    1.108   1_545 S
H162   C453    1.108   .     S
C167   H175    1.109   .     S
C167   H176    1.113   .     S
C167   C168    1.534   .     S
C168   C169    1.526   .     S
C168   H174    1.105   .     S
C168   H173    1.112   .     S
C169   H171    1.111   .     S
C169   H172    1.111   .     S
C169   H170    1.111   .     S
C177   H185    1.098   .     S
C177   H186    1.102   .     S
C177   C178    1.533   .     S
C178   H184    1.109   .     S
C178   H183    1.112   .     S
C178   C179    1.525   .     S
C179   H180    1.108   .     S
C179   H181    1.111   .     S
C179   H182    1.109   .     S
C187   H195    1.108   .     S
C187   H196    1.110   .     S
C187   C188    1.543   .     S
C188   H194    1.112   .     S
C188   C189    1.522   .     S
C189   H190    1.110   .     S
C189   H191    1.109   .     S
H192   C287    1.111   .     S
H193   C286    1.112   .     S
O197   C203    1.283   .     A
O197   Zn211   1.999   .     S
O198   Zn212   1.999   .     S
O198   C204    1.287   .     A
O199   C204    1.285   .     A
O199   Zn211   1.975   .     S
O200   C203    1.285   .     A
O200   Zn212   1.975   .     S
N201   C218    1.366   .     A
N201   C220    1.365   .     A
N201   Zn211   2.004   .     S
N202   C217    1.366   .     A
N202   C219    1.366   .     A
N202   Zn212   2.004   .     S
C203   C238    1.437   .     S
C204   C237    1.444   .     S
O205   C209    1.284   .     A
O205   Zn211   1.989   .     S
O206   C210    1.296   .     A
O206   Zn212   1.989   .     S
O207   C210    1.288   .     A
O207   Zn211   1.990   .     S
O208   Zn212   1.990   .     S
O208   C209    1.281   .     A
C209   C233    1.432   .     S
C210   C234    1.469   .     S
H213   C217    1.078   .     S
H214   C218    1.082   .     S
H215   C219    1.082   .     S
H216   C220    1.082   .     S
C217   C808    1.413   1_545 S
C218   C513    1.414   .     S
C219   C806    1.414   1_545 S
C220   C511    1.413   .     S
C221   C238    1.406   .     A
C221   C255    1.526   .     S
C222   C265    1.527   .     S
C222   C237    1.424   .     A
C222   C28     1.377   1_655 S
C223   C275    1.529   .     S
C223   C237    1.437   .     A
C223   C25     1.412   1_655 S
C224   C285    1.520   .     S
C224   C238    1.387   .     A
C225   C229    1.384   .     A
C225   O239    1.384   .     S
C225   C235    1.412   .     A
C226   O241    1.385   .     S
C226   C230    1.401   .     A
C226   C236    1.413   .     A
C227   C236    1.409   .     A
C227   C231    1.383   .     A
C227   O243    1.385   .     S
C228   C232    1.399   .     A
C228   C235    1.400   .     A
C228   O245    1.386   .     S
C229   C233    1.411   .     A
C229   O247    1.384   .     S
C230   C234    1.412   .     A
C230   O249    1.384   .     S
C231   O251    1.378   .     S
C231   C234    1.420   .     A
C232   C233    1.418   .     A
C232   O253    1.386   .     S
C235   C1118   1.449   1_554 S
C236   C1117   1.449   .     S
O239   H1122   0.989   1_554 S
H240   O1121   0.989   .     S
O241   H1124   0.990   .     S
H242   O1123   0.990   1_554 S
O243   H1126   0.987   .     S
H244   O1125   0.987   1_554 S
O245   H246    0.989   .     S
O247   H248    0.988   .     S
O249   H250    0.989   .     S
O251   H252    0.992   .     S
O253   H254    0.988   .     S
C255   H263    1.110   .     S
C255   C256    1.536   .     S
C255   H264    1.110   .     S
C256   H262    1.108   .     S
C256   C257    1.524   .     S
C256   H261    1.107   .     S
C257   H259    1.109   .     S
C257   H258    1.105   .     S
C257   H848    1.108   1_545 S
H260   C551    1.108   .     S
C265   H273    1.109   .     S
C265   H274    1.113   .     S
C265   C266    1.534   .     S
C266   C267    1.526   .     S
C266   H272    1.105   .     S
C266   H271    1.112   .     S
C267   H269    1.111   .     S
C267   H270    1.111   .     S
C267   H268    1.111   .     S
C275   H283    1.098   .     S
C275   H284    1.102   .     S
C275   C276    1.533   .     S
C276   H282    1.109   .     S
C276   H281    1.112   .     S
C276   C277    1.525   .     S
C277   H278    1.108   .     S
C277   H279    1.111   .     S
C277   H280    1.109   .     S
C285   H293    1.108   .     S
C285   H294    1.110   .     S
C285   C286    1.543   .     S
C286   H292    1.112   .     S
C286   C287    1.522   .     S
C287   H288    1.110   .     S
C287   H289    1.109   .     S
H290   C91     1.111   1_655 S
H291   C90     1.112   1_655 S
O295   C301    1.283   .     A
O295   Zn309   1.999   .     S
O296   Zn310   1.999   .     S
O296   C302    1.287   .     A
O297   C302    1.285   .     A
O297   Zn309   1.975   .     S
O298   C301    1.285   .     A
O298   Zn310   1.975   .     S
N299   C316    1.366   .     A
N299   C318    1.365   .     A
N299   Zn309   2.004   .     S
N300   C315    1.366   .     A
N300   C317    1.366   .     A
N300   Zn310   2.004   .     S
C301   C336    1.437   .     S
C302   C335    1.444   .     S
O303   C307    1.284   .     A
O303   Zn309   1.989   .     S
O304   C308    1.296   .     A
O304   Zn310   1.989   .     S
O305   C308    1.288   .     A
O305   Zn309   1.990   .     S
O306   Zn310   1.990   .     S
O306   C307    1.281   .     A
C307   C331    1.432   .     S
C308   C332    1.469   .     S
H311   C315    1.078   .     S
H312   C316    1.082   .     S
H313   C317    1.082   .     S
H314   C318    1.082   .     S
C316   C611    1.414   .     S
C318   C609    1.413   .     S
C319   C336    1.406   .     A
C319   C353    1.526   .     S
C319   C517    1.412   1_455 S
C320   C363    1.527   .     S
C320   C335    1.424   .     A
C320   C420    1.377   .     S
C321   C373    1.529   .     S
C321   C335    1.437   .     A
C321   C417    1.412   .     S
C322   C383    1.520   .     S
C322   C336    1.387   .     A
C322   C516    1.377   1_455 S
C323   C327    1.384   .     A
C323   O337    1.384   .     S
C323   C333    1.412   .     A
C324   O339    1.385   .     S
C324   C328    1.401   .     A
C324   C334    1.413   .     A
C325   C334    1.409   .     A
C325   C329    1.383   .     A
C325   O341    1.385   .     S
C326   C330    1.399   .     A
C326   C333    1.400   .     A
C326   O343    1.386   .     S
C327   C331    1.411   .     A
C327   O345    1.384   .     S
C328   C332    1.412   .     A
C328   O347    1.384   .     S
C329   O349    1.378   .     S
C329   C332    1.420   .     A
C330   C331    1.418   .     A
C330   O351    1.386   .     S
C333   C1216   1.449   1_554 S
C334   C1215   1.449   .     S
O337   H1220   0.989   1_554 S
H338   O1219   0.989   .     S
O339   H1222   0.990   .     S
H340   O1221   0.990   1_554 S
O341   H1224   0.987   .     S
H342   O1223   0.987   1_554 S
O343   H344    0.989   .     S
O345   H346    0.988   .     S
O347   H348    0.989   .     S
O349   H350    0.992   .     S
O351   H352    0.988   .     S
C353   H361    1.110   .     S
C353   C354    1.536   .     S
C353   H362    1.110   .     S
C354   H360    1.108   .     S
C354   C355    1.524   .     S
C354   H359    1.107   .     S
C355   H357    1.109   .     S
C355   H356    1.105   .     S
H358   C649    1.108   .     S
C363   H371    1.109   .     S
C363   H372    1.113   .     S
C363   C364    1.534   .     S
C364   C365    1.526   .     S
C364   H370    1.105   .     S
C364   H369    1.112   .     S
C365   H367    1.111   .     S
C365   H368    1.111   .     S
C365   H366    1.111   .     S
C373   H381    1.098   .     S
C373   H382    1.102   .     S
C373   C374    1.533   .     S
C374   H380    1.109   .     S
C374   H379    1.112   .     S
C374   C375    1.525   .     S
C375   H376    1.108   .     S
C375   H377    1.111   .     S
C375   H378    1.109   .     S
C383   H391    1.108   .     S
C383   H392    1.110   .     S
C383   C384    1.543   .     S
C384   H390    1.112   .     S
C384   C385    1.522   .     S
C384   H585    1.112   1_455 S
C385   H386    1.110   .     S
C385   H387    1.109   .     S
C385   H584    1.111   1_455 S
H388   C483    1.111   .     S
H389   C482    1.112   .     S
O393   C399    1.283   .     A
O393   Zn407   1.999   .     S
O394   Zn408   1.999   .     S
O394   C400    1.287   .     A
O395   C400    1.285   .     A
O395   Zn407   1.975   .     S
O396   C399    1.285   .     A
O396   Zn408   1.975   .     S
N397   C414    1.366   .     A
N397   C416    1.365   .     A
N397   Zn407   2.004   .     S
N398   C413    1.366   .     A
N398   C415    1.366   .     A
N398   Zn408   2.004   .     S
C399   C434    1.437   .     S
C400   C433    1.444   .     S
O401   C405    1.284   .     A
O401   Zn407   1.989   .     S
O402   C406    1.296   .     A
O402   Zn408   1.989   .     S
O403   C406    1.288   .     A
O403   Zn407   1.990   .     S
O404   Zn408   1.990   .     S
O404   C405    1.281   .     A
C405   C429    1.432   .     S
C406   C430    1.469   .     S
H409   C413    1.078   .     S
H410   C414    1.082   .     S
H411   C415    1.082   .     S
H412   C416    1.082   .     S
C414   C709    1.414   .     S
C416   C707    1.413   .     S
C417   C434    1.406   .     A
C417   C451    1.526   .     S
C418   C461    1.527   .     S
C418   C433    1.424   .     A
C418   C518    1.377   .     S
C419   C471    1.529   .     S
C419   C433    1.437   .     A
C419   C515    1.412   .     S
C420   C481    1.520   .     S
C420   C434    1.387   .     A
C421   C425    1.384   .     A
C421   O435    1.384   .     S
C421   C431    1.412   .     A
C422   O437    1.385   .     S
C422   C426    1.401   .     A
C422   C432    1.413   .     A
C423   C432    1.409   .     A
C423   C427    1.383   .     A
C423   O439    1.385   .     S
C424   C428    1.399   .     A
C424   C431    1.400   .     A
C424   O441    1.386   .     S
C425   C429    1.411   .     A
C425   O443    1.384   .     S
C426   C430    1.412   .     A
C426   O445    1.384   .     S
C427   O447    1.378   .     S
C427   C430    1.420   .     A
C428   C429    1.418   .     A
C428   O449    1.386   .     S
C431   C1314   1.449   1_554 S
C432   C1313   1.449   .     S
O435   H1318   0.989   1_554 S
H436   O1317   0.989   .     S
O437   H1320   0.990   .     S
H438   O1319   0.990   1_554 S
O439   H1322   0.987   .     S
H440   O1321   0.987   1_554 S
O441   H442    0.989   .     S
O443   H444    0.988   .     S
O445   H446    0.989   .     S
O447   H448    0.992   .     S
O449   H450    0.988   .     S
C451   H459    1.110   .     S
C451   C452    1.536   .     S
C451   H460    1.110   .     S
C452   H458    1.108   .     S
C452   C453    1.524   .     S
C452   H457    1.107   .     S
C453   H455    1.109   .     S
C453   H454    1.105   .     S
H456   C747    1.108   .     S
C461   H469    1.109   .     S
C461   H470    1.113   .     S
C461   C462    1.534   .     S
C462   C463    1.526   .     S
C462   H468    1.105   .     S
C462   H467    1.112   .     S
C463   H465    1.111   .     S
C463   H466    1.111   .     S
C463   H464    1.111   .     S
C471   H479    1.098   .     S
C471   H480    1.102   .     S
C471   C472    1.533   .     S
C472   H478    1.109   .     S
C472   H477    1.112   .     S
C472   C473    1.525   .     S
C473   H474    1.108   .     S
C473   H475    1.111   .     S
C473   H476    1.109   .     S
C481   H489    1.108   .     S
C481   H490    1.110   .     S
C481   C482    1.543   .     S
C482   H488    1.112   .     S
C482   C483    1.522   .     S
C483   H484    1.110   .     S
C483   H485    1.109   .     S
H486   C581    1.111   .     S
H487   C580    1.112   .     S
O491   C497    1.283   .     A
O491   Zn505   1.999   .     S
O492   Zn506   1.999   .     S
O492   C498    1.287   .     A
O493   C498    1.285   .     A
O493   Zn505   1.975   .     S
O494   C497    1.285   .     A
O494   Zn506   1.975   .     S
N495   C512    1.366   .     A
N495   C514    1.365   .     A
N495   Zn505   2.004   .     S
N496   C511    1.366   .     A
N496   C513    1.366   .     A
N496   Zn506   2.004   .     S
C497   C532    1.437   .     S
C498   C531    1.444   .     S
O499   C503    1.284   .     A
O499   Zn505   1.989   .     S
O500   C504    1.296   .     A
O500   Zn506   1.989   .     S
O501   C504    1.288   .     A
O501   Zn505   1.990   .     S
O502   Zn506   1.990   .     S
O502   C503    1.281   .     A
C503   C527    1.432   .     S
C504   C528    1.469   .     S
H507   C511    1.078   .     S
H508   C512    1.082   .     S
H509   C513    1.082   .     S
H510   C514    1.082   .     S
C512   C807    1.414   .     S
C514   C805    1.413   .     S
C515   C532    1.406   .     A
C515   C549    1.526   .     S
C516   C559    1.527   .     S
C516   C531    1.424   .     A
C516   C322    1.377   1_655 S
C517   C569    1.529   .     S
C517   C531    1.437   .     A
C517   C319    1.412   1_655 S
C518   C579    1.520   .     S
C518   C532    1.387   .     A
C519   C523    1.384   .     A
C519   O533    1.384   .     S
C519   C529    1.412   .     A
C520   O535    1.385   .     S
C520   C524    1.401   .     A
C520   C530    1.413   .     A
C521   C530    1.409   .     A
C521   C525    1.383   .     A
C521   O537    1.385   .     S
C522   C526    1.399   .     A
C522   C529    1.400   .     A
C522   O539    1.386   .     S
C523   C527    1.411   .     A
C523   O541    1.384   .     S
C524   C528    1.412   .     A
C524   O543    1.384   .     S
C525   O545    1.378   .     S
C525   C528    1.420   .     A
C526   C527    1.418   .     A
C526   O547    1.386   .     S
C529   C1412   1.449   1_554 S
C530   C1411   1.449   .     S
O533   H1416   0.989   1_554 S
H534   O1415   0.989   .     S
O535   H1418   0.990   .     S
H536   O1417   0.990   1_554 S
O537   H1420   0.987   .     S
H538   O1419   0.987   1_554 S
O539   H540    0.989   .     S
O541   H542    0.988   .     S
O543   H544    0.989   .     S
O545   H546    0.992   .     S
O547   H548    0.988   .     S
C549   H557    1.110   .     S
C549   C550    1.536   .     S
C549   H558    1.110   .     S
C550   H556    1.108   .     S
C550   C551    1.524   .     S
C550   H555    1.107   .     S
C551   H553    1.109   .     S
C551   H552    1.105   .     S
H554   C845    1.108   .     S
C559   H567    1.109   .     S
C559   H568    1.113   .     S
C559   C560    1.534   .     S
C560   C561    1.526   .     S
C560   H566    1.105   .     S
C560   H565    1.112   .     S
C561   H563    1.111   .     S
C561   H564    1.111   .     S
C561   H562    1.111   .     S
C569   H577    1.098   .     S
C569   H578    1.102   .     S
C569   C570    1.533   .     S
C570   H576    1.109   .     S
C570   H575    1.112   .     S
C570   C571    1.525   .     S
C571   H572    1.108   .     S
C571   H573    1.111   .     S
C571   H574    1.109   .     S
C579   H587    1.108   .     S
C579   H588    1.110   .     S
C579   C580    1.543   .     S
C580   H586    1.112   .     S
C580   C581    1.522   .     S
C581   H582    1.110   .     S
C581   H583    1.109   .     S
H584   C385    1.111   1_655 S
H585   C384    1.112   1_655 S
O589   C595    1.283   .     A
O589   Zn603   1.999   .     S
O590   Zn604   1.999   .     S
O590   C596    1.287   .     A
O591   C596    1.285   .     A
O591   Zn603   1.975   .     S
O592   C595    1.285   .     A
O592   Zn604   1.975   .     S
N593   C610    1.366   .     A
N593   C612    1.365   .     A
N593   Zn603   2.004   .     S
N594   C609    1.366   .     A
N594   C611    1.366   .     A
N594   Zn604   2.004   .     S
C595   C630    1.437   .     S
C596   C629    1.444   .     S
O597   C601    1.284   .     A
O597   Zn603   1.989   .     S
O598   C602    1.296   .     A
O598   Zn604   1.989   .     S
O599   C602    1.288   .     A
O599   Zn603   1.990   .     S
O600   Zn604   1.990   .     S
O600   C601    1.281   .     A
C601   C625    1.432   .     S
C602   C626    1.469   .     S
H605   C609    1.078   .     S
H606   C610    1.082   .     S
H607   C611    1.082   .     S
H608   C612    1.082   .     S
C610   C23     1.414   1_565 S
C612   C21     1.413   1_565 S
C613   C630    1.406   .     A
C613   C647    1.526   .     S
C613   C811    1.412   1_455 S
C614   C657    1.527   .     S
C614   C629    1.424   .     A
C614   C714    1.377   .     S
C615   C667    1.529   .     S
C615   C629    1.437   .     A
C615   C711    1.412   .     S
C616   C677    1.520   .     S
C616   C630    1.387   .     A
C616   C810    1.377   1_455 S
C617   C621    1.384   .     A
C617   O631    1.384   .     S
C617   C627    1.412   .     A
C618   O633    1.385   .     S
C618   C622    1.401   .     A
C618   C628    1.413   .     A
C619   C628    1.409   .     A
C619   C623    1.383   .     A
C619   O635    1.385   .     S
C620   C624    1.399   .     A
C620   C627    1.400   .     A
C620   O637    1.386   .     S
C621   C625    1.411   .     A
C621   O639    1.384   .     S
C622   C626    1.412   .     A
C622   O641    1.384   .     S
C623   O643    1.378   .     S
C623   C626    1.420   .     A
C624   C625    1.418   .     A
C624   O645    1.386   .     S
C627   C1510   1.449   1_554 S
C628   C1509   1.449   .     S
O631   H1514   0.989   1_554 S
H632   O1513   0.989   .     S
O633   H1516   0.990   .     S
H634   O1515   0.990   1_554 S
O635   H1518   0.987   .     S
H636   O1517   0.987   1_554 S
O637   H638    0.989   .     S
O639   H640    0.988   .     S
O641   H642    0.989   .     S
O643   H644    0.992   .     S
O645   H646    0.988   .     S
C647   H655    1.110   .     S
C647   C648    1.536   .     S
C647   H656    1.110   .     S
C648   H654    1.108   .     S
C648   C649    1.524   .     S
C648   H653    1.107   .     S
C649   H651    1.109   .     S
C649   H650    1.105   .     S
H652   C61     1.108   1_565 S
C657   H665    1.109   .     S
C657   H666    1.113   .     S
C657   C658    1.534   .     S
C658   C659    1.526   .     S
C658   H664    1.105   .     S
C658   H663    1.112   .     S
C659   H661    1.111   .     S
C659   H662    1.111   .     S
C659   H660    1.111   .     S
C667   H675    1.098   .     S
C667   H676    1.102   .     S
C667   C668    1.533   .     S
C668   H674    1.109   .     S
C668   H673    1.112   .     S
C668   C669    1.525   .     S
C669   H670    1.108   .     S
C669   H671    1.111   .     S
C669   H672    1.109   .     S
C677   H685    1.108   .     S
C677   H686    1.110   .     S
C677   C678    1.543   .     S
C678   H684    1.112   .     S
C678   C679    1.522   .     S
C678   H879    1.112   1_455 S
C679   H680    1.110   .     S
C679   H681    1.109   .     S
C679   H878    1.111   1_455 S
H682   C777    1.111   .     S
H683   C776    1.112   .     S
O687   C693    1.283   .     A
O687   Zn701   1.999   .     S
O688   Zn702   1.999   .     S
O688   C694    1.287   .     A
O689   C694    1.285   .     A
O689   Zn701   1.975   .     S
O690   C693    1.285   .     A
O690   Zn702   1.975   .     S
N691   C708    1.366   .     A
N691   C710    1.365   .     A
N691   Zn701   2.004   .     S
N692   C707    1.366   .     A
N692   C709    1.366   .     A
N692   Zn702   2.004   .     S
C693   C728    1.437   .     S
C694   C727    1.444   .     S
O695   C699    1.284   .     A
O695   Zn701   1.989   .     S
O696   C700    1.296   .     A
O696   Zn702   1.989   .     S
O697   C700    1.288   .     A
O697   Zn701   1.990   .     S
O698   Zn702   1.990   .     S
O698   C699    1.281   .     A
C699   C723    1.432   .     S
C700   C724    1.469   .     S
H703   C707    1.078   .     S
H704   C708    1.082   .     S
H705   C709    1.082   .     S
H706   C710    1.082   .     S
C708   C121    1.414   1_565 S
C710   C119    1.413   1_565 S
C711   C728    1.406   .     A
C711   C745    1.526   .     S
C712   C755    1.527   .     S
C712   C727    1.424   .     A
C712   C812    1.377   .     S
C713   C765    1.529   .     S
C713   C727    1.437   .     A
C713   C809    1.412   .     S
C714   C775    1.520   .     S
C714   C728    1.387   .     A
C715   C719    1.384   .     A
C715   O729    1.384   .     S
C715   C725    1.412   .     A
C716   O731    1.385   .     S
C716   C720    1.401   .     A
C716   C726    1.413   .     A
C717   C726    1.409   .     A
C717   C721    1.383   .     A
C717   O733    1.385   .     S
C718   C722    1.399   .     A
C718   C725    1.400   .     A
C718   O735    1.386   .     S
C719   C723    1.411   .     A
C719   O737    1.384   .     S
C720   C724    1.412   .     A
C720   O739    1.384   .     S
C721   O741    1.378   .     S
C721   C724    1.420   .     A
C722   C723    1.418   .     A
C722   O743    1.386   .     S
C725   C1608   1.449   1_554 S
C726   C1607   1.449   .     S
O729   H1612   0.989   1_554 S
H730   O1611   0.989   .     S
O731   H1614   0.990   .     S
H732   O1613   0.990   1_554 S
O733   H1616   0.987   .     S
H734   O1615   0.987   1_554 S
O735   H736    0.989   .     S
O737   H738    0.988   .     S
O739   H740    0.989   .     S
O741   H742    0.992   .     S
O743   H744    0.988   .     S
C745   H753    1.110   .     S
C745   C746    1.536   .     S
C745   H754    1.110   .     S
C746   H752    1.108   .     S
C746   C747    1.524   .     S
C746   H751    1.107   .     S
C747   H749    1.109   .     S
C747   H748    1.105   .     S
H750   C159    1.108   1_565 S
C755   H763    1.109   .     S
C755   H764    1.113   .     S
C755   C756    1.534   .     S
C756   C757    1.526   .     S
C756   H762    1.105   .     S
C756   H761    1.112   .     S
C757   H759    1.111   .     S
C757   H760    1.111   .     S
C757   H758    1.111   .     S
C765   H773    1.098   .     S
C765   H774    1.102   .     S
C765   C766    1.533   .     S
C766   H772    1.109   .     S
C766   H771    1.112   .     S
C766   C767    1.525   .     S
C767   H768    1.108   .     S
C767   H769    1.111   .     S
C767   H770    1.109   .     S
C775   H783    1.108   .     S
C775   H784    1.110   .     S
C775   C776    1.543   .     S
C776   H782    1.112   .     S
C776   C777    1.522   .     S
C777   H778    1.110   .     S
C777   H779    1.109   .     S
H780   C875    1.111   .     S
H781   C874    1.112   .     S
O785   C791    1.283   .     A
O785   Zn799   1.999   .     S
O786   Zn800   1.999   .     S
O786   C792    1.287   .     A
O787   C792    1.285   .     A
O787   Zn799   1.975   .     S
O788   C791    1.285   .     A
O788   Zn800   1.975   .     S
N789   C806    1.366   .     A
N789   C808    1.365   .     A
N789   Zn799   2.004   .     S
N790   C805    1.366   .     A
N790   C807    1.366   .     A
N790   Zn800   2.004   .     S
C791   C826    1.437   .     S
C792   C825    1.444   .     S
O793   C797    1.284   .     A
O793   Zn799   1.989   .     S
O794   C798    1.296   .     A
O794   Zn800   1.989   .     S
O795   C798    1.288   .     A
O795   Zn799   1.990   .     S
O796   Zn800   1.990   .     S
O796   C797    1.281   .     A
C797   C821    1.432   .     S
C798   C822    1.469   .     S
H801   C805    1.078   .     S
H802   C806    1.082   .     S
H803   C807    1.082   .     S
H804   C808    1.082   .     S
C806   C219    1.414   1_565 S
C808   C217    1.413   1_565 S
C809   C826    1.406   .     A
C809   C843    1.526   .     S
C810   C853    1.527   .     S
C810   C825    1.424   .     A
C810   C616    1.377   1_655 S
C811   C863    1.529   .     S
C811   C825    1.437   .     A
C811   C613    1.412   1_655 S
C812   C873    1.520   .     S
C812   C826    1.387   .     A
C813   C817    1.384   .     A
C813   O827    1.384   .     S
C813   C823    1.412   .     A
C814   O829    1.385   .     S
C814   C818    1.401   .     A
C814   C824    1.413   .     A
C815   C824    1.409   .     A
C815   C819    1.383   .     A
C815   O831    1.385   .     S
C816   C820    1.399   .     A
C816   C823    1.400   .     A
C816   O833    1.386   .     S
C817   C821    1.411   .     A
C817   O835    1.384   .     S
C818   C822    1.412   .     A
C818   O837    1.384   .     S
C819   O839    1.378   .     S
C819   C822    1.420   .     A
C820   C821    1.418   .     A
C820   O841    1.386   .     S
C823   C1706   1.449   1_554 S
C824   C1705   1.449   .     S
O827   H1710   0.989   1_554 S
H828   O1709   0.989   .     S
O829   H1712   0.990   .     S
H830   O1711   0.990   1_554 S
O831   H1714   0.987   .     S
H832   O1713   0.987   1_554 S
O833   H834    0.989   .     S
O835   H836    0.988   .     S
O837   H838    0.989   .     S
O839   H840    0.992   .     S
O841   H842    0.988   .     S
C843   H851    1.110   .     S
C843   C844    1.536   .     S
C843   H852    1.110   .     S
C844   H850    1.108   .     S
C844   C845    1.524   .     S
C844   H849    1.107   .     S
C845   H847    1.109   .     S
C845   H846    1.105   .     S
H848   C257    1.108   1_565 S
C853   H861    1.109   .     S
C853   H862    1.113   .     S
C853   C854    1.534   .     S
C854   C855    1.526   .     S
C854   H860    1.105   .     S
C854   H859    1.112   .     S
C855   H857    1.111   .     S
C855   H858    1.111   .     S
C855   H856    1.111   .     S
C863   H871    1.098   .     S
C863   H872    1.102   .     S
C863   C864    1.533   .     S
C864   H870    1.109   .     S
C864   H869    1.112   .     S
C864   C865    1.525   .     S
C865   H866    1.108   .     S
C865   H867    1.111   .     S
C865   H868    1.109   .     S
C873   H881    1.108   .     S
C873   H882    1.110   .     S
C873   C874    1.543   .     S
C874   H880    1.112   .     S
C874   C875    1.522   .     S
C875   H876    1.110   .     S
C875   H877    1.109   .     S
H878   C679    1.111   1_655 S
H879   C678    1.112   1_655 S
O883   C889    1.283   .     A
O883   Zn897   1.999   .     S
O884   Zn898   1.999   .     S
O884   C890    1.287   .     A
O885   C890    1.285   .     A
O885   Zn897   1.975   .     S
O886   C889    1.285   .     A
O886   Zn898   1.975   .     S
N887   C904    1.366   .     A
N887   C906    1.365   .     A
N887   Zn897   2.004   .     S
N888   C903    1.366   .     A
N888   C905    1.366   .     A
N888   Zn898   2.004   .     S
C889   C924    1.437   .     S
C890   C923    1.444   .     S
O891   C895    1.284   .     A
O891   Zn897   1.989   .     S
O892   C896    1.296   .     A
O892   Zn898   1.989   .     S
O893   C896    1.288   .     A
O893   Zn897   1.990   .     S
O894   Zn898   1.990   .     S
O894   C895    1.281   .     A
C895   C919    1.432   .     S
C896   C920    1.469   .     S
H899   C903    1.078   .     S
H900   C904    1.082   .     S
H901   C905    1.082   .     S
H902   C906    1.082   .     S
C903   C1494   1.413   1_545 S
C904   C1199   1.414   .     S
C905   C1492   1.414   1_545 S
C906   C1197   1.413   .     S
C907   C924    1.406   .     A
C907   C941    1.526   .     S
C907   C1105   1.412   1_455 S
C908   C951    1.527   .     S
C908   C923    1.424   .     A
C908   C1008   1.377   .     S
C909   C961    1.529   .     S
C909   C923    1.437   .     A
C909   C1005   1.412   .     S
C910   C971    1.520   .     S
C910   C924    1.387   .     A
C910   C1104   1.377   1_455 S
C911   C915    1.384   .     A
C911   O925    1.384   .     S
C911   C921    1.412   .     A
C912   O927    1.385   .     S
C912   C916    1.401   .     A
C912   C922    1.413   .     A
C913   C922    1.409   .     A
C913   C917    1.383   .     A
C913   O929    1.385   .     S
C914   C918    1.399   .     A
C914   C921    1.400   .     A
C914   O931    1.386   .     S
C915   C919    1.411   .     A
C915   O933    1.384   .     S
C916   C920    1.412   .     A
C916   O935    1.384   .     S
C917   O937    1.378   .     S
C917   C920    1.420   .     A
C918   C919    1.418   .     A
C918   O939    1.386   .     S
C922   C39     1.449   1_556 S
H926   O43     0.989   1_556 S
O927   H46     0.990   1_556 S
O929   H48     0.987   1_556 S
O931   H932    0.989   .     S
O933   H934    0.988   .     S
O935   H936    0.989   .     S
O937   H938    0.992   .     S
O939   H940    0.988   .     S
C941   H949    1.110   .     S
C941   C942    1.536   .     S
C941   H950    1.110   .     S
C942   H948    1.108   .     S
C942   C943    1.524   .     S
C942   H947    1.107   .     S
C943   H945    1.109   .     S
C943   H944    1.105   .     S
C943   H1534   1.108   1_545 S
H946   C1237   1.108   .     S
C951   H959    1.109   .     S
C951   H960    1.113   .     S
C951   C952    1.534   .     S
C952   C953    1.526   .     S
C952   H958    1.105   .     S
C952   H957    1.112   .     S
C953   H955    1.111   .     S
C953   H956    1.111   .     S
C953   H954    1.111   .     S
C961   H969    1.098   .     S
C961   H970    1.102   .     S
C961   C962    1.533   .     S
C962   H968    1.109   .     S
C962   H967    1.112   .     S
C962   C963    1.525   .     S
C963   H964    1.108   .     S
C963   H965    1.111   .     S
C963   H966    1.109   .     S
C971   H979    1.108   .     S
C971   H980    1.110   .     S
C971   C972    1.543   .     S
C972   H978    1.112   .     S
C972   C973    1.522   .     S
C972   H1173   1.112   1_455 S
C973   H974    1.110   .     S
C973   H975    1.109   .     S
C973   H1172   1.111   1_455 S
H976   C1071   1.111   .     S
H977   C1070   1.112   .     S
O981   C987    1.283   .     A
O981   Zn995   1.999   .     S
O982   Zn996   1.999   .     S
O982   C988    1.287   .     A
O983   C988    1.285   .     A
O983   Zn995   1.975   .     S
O984   C987    1.285   .     A
O984   Zn996   1.975   .     S
N985   C1002   1.366   .     A
N985   C1004   1.365   .     A
N985   Zn995   2.004   .     S
N986   C1001   1.366   .     A
N986   C1003   1.366   .     A
N986   Zn996   2.004   .     S
C987   C1022   1.437   .     S
C988   C1021   1.444   .     S
O989   C993    1.284   .     A
O989   Zn995   1.989   .     S
O990   C994    1.296   .     A
O990   Zn996   1.989   .     S
O991   C994    1.288   .     A
O991   Zn995   1.990   .     S
O992   Zn996   1.990   .     S
O992   C993    1.281   .     A
C993   C1017   1.432   .     S
C994   C1018   1.469   .     S
H997   C1001   1.078   .     S
H998   C1002   1.082   .     S
H999   C1003   1.082   .     S
H1000  C1004   1.082   .     S
C1001  C1592   1.413   1_545 S
C1002  C1297   1.414   .     S
C1003  C1590   1.414   1_545 S
C1004  C1295   1.413   .     S
C1005  C1022   1.406   .     A
C1005  C1039   1.526   .     S
C1006  C1049   1.527   .     S
C1006  C1021   1.424   .     A
C1006  C1106   1.377   .     S
C1007  C1059   1.529   .     S
C1007  C1021   1.437   .     A
C1007  C1103   1.412   .     S
C1008  C1069   1.520   .     S
C1008  C1022   1.387   .     A
C1009  C1013   1.384   .     A
C1009  O1023   1.384   .     S
C1009  C1019   1.412   .     A
C1010  O1025   1.385   .     S
C1010  C1014   1.401   .     A
C1010  C1020   1.413   .     A
C1011  C1020   1.409   .     A
C1011  C1015   1.383   .     A
C1011  O1027   1.385   .     S
C1012  C1016   1.399   .     A
C1012  C1019   1.400   .     A
C1012  O1029   1.386   .     S
C1013  C1017   1.411   .     A
C1013  O1031   1.384   .     S
C1014  C1018   1.412   .     A
C1014  O1033   1.384   .     S
C1015  O1035   1.378   .     S
C1015  C1018   1.420   .     A
C1016  C1017   1.418   .     A
C1016  O1037   1.386   .     S
C1020  C137    1.449   1_556 S
H1024  O141    0.989   1_556 S
O1025  H144    0.990   1_556 S
O1027  H146    0.987   1_556 S
O1029  H1030   0.989   .     S
O1031  H1032   0.988   .     S
O1033  H1034   0.989   .     S
O1035  H1036   0.992   .     S
O1037  H1038   0.988   .     S
C1039  H1047   1.110   .     S
C1039  C1040   1.536   .     S
C1039  H1048   1.110   .     S
C1040  H1046   1.108   .     S
C1040  C1041   1.524   .     S
C1040  H1045   1.107   .     S
C1041  H1043   1.109   .     S
C1041  H1042   1.105   .     S
C1041  H1632   1.108   1_545 S
H1044  C1335   1.108   .     S
C1049  H1057   1.109   .     S
C1049  H1058   1.113   .     S
C1049  C1050   1.534   .     S
C1050  C1051   1.526   .     S
C1050  H1056   1.105   .     S
C1050  H1055   1.112   .     S
C1051  H1053   1.111   .     S
C1051  H1054   1.111   .     S
C1051  H1052   1.111   .     S
C1059  H1067   1.098   .     S
C1059  H1068   1.102   .     S
C1059  C1060   1.533   .     S
C1060  H1066   1.109   .     S
C1060  H1065   1.112   .     S
C1060  C1061   1.525   .     S
C1061  H1062   1.108   .     S
C1061  H1063   1.111   .     S
C1061  H1064   1.109   .     S
C1069  H1077   1.108   .     S
C1069  H1078   1.110   .     S
C1069  C1070   1.543   .     S
C1070  H1076   1.112   .     S
C1070  C1071   1.522   .     S
C1071  H1072   1.110   .     S
C1071  H1073   1.109   .     S
H1074  C1169   1.111   .     S
H1075  C1168   1.112   .     S
O1079  C1085   1.283   .     A
O1079  Zn1093  1.999   .     S
O1080  Zn1094  1.999   .     S
O1080  C1086   1.287   .     A
O1081  C1086   1.285   .     A
O1081  Zn1093  1.975   .     S
O1082  C1085   1.285   .     A
O1082  Zn1094  1.975   .     S
N1083  C1100   1.366   .     A
N1083  C1102   1.365   .     A
N1083  Zn1093  2.004   .     S
N1084  C1099   1.366   .     A
N1084  C1101   1.366   .     A
N1084  Zn1094  2.004   .     S
C1085  C1120   1.437   .     S
C1086  C1119   1.444   .     S
O1087  C1091   1.284   .     A
O1087  Zn1093  1.989   .     S
O1088  C1092   1.296   .     A
O1088  Zn1094  1.989   .     S
O1089  C1092   1.288   .     A
O1089  Zn1093  1.990   .     S
O1090  Zn1094  1.990   .     S
O1090  C1091   1.281   .     A
C1091  C1115   1.432   .     S
C1092  C1116   1.469   .     S
H1095  C1099   1.078   .     S
H1096  C1100   1.082   .     S
H1097  C1101   1.082   .     S
H1098  C1102   1.082   .     S
C1099  C1690   1.413   1_545 S
C1100  C1395   1.414   .     S
C1101  C1688   1.414   1_545 S
C1102  C1393   1.413   .     S
C1103  C1120   1.406   .     A
C1103  C1137   1.526   .     S
C1104  C1147   1.527   .     S
C1104  C1119   1.424   .     A
C1104  C910    1.377   1_655 S
C1105  C1157   1.529   .     S
C1105  C1119   1.437   .     A
C1105  C907    1.412   1_655 S
C1106  C1167   1.520   .     S
C1106  C1120   1.387   .     A
C1107  C1111   1.384   .     A
C1107  O1121   1.384   .     S
C1107  C1117   1.412   .     A
C1108  O1123   1.385   .     S
C1108  C1112   1.401   .     A
C1108  C1118   1.413   .     A
C1109  C1118   1.409   .     A
C1109  C1113   1.383   .     A
C1109  O1125   1.385   .     S
C1110  C1114   1.399   .     A
C1110  C1117   1.400   .     A
C1110  O1127   1.386   .     S
C1111  C1115   1.411   .     A
C1111  O1129   1.384   .     S
C1112  C1116   1.412   .     A
C1112  O1131   1.384   .     S
C1113  O1133   1.378   .     S
C1113  C1116   1.420   .     A
C1114  C1115   1.418   .     A
C1114  O1135   1.386   .     S
C1118  C235    1.449   1_556 S
H1122  O239    0.989   1_556 S
O1123  H242    0.990   1_556 S
O1125  H244    0.987   1_556 S
O1127  H1128   0.989   .     S
O1129  H1130   0.988   .     S
O1131  H1132   0.989   .     S
O1133  H1134   0.992   .     S
O1135  H1136   0.988   .     S
C1137  H1145   1.110   .     S
C1137  C1138   1.536   .     S
C1137  H1146   1.110   .     S
C1138  H1144   1.108   .     S
C1138  C1139   1.524   .     S
C1138  H1143   1.107   .     S
C1139  H1141   1.109   .     S
C1139  H1140   1.105   .     S
C1139  H1730   1.108   1_545 S
H1142  C1433   1.108   .     S
C1147  H1155   1.109   .     S
C1147  H1156   1.113   .     S
C1147  C1148   1.534   .     S
C1148  C1149   1.526   .     S
C1148  H1154   1.105   .     S
C1148  H1153   1.112   .     S
C1149  H1151   1.111   .     S
C1149  H1152   1.111   .     S
C1149  H1150   1.111   .     S
C1157  H1165   1.098   .     S
C1157  H1166   1.102   .     S
C1157  C1158   1.533   .     S
C1158  H1164   1.109   .     S
C1158  H1163   1.112   .     S
C1158  C1159   1.525   .     S
C1159  H1160   1.108   .     S
C1159  H1161   1.111   .     S
C1159  H1162   1.109   .     S
C1167  H1175   1.108   .     S
C1167  H1176   1.110   .     S
C1167  C1168   1.543   .     S
C1168  H1174   1.112   .     S
C1168  C1169   1.522   .     S
C1169  H1170   1.110   .     S
C1169  H1171   1.109   .     S
H1172  C973    1.111   1_655 S
H1173  C972    1.112   1_655 S
O1177  C1183   1.283   .     A
O1177  Zn1191  1.999   .     S
O1178  Zn1192  1.999   .     S
O1178  C1184   1.287   .     A
O1179  C1184   1.285   .     A
O1179  Zn1191  1.975   .     S
O1180  C1183   1.285   .     A
O1180  Zn1192  1.975   .     S
N1181  C1198   1.366   .     A
N1181  C1200   1.365   .     A
N1181  Zn1191  2.004   .     S
N1182  C1197   1.366   .     A
N1182  C1199   1.366   .     A
N1182  Zn1192  2.004   .     S
C1183  C1218   1.437   .     S
C1184  C1217   1.444   .     S
O1185  C1189   1.284   .     A
O1185  Zn1191  1.989   .     S
O1186  C1190   1.296   .     A
O1186  Zn1192  1.989   .     S
O1187  C1190   1.288   .     A
O1187  Zn1191  1.990   .     S
O1188  Zn1192  1.990   .     S
O1188  C1189   1.281   .     A
C1189  C1213   1.432   .     S
C1190  C1214   1.469   .     S
H1193  C1197   1.078   .     S
H1194  C1198   1.082   .     S
H1195  C1199   1.082   .     S
H1196  C1200   1.082   .     S
C1198  C1493   1.414   .     S
C1200  C1491   1.413   .     S
C1201  C1218   1.406   .     A
C1201  C1235   1.526   .     S
C1201  C1399   1.412   1_455 S
C1202  C1245   1.527   .     S
C1202  C1217   1.424   .     A
C1202  C1302   1.377   .     S
C1203  C1255   1.529   .     S
C1203  C1217   1.437   .     A
C1203  C1299   1.412   .     S
C1204  C1265   1.520   .     S
C1204  C1218   1.387   .     A
C1204  C1398   1.377   1_455 S
C1205  C1209   1.384   .     A
C1205  O1219   1.384   .     S
C1205  C1215   1.412   .     A
C1206  O1221   1.385   .     S
C1206  C1210   1.401   .     A
C1206  C1216   1.413   .     A
C1207  C1216   1.409   .     A
C1207  C1211   1.383   .     A
C1207  O1223   1.385   .     S
C1208  C1212   1.399   .     A
C1208  C1215   1.400   .     A
C1208  O1225   1.386   .     S
C1209  C1213   1.411   .     A
C1209  O1227   1.384   .     S
C1210  C1214   1.412   .     A
C1210  O1229   1.384   .     S
C1211  O1231   1.378   .     S
C1211  C1214   1.420   .     A
C1212  C1213   1.418   .     A
C1212  O1233   1.386   .     S
C1216  C333    1.449   1_556 S
H1220  O337    0.989   1_556 S
O1221  H340    0.990   1_556 S
O1223  H342    0.987   1_556 S
O1225  H1226   0.989   .     S
O1227  H1228   0.988   .     S
O1229  H1230   0.989   .     S
O1231  H1232   0.992   .     S
O1233  H1234   0.988   .     S
C1235  H1243   1.110   .     S
C1235  C1236   1.536   .     S
C1235  H1244   1.110   .     S
C1236  H1242   1.108   .     S
C1236  C1237   1.524   .     S
C1236  H1241   1.107   .     S
C1237  H1239   1.109   .     S
C1237  H1238   1.105   .     S
H1240  C1531   1.108   .     S
C1245  H1253   1.109   .     S
C1245  H1254   1.113   .     S
C1245  C1246   1.534   .     S
C1246  C1247   1.526   .     S
C1246  H1252   1.105   .     S
C1246  H1251   1.112   .     S
C1247  H1249   1.111   .     S
C1247  H1250   1.111   .     S
C1247  H1248   1.111   .     S
C1255  H1263   1.098   .     S
C1255  H1264   1.102   .     S
C1255  C1256   1.533   .     S
C1256  H1262   1.109   .     S
C1256  H1261   1.112   .     S
C1256  C1257   1.525   .     S
C1257  H1258   1.108   .     S
C1257  H1259   1.111   .     S
C1257  H1260   1.109   .     S
C1265  H1273   1.108   .     S
C1265  H1274   1.110   .     S
C1265  C1266   1.543   .     S
C1266  H1272   1.112   .     S
C1266  C1267   1.522   .     S
C1266  H1467   1.112   1_455 S
C1267  H1268   1.110   .     S
C1267  H1269   1.109   .     S
C1267  H1466   1.111   1_455 S
H1270  C1365   1.111   .     S
H1271  C1364   1.112   .     S
O1275  C1281   1.283   .     A
O1275  Zn1289  1.999   .     S
O1276  Zn1290  1.999   .     S
O1276  C1282   1.287   .     A
O1277  C1282   1.285   .     A
O1277  Zn1289  1.975   .     S
O1278  C1281   1.285   .     A
O1278  Zn1290  1.975   .     S
N1279  C1296   1.366   .     A
N1279  C1298   1.365   .     A
N1279  Zn1289  2.004   .     S
N1280  C1295   1.366   .     A
N1280  C1297   1.366   .     A
N1280  Zn1290  2.004   .     S
C1281  C1316   1.437   .     S
C1282  C1315   1.444   .     S
O1283  C1287   1.284   .     A
O1283  Zn1289  1.989   .     S
O1284  C1288   1.296   .     A
O1284  Zn1290  1.989   .     S
O1285  C1288   1.288   .     A
O1285  Zn1289  1.990   .     S
O1286  Zn1290  1.990   .     S
O1286  C1287   1.281   .     A
C1287  C1311   1.432   .     S
C1288  C1312   1.469   .     S
H1291  C1295   1.078   .     S
H1292  C1296   1.082   .     S
H1293  C1297   1.082   .     S
H1294  C1298   1.082   .     S
C1296  C1591   1.414   .     S
C1298  C1589   1.413   .     S
C1299  C1316   1.406   .     A
C1299  C1333   1.526   .     S
C1300  C1343   1.527   .     S
C1300  C1315   1.424   .     A
C1300  C1400   1.377   .     S
C1301  C1353   1.529   .     S
C1301  C1315   1.437   .     A
C1301  C1397   1.412   .     S
C1302  C1363   1.520   .     S
C1302  C1316   1.387   .     A
C1303  C1307   1.384   .     A
C1303  O1317   1.384   .     S
C1303  C1313   1.412   .     A
C1304  O1319   1.385   .     S
C1304  C1308   1.401   .     A
C1304  C1314   1.413   .     A
C1305  C1314   1.409   .     A
C1305  C1309   1.383   .     A
C1305  O1321   1.385   .     S
C1306  C1310   1.399   .     A
C1306  C1313   1.400   .     A
C1306  O1323   1.386   .     S
C1307  C1311   1.411   .     A
C1307  O1325   1.384   .     S
C1308  C1312   1.412   .     A
C1308  O1327   1.384   .     S
C1309  O1329   1.378   .     S
C1309  C1312   1.420   .     A
C1310  C1311   1.418   .     A
C1310  O1331   1.386   .     S
C1314  C431    1.449   1_556 S
H1318  O435    0.989   1_556 S
O1319  H438    0.990   1_556 S
O1321  H440    0.987   1_556 S
O1323  H1324   0.989   .     S
O1325  H1326   0.988   .     S
O1327  H1328   0.989   .     S
O1329  H1330   0.992   .     S
O1331  H1332   0.988   .     S
C1333  H1341   1.110   .     S
C1333  C1334   1.536   .     S
C1333  H1342   1.110   .     S
C1334  H1340   1.108   .     S
C1334  C1335   1.524   .     S
C1334  H1339   1.107   .     S
C1335  H1337   1.109   .     S
C1335  H1336   1.105   .     S
H1338  C1629   1.108   .     S
C1343  H1351   1.109   .     S
C1343  H1352   1.113   .     S
C1343  C1344   1.534   .     S
C1344  C1345   1.526   .     S
C1344  H1350   1.105   .     S
C1344  H1349   1.112   .     S
C1345  H1347   1.111   .     S
C1345  H1348   1.111   .     S
C1345  H1346   1.111   .     S
C1353  H1361   1.098   .     S
C1353  H1362   1.102   .     S
C1353  C1354   1.533   .     S
C1354  H1360   1.109   .     S
C1354  H1359   1.112   .     S
C1354  C1355   1.525   .     S
C1355  H1356   1.108   .     S
C1355  H1357   1.111   .     S
C1355  H1358   1.109   .     S
C1363  H1371   1.108   .     S
C1363  H1372   1.110   .     S
C1363  C1364   1.543   .     S
C1364  H1370   1.112   .     S
C1364  C1365   1.522   .     S
C1365  H1366   1.110   .     S
C1365  H1367   1.109   .     S
H1368  C1463   1.111   .     S
H1369  C1462   1.112   .     S
O1373  C1379   1.283   .     A
O1373  Zn1387  1.999   .     S
O1374  Zn1388  1.999   .     S
O1374  C1380   1.287   .     A
O1375  C1380   1.285   .     A
O1375  Zn1387  1.975   .     S
O1376  C1379   1.285   .     A
O1376  Zn1388  1.975   .     S
N1377  C1394   1.366   .     A
N1377  C1396   1.365   .     A
N1377  Zn1387  2.004   .     S
N1378  C1393   1.366   .     A
N1378  C1395   1.366   .     A
N1378  Zn1388  2.004   .     S
C1379  C1414   1.437   .     S
C1380  C1413   1.444   .     S
O1381  C1385   1.284   .     A
O1381  Zn1387  1.989   .     S
O1382  C1386   1.296   .     A
O1382  Zn1388  1.989   .     S
O1383  C1386   1.288   .     A
O1383  Zn1387  1.990   .     S
O1384  Zn1388  1.990   .     S
O1384  C1385   1.281   .     A
C1385  C1409   1.432   .     S
C1386  C1410   1.469   .     S
H1389  C1393   1.078   .     S
H1390  C1394   1.082   .     S
H1391  C1395   1.082   .     S
H1392  C1396   1.082   .     S
C1394  C1689   1.414   .     S
C1396  C1687   1.413   .     S
C1397  C1414   1.406   .     A
C1397  C1431   1.526   .     S
C1398  C1441   1.527   .     S
C1398  C1413   1.424   .     A
C1398  C1204   1.377   1_655 S
C1399  C1451   1.529   .     S
C1399  C1413   1.437   .     A
C1399  C1201   1.412   1_655 S
C1400  C1461   1.520   .     S
C1400  C1414   1.387   .     A
C1401  C1405   1.384   .     A
C1401  O1415   1.384   .     S
C1401  C1411   1.412   .     A
C1402  O1417   1.385   .     S
C1402  C1406   1.401   .     A
C1402  C1412   1.413   .     A
C1403  C1412   1.409   .     A
C1403  C1407   1.383   .     A
C1403  O1419   1.385   .     S
C1404  C1408   1.399   .     A
C1404  C1411   1.400   .     A
C1404  O1421   1.386   .     S
C1405  C1409   1.411   .     A
C1405  O1423   1.384   .     S
C1406  C1410   1.412   .     A
C1406  O1425   1.384   .     S
C1407  O1427   1.378   .     S
C1407  C1410   1.420   .     A
C1408  C1409   1.418   .     A
C1408  O1429   1.386   .     S
C1412  C529    1.449   1_556 S
H1416  O533    0.989   1_556 S
O1417  H536    0.990   1_556 S
O1419  H538    0.987   1_556 S
O1421  H1422   0.989   .     S
O1423  H1424   0.988   .     S
O1425  H1426   0.989   .     S
O1427  H1428   0.992   .     S
O1429  H1430   0.988   .     S
C1431  H1439   1.110   .     S
C1431  C1432   1.536   .     S
C1431  H1440   1.110   .     S
C1432  H1438   1.108   .     S
C1432  C1433   1.524   .     S
C1432  H1437   1.107   .     S
C1433  H1435   1.109   .     S
C1433  H1434   1.105   .     S
H1436  C1727   1.108   .     S
C1441  H1449   1.109   .     S
C1441  H1450   1.113   .     S
C1441  C1442   1.534   .     S
C1442  C1443   1.526   .     S
C1442  H1448   1.105   .     S
C1442  H1447   1.112   .     S
C1443  H1445   1.111   .     S
C1443  H1446   1.111   .     S
C1443  H1444   1.111   .     S
C1451  H1459   1.098   .     S
C1451  H1460   1.102   .     S
C1451  C1452   1.533   .     S
C1452  H1458   1.109   .     S
C1452  H1457   1.112   .     S
C1452  C1453   1.525   .     S
C1453  H1454   1.108   .     S
C1453  H1455   1.111   .     S
C1453  H1456   1.109   .     S
C1461  H1469   1.108   .     S
C1461  H1470   1.110   .     S
C1461  C1462   1.543   .     S
C1462  H1468   1.112   .     S
C1462  C1463   1.522   .     S
C1463  H1464   1.110   .     S
C1463  H1465   1.109   .     S
H1466  C1267   1.111   1_655 S
H1467  C1266   1.112   1_655 S
O1471  C1477   1.283   .     A
O1471  Zn1485  1.999   .     S
O1472  Zn1486  1.999   .     S
O1472  C1478   1.287   .     A
O1473  C1478   1.285   .     A
O1473  Zn1485  1.975   .     S
O1474  C1477   1.285   .     A
O1474  Zn1486  1.975   .     S
N1475  C1492   1.366   .     A
N1475  C1494   1.365   .     A
N1475  Zn1485  2.004   .     S
N1476  C1491   1.366   .     A
N1476  C1493   1.366   .     A
N1476  Zn1486  2.004   .     S
C1477  C1512   1.437   .     S
C1478  C1511   1.444   .     S
O1479  C1483   1.284   .     A
O1479  Zn1485  1.989   .     S
O1480  C1484   1.296   .     A
O1480  Zn1486  1.989   .     S
O1481  C1484   1.288   .     A
O1481  Zn1485  1.990   .     S
O1482  Zn1486  1.990   .     S
O1482  C1483   1.281   .     A
C1483  C1507   1.432   .     S
C1484  C1508   1.469   .     S
H1487  C1491   1.078   .     S
H1488  C1492   1.082   .     S
H1489  C1493   1.082   .     S
H1490  C1494   1.082   .     S
C1492  C905    1.414   1_565 S
C1494  C903    1.413   1_565 S
C1495  C1512   1.406   .     A
C1495  C1529   1.526   .     S
C1495  C1693   1.412   1_455 S
C1496  C1539   1.527   .     S
C1496  C1511   1.424   .     A
C1496  C1596   1.377   .     S
C1497  C1549   1.529   .     S
C1497  C1511   1.437   .     A
C1497  C1593   1.412   .     S
C1498  C1559   1.520   .     S
C1498  C1512   1.387   .     A
C1498  C1692   1.377   1_455 S
C1499  C1503   1.384   .     A
C1499  O1513   1.384   .     S
C1499  C1509   1.412   .     A
C1500  O1515   1.385   .     S
C1500  C1504   1.401   .     A
C1500  C1510   1.413   .     A
C1501  C1510   1.409   .     A
C1501  C1505   1.383   .     A
C1501  O1517   1.385   .     S
C1502  C1506   1.399   .     A
C1502  C1509   1.400   .     A
C1502  O1519   1.386   .     S
C1503  C1507   1.411   .     A
C1503  O1521   1.384   .     S
C1504  C1508   1.412   .     A
C1504  O1523   1.384   .     S
C1505  O1525   1.378   .     S
C1505  C1508   1.420   .     A
C1506  C1507   1.418   .     A
C1506  O1527   1.386   .     S
C1510  C627    1.449   1_556 S
H1514  O631    0.989   1_556 S
O1515  H634    0.990   1_556 S
O1517  H636    0.987   1_556 S
O1519  H1520   0.989   .     S
O1521  H1522   0.988   .     S
O1523  H1524   0.989   .     S
O1525  H1526   0.992   .     S
O1527  H1528   0.988   .     S
C1529  H1537   1.110   .     S
C1529  C1530   1.536   .     S
C1529  H1538   1.110   .     S
C1530  H1536   1.108   .     S
C1530  C1531   1.524   .     S
C1530  H1535   1.107   .     S
C1531  H1533   1.109   .     S
C1531  H1532   1.105   .     S
H1534  C943    1.108   1_565 S
C1539  H1547   1.109   .     S
C1539  H1548   1.113   .     S
C1539  C1540   1.534   .     S
C1540  C1541   1.526   .     S
C1540  H1546   1.105   .     S
C1540  H1545   1.112   .     S
C1541  H1543   1.111   .     S
C1541  H1544   1.111   .     S
C1541  H1542   1.111   .     S
C1549  H1557   1.098   .     S
C1549  H1558   1.102   .     S
C1549  C1550   1.533   .     S
C1550  H1556   1.109   .     S
C1550  H1555   1.112   .     S
C1550  C1551   1.525   .     S
C1551  H1552   1.108   .     S
C1551  H1553   1.111   .     S
C1551  H1554   1.109   .     S
C1559  H1567   1.108   .     S
C1559  H1568   1.110   .     S
C1559  C1560   1.543   .     S
C1560  H1566   1.112   .     S
C1560  C1561   1.522   .     S
C1560  H1761   1.112   1_455 S
C1561  H1562   1.110   .     S
C1561  H1563   1.109   .     S
C1561  H1760   1.111   1_455 S
H1564  C1659   1.111   .     S
H1565  C1658   1.112   .     S
O1569  C1575   1.283   .     A
O1569  Zn1583  1.999   .     S
O1570  Zn1584  1.999   .     S
O1570  C1576   1.287   .     A
O1571  C1576   1.285   .     A
O1571  Zn1583  1.975   .     S
O1572  C1575   1.285   .     A
O1572  Zn1584  1.975   .     S
N1573  C1590   1.366   .     A
N1573  C1592   1.365   .     A
N1573  Zn1583  2.004   .     S
N1574  C1589   1.366   .     A
N1574  C1591   1.366   .     A
N1574  Zn1584  2.004   .     S
C1575  C1610   1.437   .     S
C1576  C1609   1.444   .     S
O1577  C1581   1.284   .     A
O1577  Zn1583  1.989   .     S
O1578  C1582   1.296   .     A
O1578  Zn1584  1.989   .     S
O1579  C1582   1.288   .     A
O1579  Zn1583  1.990   .     S
O1580  Zn1584  1.990   .     S
O1580  C1581   1.281   .     A
C1581  C1605   1.432   .     S
C1582  C1606   1.469   .     S
H1585  C1589   1.078   .     S
H1586  C1590   1.082   .     S
H1587  C1591   1.082   .     S
H1588  C1592   1.082   .     S
C1590  C1003   1.414   1_565 S
C1592  C1001   1.413   1_565 S
C1593  C1610   1.406   .     A
C1593  C1627   1.526   .     S
C1594  C1637   1.527   .     S
C1594  C1609   1.424   .     A
C1594  C1694   1.377   .     S
C1595  C1647   1.529   .     S
C1595  C1609   1.437   .     A
C1595  C1691   1.412   .     S
C1596  C1657   1.520   .     S
C1596  C1610   1.387   .     A
C1597  C1601   1.384   .     A
C1597  O1611   1.384   .     S
C1597  C1607   1.412   .     A
C1598  O1613   1.385   .     S
C1598  C1602   1.401   .     A
C1598  C1608   1.413   .     A
C1599  C1608   1.409   .     A
C1599  C1603   1.383   .     A
C1599  O1615   1.385   .     S
C1600  C1604   1.399   .     A
C1600  C1607   1.400   .     A
C1600  O1617   1.386   .     S
C1601  C1605   1.411   .     A
C1601  O1619   1.384   .     S
C1602  C1606   1.412   .     A
C1602  O1621   1.384   .     S
C1603  O1623   1.378   .     S
C1603  C1606   1.420   .     A
C1604  C1605   1.418   .     A
C1604  O1625   1.386   .     S
C1608  C725    1.449   1_556 S
H1612  O729    0.989   1_556 S
O1613  H732    0.990   1_556 S
O1615  H734    0.987   1_556 S
O1617  H1618   0.989   .     S
O1619  H1620   0.988   .     S
O1621  H1622   0.989   .     S
O1623  H1624   0.992   .     S
O1625  H1626   0.988   .     S
C1627  H1635   1.110   .     S
C1627  C1628   1.536   .     S
C1627  H1636   1.110   .     S
C1628  H1634   1.108   .     S
C1628  C1629   1.524   .     S
C1628  H1633   1.107   .     S
C1629  H1631   1.109   .     S
C1629  H1630   1.105   .     S
H1632  C1041   1.108   1_565 S
C1637  H1645   1.109   .     S
C1637  H1646   1.113   .     S
C1637  C1638   1.534   .     S
C1638  C1639   1.526   .     S
C1638  H1644   1.105   .     S
C1638  H1643   1.112   .     S
C1639  H1641   1.111   .     S
C1639  H1642   1.111   .     S
C1639  H1640   1.111   .     S
C1647  H1655   1.098   .     S
C1647  H1656   1.102   .     S
C1647  C1648   1.533   .     S
C1648  H1654   1.109   .     S
C1648  H1653   1.112   .     S
C1648  C1649   1.525   .     S
C1649  H1650   1.108   .     S
C1649  H1651   1.111   .     S
C1649  H1652   1.109   .     S
C1657  H1665   1.108   .     S
C1657  H1666   1.110   .     S
C1657  C1658   1.543   .     S
C1658  H1664   1.112   .     S
C1658  C1659   1.522   .     S
C1659  H1660   1.110   .     S
C1659  H1661   1.109   .     S
H1662  C1757   1.111   .     S
H1663  C1756   1.112   .     S
O1667  C1673   1.283   .     A
O1667  Zn1681  1.999   .     S
O1668  Zn1682  1.999   .     S
O1668  C1674   1.287   .     A
O1669  C1674   1.285   .     A
O1669  Zn1681  1.975   .     S
O1670  C1673   1.285   .     A
O1670  Zn1682  1.975   .     S
N1671  C1688   1.366   .     A
N1671  C1690   1.365   .     A
N1671  Zn1681  2.004   .     S
N1672  C1687   1.366   .     A
N1672  C1689   1.366   .     A
N1672  Zn1682  2.004   .     S
C1673  C1708   1.437   .     S
C1674  C1707   1.444   .     S
O1675  C1679   1.284   .     A
O1675  Zn1681  1.989   .     S
O1676  C1680   1.296   .     A
O1676  Zn1682  1.989   .     S
O1677  C1680   1.288   .     A
O1677  Zn1681  1.990   .     S
O1678  Zn1682  1.990   .     S
O1678  C1679   1.281   .     A
C1679  C1703   1.432   .     S
C1680  C1704   1.469   .     S
H1683  C1687   1.078   .     S
H1684  C1688   1.082   .     S
H1685  C1689   1.082   .     S
H1686  C1690   1.082   .     S
C1688  C1101   1.414   1_565 S
C1690  C1099   1.413   1_565 S
C1691  C1708   1.406   .     A
C1691  C1725   1.526   .     S
C1692  C1735   1.527   .     S
C1692  C1707   1.424   .     A
C1692  C1498   1.377   1_655 S
C1693  C1745   1.529   .     S
C1693  C1707   1.437   .     A
C1693  C1495   1.412   1_655 S
C1694  C1755   1.520   .     S
C1694  C1708   1.387   .     A
C1695  C1699   1.384   .     A
C1695  O1709   1.384   .     S
C1695  C1705   1.412   .     A
C1696  O1711   1.385   .     S
C1696  C1700   1.401   .     A
C1696  C1706   1.413   .     A
C1697  C1706   1.409   .     A
C1697  C1701   1.383   .     A
C1697  O1713   1.385   .     S
C1698  C1702   1.399   .     A
C1698  C1705   1.400   .     A
C1698  O1715   1.386   .     S
C1699  C1703   1.411   .     A
C1699  O1717   1.384   .     S
C1700  C1704   1.412   .     A
C1700  O1719   1.384   .     S
C1701  O1721   1.378   .     S
C1701  C1704   1.420   .     A
C1702  C1703   1.418   .     A
C1702  O1723   1.386   .     S
C1706  C823    1.449   1_556 S
H1710  O827    0.989   1_556 S
O1711  H830    0.990   1_556 S
O1713  H832    0.987   1_556 S
O1715  H1716   0.989   .     S
O1717  H1718   0.988   .     S
O1719  H1720   0.989   .     S
O1721  H1722   0.992   .     S
O1723  H1724   0.988   .     S
C1725  H1733   1.110   .     S
C1725  C1726   1.536   .     S
C1725  H1734   1.110   .     S
C1726  H1732   1.108   .     S
C1726  C1727   1.524   .     S
C1726  H1731   1.107   .     S
C1727  H1729   1.109   .     S
C1727  H1728   1.105   .     S
H1730  C1139   1.108   1_565 S
C1735  H1743   1.109   .     S
C1735  H1744   1.113   .     S
C1735  C1736   1.534   .     S
C1736  C1737   1.526   .     S
C1736  H1742   1.105   .     S
C1736  H1741   1.112   .     S
C1737  H1739   1.111   .     S
C1737  H1740   1.111   .     S
C1737  H1738   1.111   .     S
C1745  H1753   1.098   .     S
C1745  H1754   1.102   .     S
C1745  C1746   1.533   .     S
C1746  H1752   1.109   .     S
C1746  H1751   1.112   .     S
C1746  C1747   1.525   .     S
C1747  H1748   1.108   .     S
C1747  H1749   1.111   .     S
C1747  H1750   1.109   .     S
C1755  H1763   1.108   .     S
C1755  H1764   1.110   .     S
C1755  C1756   1.543   .     S
C1756  H1762   1.112   .     S
C1756  C1757   1.522   .     S
C1757  H1758   1.110   .     S
C1757  H1759   1.109   .     S
H1760  C1561   1.111   1_655 S
H1761  C1560   1.112   1_655 S
