data_str_m3_o1_o10_pcu_sym.11
_audit_creation_date              2020-01-03
_audit_creation_method            'Materials Studio'
_symmetry_space_group_name_H-M    'P1'
_symmetry_Int_Tables_number       1
_symmetry_cell_setting            triclinic
loop_
_symmetry_equiv_pos_as_xyz
  x,y,z
_cell_length_a                    25.9150
_cell_length_b                    32.2263
_cell_length_c                    29.5227
_cell_angle_alpha                 90.4839
_cell_angle_beta                  98.5813
_cell_angle_gamma                 91.0714
loop_
_atom_site_label
_atom_site_type_symbol
_atom_site_fract_x
_atom_site_fract_y
_atom_site_fract_z
_atom_site_U_iso_or_equiv
_atom_site_adp_type
_atom_site_occupancy
C1     C     0.16683   0.08676   0.16637   0.00000  Uiso   1.00
C2     C     0.19992   0.02244   0.20107   0.00000  Uiso   1.00
C3     C     0.16564   0.29075   0.16760   0.00000  Uiso   1.00
C4     C     0.16769   0.04258   0.16573   0.00000  Uiso   1.00
C5     C     0.20862   0.18207   0.02958   0.00000  Uiso   1.00
C6     C     0.12472   0.15126   0.30375   0.00000  Uiso   1.00
C7     C     0.20864   0.18198   0.31499   0.00000  Uiso   1.00
C8     C     0.12469   0.15135   0.01835   0.00000  Uiso   1.00
C9     C     0.31617   0.09868   0.11644   0.00000  Uiso   1.00
C10    C     0.28625   0.07835   0.07346   0.00000  Uiso   1.00
C11    C     0.01715   0.23465   0.21690   0.00000  Uiso   1.00
C12    C     0.16651   0.24657   0.16697   0.00000  Uiso   1.00
C13    C     0.04706   0.25498   0.25988   0.00000  Uiso   1.00
C14    C     0.10432   0.04121   0.09268   0.00000  Uiso   1.00
C15    C     0.22902   0.29213   0.24065   0.00000  Uiso   1.00
C16    C     0.09658   0.28778   0.09876   0.00000  Uiso   1.00
C17    C     0.23675   0.04555   0.23457   0.00000  Uiso   1.00
C18    C     0.06723   0.16572   0.15487   0.00000  Uiso   1.00
C19    C     0.26610   0.16761   0.17846   0.00000  Uiso   1.00
C20    C     0.01267   0.16048   0.14939   0.00000  Uiso   1.00
C21    C     0.32066   0.17285   0.18394   0.00000  Uiso   1.00
C22    C     0.13535   0.02045   0.13066   0.00000  Uiso   1.00
C23    C     0.19799   0.31288   0.20267   0.00000  Uiso   1.00
C24    C     0.13342   0.31090   0.13227   0.00000  Uiso   1.00
H25    H     0.24217   0.19448   0.05214   0.00000  Uiso   1.00
H26    H     0.31147   0.24889   0.20918   0.00000  Uiso   1.00
H27    H     0.03923   0.24115   0.18803   0.00000  Uiso   1.00
H28    H     0.02646   0.24902   0.28964   0.00000  Uiso   1.00
H29    H     0.08693   0.24220   0.26705   0.00000  Uiso   1.00
H30    H     0.05028   0.28901   0.25495   0.00000  Uiso   1.00
H31    H     0.09116   0.13885   0.28119   0.00000  Uiso   1.00
H32    H     0.24229   0.19412   0.30140   0.00000  Uiso   1.00
H33    H     0.09104   0.13921   0.03193   0.00000  Uiso   1.00
H34    H     0.29410   0.09218   0.14531   0.00000  Uiso   1.00
H35    H     0.02185   0.08444   0.12415   0.00000  Uiso   1.00
H36    H     0.30686   0.08429   0.04370   0.00000  Uiso   1.00
H37    H     0.28301   0.04432   0.07840   0.00000  Uiso   1.00
H38    H     0.24640   0.09115   0.06628   0.00000  Uiso   1.00
N39    N     0.16665   0.16666   0.28573   0.00000  Uiso   1.00
N40    N     0.16668   0.16668   0.04760   0.00000  Uiso   1.00
N41    N     0.07993   0.05741   0.06206   0.00000  Uiso   1.00
N42    N     0.25340   0.27593   0.27128   0.00000  Uiso   1.00
N43    N     0.06729   0.26943   0.07217   0.00000  Uiso   1.00
N44    N     0.26605   0.06390   0.26117   0.00000  Uiso   1.00
O45    O     0.16666   0.10558   0.20487   0.00000  Uiso   1.00
O46    O     0.01202   0.19157   0.22420   0.00000  Uiso   1.00
O47    O     0.16667   0.22775   0.12846   0.00000  Uiso   1.00
O48    O     0.16666   0.10559   0.12843   0.00000  Uiso   1.00
O49    O     0.16667   0.22774   0.20490   0.00000  Uiso   1.00
O50    O     0.09058   0.16666   0.19595   0.00000  Uiso   1.00
O51    O     0.24275   0.16667   0.13739   0.00000  Uiso   1.00
O52    O     0.09058   0.16667   0.11950   0.00000  Uiso   1.00
O53    O     0.24275   0.16666   0.21383   0.00000  Uiso   1.00
O54    O     0.32131   0.14176   0.10913   0.00000  Uiso   1.00
Zn55   Zn    0.16667   0.16666   0.21771   0.00000  Uiso   1.00
Zn56   Zn    0.16667   0.16667   0.11563   0.00000  Uiso   1.00
C57    C     0.50016   0.08676   0.16637   0.00000  Uiso   1.00
C58    C     0.53325   0.02244   0.20107   0.00000  Uiso   1.00
C59    C     0.49898   0.29075   0.16760   0.00000  Uiso   1.00
C60    C     0.50102   0.04258   0.16573   0.00000  Uiso   1.00
C61    C     0.54195   0.18207   0.02958   0.00000  Uiso   1.00
C62    C     0.45805   0.15126   0.30375   0.00000  Uiso   1.00
C63    C     0.54197   0.18198   0.31499   0.00000  Uiso   1.00
C64    C     0.45803   0.15135   0.01835   0.00000  Uiso   1.00
C65    C     0.64951   0.09868   0.11644   0.00000  Uiso   1.00
C66    C     0.61959   0.07835   0.07346   0.00000  Uiso   1.00
C67    C     0.35049   0.23465   0.21690   0.00000  Uiso   1.00
C68    C     0.49984   0.24657   0.16697   0.00000  Uiso   1.00
C69    C     0.38039   0.25498   0.25988   0.00000  Uiso   1.00
C70    C     0.43765   0.04121   0.09268   0.00000  Uiso   1.00
C71    C     0.56235   0.29213   0.24065   0.00000  Uiso   1.00
C72    C     0.42992   0.28778   0.09876   0.00000  Uiso   1.00
C73    C     0.57008   0.04555   0.23457   0.00000  Uiso   1.00
C74    C     0.40057   0.16572   0.15487   0.00000  Uiso   1.00
C75    C     0.59943   0.16761   0.17846   0.00000  Uiso   1.00
C76    C     0.34600   0.16048   0.14939   0.00000  Uiso   1.00
C77    C     0.65400   0.17285   0.18394   0.00000  Uiso   1.00
C78    C     0.46868   0.02045   0.13066   0.00000  Uiso   1.00
C79    C     0.53132   0.31288   0.20267   0.00000  Uiso   1.00
C80    C     0.46675   0.31090   0.13227   0.00000  Uiso   1.00
H81    H     0.57550   0.19448   0.05214   0.00000  Uiso   1.00
H82    H     0.64481   0.24889   0.20918   0.00000  Uiso   1.00
H83    H     0.37256   0.24115   0.18803   0.00000  Uiso   1.00
H84    H     0.35979   0.24902   0.28964   0.00000  Uiso   1.00
H85    H     0.42026   0.24220   0.26705   0.00000  Uiso   1.00
H86    H     0.38361   0.28901   0.25495   0.00000  Uiso   1.00
H87    H     0.42450   0.13885   0.28119   0.00000  Uiso   1.00
H88    H     0.57562   0.19412   0.30140   0.00000  Uiso   1.00
H89    H     0.42438   0.13921   0.03193   0.00000  Uiso   1.00
H90    H     0.62744   0.09218   0.14531   0.00000  Uiso   1.00
H91    H     0.35518   0.08444   0.12415   0.00000  Uiso   1.00
H92    H     0.64019   0.08429   0.04370   0.00000  Uiso   1.00
H93    H     0.61635   0.04432   0.07840   0.00000  Uiso   1.00
H94    H     0.57973   0.09115   0.06628   0.00000  Uiso   1.00
N95    N     0.49999   0.16666   0.28573   0.00000  Uiso   1.00
N96    N     0.50001   0.16668   0.04760   0.00000  Uiso   1.00
N97    N     0.41327   0.05741   0.06206   0.00000  Uiso   1.00
N98    N     0.58673   0.27593   0.27128   0.00000  Uiso   1.00
N99    N     0.40062   0.26943   0.07217   0.00000  Uiso   1.00
N100   N     0.59938   0.06390   0.26117   0.00000  Uiso   1.00
O101   O     0.50000   0.10558   0.20487   0.00000  Uiso   1.00
O102   O     0.34536   0.19157   0.22420   0.00000  Uiso   1.00
O103   O     0.50000   0.22775   0.12846   0.00000  Uiso   1.00
O104   O     0.50000   0.10559   0.12843   0.00000  Uiso   1.00
O105   O     0.50000   0.22774   0.20490   0.00000  Uiso   1.00
O106   O     0.42392   0.16666   0.19595   0.00000  Uiso   1.00
O107   O     0.57608   0.16667   0.13739   0.00000  Uiso   1.00
O108   O     0.42392   0.16667   0.11950   0.00000  Uiso   1.00
O109   O     0.57608   0.16666   0.21383   0.00000  Uiso   1.00
O110   O     0.65464   0.14176   0.10913   0.00000  Uiso   1.00
Zn111  Zn    0.50000   0.16666   0.21771   0.00000  Uiso   1.00
Zn112  Zn    0.50000   0.16667   0.11563   0.00000  Uiso   1.00
C113   C     0.83349   0.08676   0.16637   0.00000  Uiso   1.00
C114   C     0.86658   0.02244   0.20107   0.00000  Uiso   1.00
C115   C     0.83231   0.29075   0.16760   0.00000  Uiso   1.00
C116   C     0.83436   0.04258   0.16573   0.00000  Uiso   1.00
C117   C     0.87528   0.18207   0.02958   0.00000  Uiso   1.00
C118   C     0.79138   0.15126   0.30375   0.00000  Uiso   1.00
C119   C     0.87531   0.18198   0.31499   0.00000  Uiso   1.00
C120   C     0.79136   0.15135   0.01835   0.00000  Uiso   1.00
C121   C     0.98284   0.09868   0.11644   0.00000  Uiso   1.00
C122   C     0.95292   0.07835   0.07346   0.00000  Uiso   1.00
C123   C     0.68382   0.23465   0.21690   0.00000  Uiso   1.00
C124   C     0.83317   0.24657   0.16697   0.00000  Uiso   1.00
C125   C     0.71373   0.25498   0.25988   0.00000  Uiso   1.00
C126   C     0.77098   0.04121   0.09268   0.00000  Uiso   1.00
C127   C     0.89568   0.29213   0.24065   0.00000  Uiso   1.00
C128   C     0.76325   0.28778   0.09876   0.00000  Uiso   1.00
C129   C     0.90342   0.04555   0.23457   0.00000  Uiso   1.00
C130   C     0.73390   0.16572   0.15487   0.00000  Uiso   1.00
C131   C     0.93277   0.16761   0.17846   0.00000  Uiso   1.00
C132   C     0.67933   0.16048   0.14939   0.00000  Uiso   1.00
C133   C     0.98733   0.17285   0.18394   0.00000  Uiso   1.00
C134   C     0.80201   0.02045   0.13066   0.00000  Uiso   1.00
C135   C     0.86465   0.31288   0.20267   0.00000  Uiso   1.00
C136   C     0.80008   0.31090   0.13227   0.00000  Uiso   1.00
H137   H     0.90884   0.19448   0.05214   0.00000  Uiso   1.00
H138   H     0.97814   0.24889   0.20918   0.00000  Uiso   1.00
H139   H     0.70590   0.24115   0.18803   0.00000  Uiso   1.00
H140   H     0.69313   0.24902   0.28964   0.00000  Uiso   1.00
H141   H     0.75360   0.24220   0.26705   0.00000  Uiso   1.00
H142   H     0.71694   0.28901   0.25495   0.00000  Uiso   1.00
H143   H     0.75783   0.13885   0.28119   0.00000  Uiso   1.00
H144   H     0.90896   0.19412   0.30140   0.00000  Uiso   1.00
H145   H     0.75771   0.13921   0.03193   0.00000  Uiso   1.00
H146   H     0.96077   0.09218   0.14531   0.00000  Uiso   1.00
H147   H     0.68852   0.08444   0.12415   0.00000  Uiso   1.00
H148   H     0.97353   0.08429   0.04370   0.00000  Uiso   1.00
H149   H     0.94968   0.04432   0.07840   0.00000  Uiso   1.00
H150   H     0.91306   0.09115   0.06628   0.00000  Uiso   1.00
N151   N     0.83332   0.16666   0.28573   0.00000  Uiso   1.00
N152   N     0.83335   0.16668   0.04760   0.00000  Uiso   1.00
N153   N     0.74660   0.05741   0.06206   0.00000  Uiso   1.00
N154   N     0.92007   0.27593   0.27128   0.00000  Uiso   1.00
N155   N     0.73395   0.26943   0.07217   0.00000  Uiso   1.00
N156   N     0.93271   0.06390   0.26117   0.00000  Uiso   1.00
O157   O     0.83333   0.10558   0.20487   0.00000  Uiso   1.00
O158   O     0.67869   0.19157   0.22420   0.00000  Uiso   1.00
O159   O     0.83334   0.22775   0.12846   0.00000  Uiso   1.00
O160   O     0.83333   0.10559   0.12843   0.00000  Uiso   1.00
O161   O     0.83334   0.22774   0.20490   0.00000  Uiso   1.00
O162   O     0.75725   0.16666   0.19595   0.00000  Uiso   1.00
O163   O     0.90942   0.16667   0.13739   0.00000  Uiso   1.00
O164   O     0.75725   0.16667   0.11950   0.00000  Uiso   1.00
O165   O     0.90942   0.16666   0.21383   0.00000  Uiso   1.00
O166   O     0.98798   0.14176   0.10913   0.00000  Uiso   1.00
Zn167  Zn    0.83333   0.16666   0.21771   0.00000  Uiso   1.00
Zn168  Zn    0.83333   0.16667   0.11563   0.00000  Uiso   1.00
C169   C     0.16683   0.42010   0.16637   0.00000  Uiso   1.00
C170   C     0.19992   0.35577   0.20107   0.00000  Uiso   1.00
C171   C     0.16564   0.62409   0.16760   0.00000  Uiso   1.00
C172   C     0.16769   0.37591   0.16573   0.00000  Uiso   1.00
C173   C     0.20862   0.51541   0.02958   0.00000  Uiso   1.00
C174   C     0.12472   0.48459   0.30375   0.00000  Uiso   1.00
C175   C     0.20864   0.51532   0.31499   0.00000  Uiso   1.00
C176   C     0.12469   0.48468   0.01835   0.00000  Uiso   1.00
C177   C     0.31617   0.43202   0.11644   0.00000  Uiso   1.00
C178   C     0.28625   0.41168   0.07346   0.00000  Uiso   1.00
C179   C     0.01715   0.56798   0.21690   0.00000  Uiso   1.00
C180   C     0.16651   0.57990   0.16697   0.00000  Uiso   1.00
C181   C     0.04706   0.58832   0.25988   0.00000  Uiso   1.00
C182   C     0.10432   0.37454   0.09268   0.00000  Uiso   1.00
C183   C     0.22902   0.62546   0.24065   0.00000  Uiso   1.00
C184   C     0.09658   0.62111   0.09876   0.00000  Uiso   1.00
C185   C     0.23675   0.37888   0.23457   0.00000  Uiso   1.00
C186   C     0.06723   0.49906   0.15487   0.00000  Uiso   1.00
C187   C     0.26610   0.50094   0.17846   0.00000  Uiso   1.00
C188   C     0.01267   0.49382   0.14939   0.00000  Uiso   1.00
C189   C     0.32066   0.50618   0.18394   0.00000  Uiso   1.00
C190   C     0.13535   0.35378   0.13066   0.00000  Uiso   1.00
C191   C     0.19799   0.64622   0.20267   0.00000  Uiso   1.00
C192   C     0.13342   0.64423   0.13227   0.00000  Uiso   1.00
H193   H     0.24217   0.52781   0.05214   0.00000  Uiso   1.00
H194   H     0.31147   0.58222   0.20918   0.00000  Uiso   1.00
H195   H     0.03923   0.57449   0.18803   0.00000  Uiso   1.00
H196   H     0.02646   0.58236   0.28964   0.00000  Uiso   1.00
H197   H     0.08693   0.57553   0.26705   0.00000  Uiso   1.00
H198   H     0.05028   0.62234   0.25495   0.00000  Uiso   1.00
H199   H     0.09116   0.47218   0.28119   0.00000  Uiso   1.00
H200   H     0.24229   0.52745   0.30140   0.00000  Uiso   1.00
H201   H     0.09104   0.47255   0.03193   0.00000  Uiso   1.00
H202   H     0.29410   0.42551   0.14531   0.00000  Uiso   1.00
H203   H     0.02185   0.41777   0.12415   0.00000  Uiso   1.00
H204   H     0.30686   0.41762   0.04370   0.00000  Uiso   1.00
H205   H     0.28301   0.37766   0.07840   0.00000  Uiso   1.00
H206   H     0.24640   0.42448   0.06628   0.00000  Uiso   1.00
N207   N     0.16665   0.49999   0.28573   0.00000  Uiso   1.00
N208   N     0.16668   0.50001   0.04760   0.00000  Uiso   1.00
N209   N     0.07993   0.39074   0.06206   0.00000  Uiso   1.00
N210   N     0.25340   0.60926   0.27128   0.00000  Uiso   1.00
N211   N     0.06729   0.60276   0.07217   0.00000  Uiso   1.00
N212   N     0.26605   0.39724   0.26117   0.00000  Uiso   1.00
O213   O     0.16666   0.43892   0.20487   0.00000  Uiso   1.00
O214   O     0.01202   0.52490   0.22420   0.00000  Uiso   1.00
O215   O     0.16667   0.56108   0.12846   0.00000  Uiso   1.00
O216   O     0.16666   0.43893   0.12843   0.00000  Uiso   1.00
O217   O     0.16667   0.56107   0.20490   0.00000  Uiso   1.00
O218   O     0.09058   0.50000   0.19595   0.00000  Uiso   1.00
O219   O     0.24275   0.50000   0.13739   0.00000  Uiso   1.00
O220   O     0.09058   0.50000   0.11950   0.00000  Uiso   1.00
O221   O     0.24275   0.50000   0.21383   0.00000  Uiso   1.00
O222   O     0.32131   0.47510   0.10913   0.00000  Uiso   1.00
Zn223  Zn    0.16667   0.49999   0.21771   0.00000  Uiso   1.00
Zn224  Zn    0.16667   0.50001   0.11563   0.00000  Uiso   1.00
C225   C     0.50016   0.42010   0.16637   0.00000  Uiso   1.00
C226   C     0.53325   0.35577   0.20107   0.00000  Uiso   1.00
C227   C     0.49898   0.62409   0.16760   0.00000  Uiso   1.00
C228   C     0.50102   0.37591   0.16573   0.00000  Uiso   1.00
C229   C     0.54195   0.51541   0.02958   0.00000  Uiso   1.00
C230   C     0.45805   0.48459   0.30375   0.00000  Uiso   1.00
C231   C     0.54197   0.51532   0.31499   0.00000  Uiso   1.00
C232   C     0.45803   0.48468   0.01835   0.00000  Uiso   1.00
C233   C     0.64951   0.43202   0.11644   0.00000  Uiso   1.00
C234   C     0.61959   0.41168   0.07346   0.00000  Uiso   1.00
C235   C     0.35049   0.56798   0.21690   0.00000  Uiso   1.00
C236   C     0.49984   0.57990   0.16697   0.00000  Uiso   1.00
C237   C     0.38039   0.58832   0.25988   0.00000  Uiso   1.00
C238   C     0.43765   0.37454   0.09268   0.00000  Uiso   1.00
C239   C     0.56235   0.62546   0.24065   0.00000  Uiso   1.00
C240   C     0.42992   0.62111   0.09876   0.00000  Uiso   1.00
C241   C     0.57008   0.37888   0.23457   0.00000  Uiso   1.00
C242   C     0.40057   0.49906   0.15487   0.00000  Uiso   1.00
C243   C     0.59943   0.50094   0.17846   0.00000  Uiso   1.00
C244   C     0.34600   0.49382   0.14939   0.00000  Uiso   1.00
C245   C     0.65400   0.50618   0.18394   0.00000  Uiso   1.00
C246   C     0.46868   0.35378   0.13066   0.00000  Uiso   1.00
C247   C     0.53132   0.64622   0.20267   0.00000  Uiso   1.00
C248   C     0.46675   0.64423   0.13227   0.00000  Uiso   1.00
H249   H     0.57550   0.52781   0.05214   0.00000  Uiso   1.00
H250   H     0.64481   0.58222   0.20918   0.00000  Uiso   1.00
H251   H     0.37256   0.57449   0.18803   0.00000  Uiso   1.00
H252   H     0.35979   0.58236   0.28964   0.00000  Uiso   1.00
H253   H     0.42026   0.57553   0.26705   0.00000  Uiso   1.00
H254   H     0.38361   0.62234   0.25495   0.00000  Uiso   1.00
H255   H     0.42450   0.47218   0.28119   0.00000  Uiso   1.00
H256   H     0.57562   0.52745   0.30140   0.00000  Uiso   1.00
H257   H     0.42438   0.47255   0.03193   0.00000  Uiso   1.00
H258   H     0.62744   0.42551   0.14531   0.00000  Uiso   1.00
H259   H     0.35518   0.41777   0.12415   0.00000  Uiso   1.00
H260   H     0.64019   0.41762   0.04370   0.00000  Uiso   1.00
H261   H     0.61635   0.37766   0.07840   0.00000  Uiso   1.00
H262   H     0.57973   0.42448   0.06628   0.00000  Uiso   1.00
N263   N     0.49999   0.49999   0.28573   0.00000  Uiso   1.00
N264   N     0.50001   0.50001   0.04760   0.00000  Uiso   1.00
N265   N     0.41327   0.39074   0.06206   0.00000  Uiso   1.00
N266   N     0.58673   0.60926   0.27128   0.00000  Uiso   1.00
N267   N     0.40062   0.60276   0.07217   0.00000  Uiso   1.00
N268   N     0.59938   0.39724   0.26117   0.00000  Uiso   1.00
O269   O     0.50000   0.43892   0.20487   0.00000  Uiso   1.00
O270   O     0.34536   0.52490   0.22420   0.00000  Uiso   1.00
O271   O     0.50000   0.56108   0.12846   0.00000  Uiso   1.00
O272   O     0.50000   0.43893   0.12843   0.00000  Uiso   1.00
O273   O     0.50000   0.56107   0.20490   0.00000  Uiso   1.00
O274   O     0.42392   0.50000   0.19595   0.00000  Uiso   1.00
O275   O     0.57608   0.50000   0.13739   0.00000  Uiso   1.00
O276   O     0.42392   0.50000   0.11950   0.00000  Uiso   1.00
O277   O     0.57608   0.50000   0.21383   0.00000  Uiso   1.00
O278   O     0.65464   0.47510   0.10913   0.00000  Uiso   1.00
Zn279  Zn    0.50000   0.49999   0.21771   0.00000  Uiso   1.00
Zn280  Zn    0.50000   0.50001   0.11563   0.00000  Uiso   1.00
C281   C     0.83349   0.42010   0.16637   0.00000  Uiso   1.00
C282   C     0.86658   0.35577   0.20107   0.00000  Uiso   1.00
C283   C     0.83231   0.62409   0.16760   0.00000  Uiso   1.00
C284   C     0.83436   0.37591   0.16573   0.00000  Uiso   1.00
C285   C     0.87528   0.51541   0.02958   0.00000  Uiso   1.00
C286   C     0.79138   0.48459   0.30375   0.00000  Uiso   1.00
C287   C     0.87531   0.51532   0.31499   0.00000  Uiso   1.00
C288   C     0.79136   0.48468   0.01835   0.00000  Uiso   1.00
C289   C     0.98284   0.43202   0.11644   0.00000  Uiso   1.00
C290   C     0.95292   0.41168   0.07346   0.00000  Uiso   1.00
C291   C     0.68382   0.56798   0.21690   0.00000  Uiso   1.00
C292   C     0.83317   0.57990   0.16697   0.00000  Uiso   1.00
C293   C     0.71373   0.58832   0.25988   0.00000  Uiso   1.00
C294   C     0.77098   0.37454   0.09268   0.00000  Uiso   1.00
C295   C     0.89568   0.62546   0.24065   0.00000  Uiso   1.00
C296   C     0.76325   0.62111   0.09876   0.00000  Uiso   1.00
C297   C     0.90342   0.37888   0.23457   0.00000  Uiso   1.00
C298   C     0.73390   0.49906   0.15487   0.00000  Uiso   1.00
C299   C     0.93277   0.50094   0.17846   0.00000  Uiso   1.00
C300   C     0.67933   0.49382   0.14939   0.00000  Uiso   1.00
C301   C     0.98733   0.50618   0.18394   0.00000  Uiso   1.00
C302   C     0.80201   0.35378   0.13066   0.00000  Uiso   1.00
C303   C     0.86465   0.64622   0.20267   0.00000  Uiso   1.00
C304   C     0.80008   0.64423   0.13227   0.00000  Uiso   1.00
H305   H     0.90884   0.52781   0.05214   0.00000  Uiso   1.00
H306   H     0.97814   0.58222   0.20918   0.00000  Uiso   1.00
H307   H     0.70590   0.57449   0.18803   0.00000  Uiso   1.00
H308   H     0.69313   0.58236   0.28964   0.00000  Uiso   1.00
H309   H     0.75360   0.57553   0.26705   0.00000  Uiso   1.00
H310   H     0.71694   0.62234   0.25495   0.00000  Uiso   1.00
H311   H     0.75783   0.47218   0.28119   0.00000  Uiso   1.00
H312   H     0.90896   0.52745   0.30140   0.00000  Uiso   1.00
H313   H     0.75771   0.47255   0.03193   0.00000  Uiso   1.00
H314   H     0.96077   0.42551   0.14531   0.00000  Uiso   1.00
H315   H     0.68852   0.41777   0.12415   0.00000  Uiso   1.00
H316   H     0.97353   0.41762   0.04370   0.00000  Uiso   1.00
H317   H     0.94968   0.37766   0.07840   0.00000  Uiso   1.00
H318   H     0.91306   0.42448   0.06628   0.00000  Uiso   1.00
N319   N     0.83332   0.49999   0.28573   0.00000  Uiso   1.00
N320   N     0.83335   0.50001   0.04760   0.00000  Uiso   1.00
N321   N     0.74660   0.39074   0.06206   0.00000  Uiso   1.00
N322   N     0.92007   0.60926   0.27128   0.00000  Uiso   1.00
N323   N     0.73395   0.60276   0.07217   0.00000  Uiso   1.00
N324   N     0.93271   0.39724   0.26117   0.00000  Uiso   1.00
O325   O     0.83333   0.43892   0.20487   0.00000  Uiso   1.00
O326   O     0.67869   0.52490   0.22420   0.00000  Uiso   1.00
O327   O     0.83334   0.56108   0.12846   0.00000  Uiso   1.00
O328   O     0.83333   0.43893   0.12843   0.00000  Uiso   1.00
O329   O     0.83334   0.56107   0.20490   0.00000  Uiso   1.00
O330   O     0.75725   0.50000   0.19595   0.00000  Uiso   1.00
O331   O     0.90942   0.50000   0.13739   0.00000  Uiso   1.00
O332   O     0.75725   0.50000   0.11950   0.00000  Uiso   1.00
O333   O     0.90942   0.50000   0.21383   0.00000  Uiso   1.00
O334   O     0.98798   0.47510   0.10913   0.00000  Uiso   1.00
Zn335  Zn    0.83333   0.49999   0.21771   0.00000  Uiso   1.00
Zn336  Zn    0.83333   0.50001   0.11563   0.00000  Uiso   1.00
C337   C     0.16683   0.75343   0.16637   0.00000  Uiso   1.00
C338   C     0.19992   0.68910   0.20107   0.00000  Uiso   1.00
C339   C     0.16564   0.95742   0.16760   0.00000  Uiso   1.00
C340   C     0.16769   0.70925   0.16573   0.00000  Uiso   1.00
C341   C     0.20862   0.84874   0.02958   0.00000  Uiso   1.00
C342   C     0.12472   0.81793   0.30375   0.00000  Uiso   1.00
C343   C     0.20864   0.84865   0.31499   0.00000  Uiso   1.00
C344   C     0.12469   0.81802   0.01835   0.00000  Uiso   1.00
C345   C     0.31617   0.76535   0.11644   0.00000  Uiso   1.00
C346   C     0.28625   0.74501   0.07346   0.00000  Uiso   1.00
C347   C     0.01715   0.90131   0.21690   0.00000  Uiso   1.00
C348   C     0.16651   0.91324   0.16697   0.00000  Uiso   1.00
C349   C     0.04706   0.92165   0.25988   0.00000  Uiso   1.00
C350   C     0.10432   0.70787   0.09268   0.00000  Uiso   1.00
C351   C     0.22902   0.95879   0.24065   0.00000  Uiso   1.00
C352   C     0.09658   0.95445   0.09876   0.00000  Uiso   1.00
C353   C     0.23675   0.71222   0.23457   0.00000  Uiso   1.00
C354   C     0.06723   0.83239   0.15487   0.00000  Uiso   1.00
C355   C     0.26610   0.83428   0.17846   0.00000  Uiso   1.00
C356   C     0.01267   0.82715   0.14939   0.00000  Uiso   1.00
C357   C     0.32066   0.83951   0.18394   0.00000  Uiso   1.00
C358   C     0.13535   0.68712   0.13066   0.00000  Uiso   1.00
C359   C     0.19799   0.97955   0.20267   0.00000  Uiso   1.00
C360   C     0.13342   0.97756   0.13227   0.00000  Uiso   1.00
H361   H     0.24217   0.86115   0.05214   0.00000  Uiso   1.00
H362   H     0.31147   0.91556   0.20918   0.00000  Uiso   1.00
H363   H     0.03923   0.90782   0.18803   0.00000  Uiso   1.00
H364   H     0.02646   0.91569   0.28964   0.00000  Uiso   1.00
H365   H     0.08693   0.90887   0.26705   0.00000  Uiso   1.00
H366   H     0.05028   0.95567   0.25495   0.00000  Uiso   1.00
H367   H     0.09116   0.80552   0.28119   0.00000  Uiso   1.00
H368   H     0.24229   0.86079   0.30140   0.00000  Uiso   1.00
H369   H     0.09104   0.80588   0.03193   0.00000  Uiso   1.00
H370   H     0.29410   0.75885   0.14531   0.00000  Uiso   1.00
H371   H     0.02185   0.75110   0.12415   0.00000  Uiso   1.00
H372   H     0.30686   0.75095   0.04370   0.00000  Uiso   1.00
H373   H     0.28301   0.71099   0.07840   0.00000  Uiso   1.00
H374   H     0.24640   0.75782   0.06628   0.00000  Uiso   1.00
N375   N     0.16665   0.83332   0.28573   0.00000  Uiso   1.00
N376   N     0.16668   0.83334   0.04760   0.00000  Uiso   1.00
N377   N     0.07993   0.72407   0.06206   0.00000  Uiso   1.00
N378   N     0.25340   0.94259   0.27128   0.00000  Uiso   1.00
N379   N     0.06729   0.93610   0.07217   0.00000  Uiso   1.00
N380   N     0.26605   0.73057   0.26117   0.00000  Uiso   1.00
O381   O     0.16666   0.77225   0.20487   0.00000  Uiso   1.00
O382   O     0.01202   0.85823   0.22420   0.00000  Uiso   1.00
O383   O     0.16667   0.89442   0.12846   0.00000  Uiso   1.00
O384   O     0.16666   0.77226   0.12843   0.00000  Uiso   1.00
O385   O     0.16667   0.89441   0.20490   0.00000  Uiso   1.00
O386   O     0.09058   0.83333   0.19595   0.00000  Uiso   1.00
O387   O     0.24275   0.83334   0.13739   0.00000  Uiso   1.00
O388   O     0.09058   0.83334   0.11950   0.00000  Uiso   1.00
O389   O     0.24275   0.83333   0.21383   0.00000  Uiso   1.00
O390   O     0.32131   0.80843   0.10913   0.00000  Uiso   1.00
Zn391  Zn    0.16667   0.83333   0.21771   0.00000  Uiso   1.00
Zn392  Zn    0.16667   0.83334   0.11563   0.00000  Uiso   1.00
C393   C     0.50016   0.75343   0.16637   0.00000  Uiso   1.00
C394   C     0.53325   0.68910   0.20107   0.00000  Uiso   1.00
C395   C     0.49898   0.95742   0.16760   0.00000  Uiso   1.00
C396   C     0.50102   0.70925   0.16573   0.00000  Uiso   1.00
C397   C     0.54195   0.84874   0.02958   0.00000  Uiso   1.00
C398   C     0.45805   0.81793   0.30375   0.00000  Uiso   1.00
C399   C     0.54197   0.84865   0.31499   0.00000  Uiso   1.00
C400   C     0.45803   0.81802   0.01835   0.00000  Uiso   1.00
C401   C     0.64951   0.76535   0.11644   0.00000  Uiso   1.00
C402   C     0.61959   0.74501   0.07346   0.00000  Uiso   1.00
C403   C     0.35049   0.90131   0.21690   0.00000  Uiso   1.00
C404   C     0.49984   0.91324   0.16697   0.00000  Uiso   1.00
C405   C     0.38039   0.92165   0.25988   0.00000  Uiso   1.00
C406   C     0.43765   0.70787   0.09268   0.00000  Uiso   1.00
C407   C     0.56235   0.95879   0.24065   0.00000  Uiso   1.00
C408   C     0.42992   0.95445   0.09876   0.00000  Uiso   1.00
C409   C     0.57008   0.71222   0.23457   0.00000  Uiso   1.00
C410   C     0.40057   0.83239   0.15487   0.00000  Uiso   1.00
C411   C     0.59943   0.83428   0.17846   0.00000  Uiso   1.00
C412   C     0.34600   0.82715   0.14939   0.00000  Uiso   1.00
C413   C     0.65400   0.83951   0.18394   0.00000  Uiso   1.00
C414   C     0.46868   0.68712   0.13066   0.00000  Uiso   1.00
C415   C     0.53132   0.97955   0.20267   0.00000  Uiso   1.00
C416   C     0.46675   0.97756   0.13227   0.00000  Uiso   1.00
H417   H     0.57550   0.86115   0.05214   0.00000  Uiso   1.00
H418   H     0.64481   0.91556   0.20918   0.00000  Uiso   1.00
H419   H     0.37256   0.90782   0.18803   0.00000  Uiso   1.00
H420   H     0.35979   0.91569   0.28964   0.00000  Uiso   1.00
H421   H     0.42026   0.90887   0.26705   0.00000  Uiso   1.00
H422   H     0.38361   0.95567   0.25495   0.00000  Uiso   1.00
H423   H     0.42450   0.80552   0.28119   0.00000  Uiso   1.00
H424   H     0.57562   0.86079   0.30140   0.00000  Uiso   1.00
H425   H     0.42438   0.80588   0.03193   0.00000  Uiso   1.00
H426   H     0.62744   0.75885   0.14531   0.00000  Uiso   1.00
H427   H     0.35518   0.75110   0.12415   0.00000  Uiso   1.00
H428   H     0.64019   0.75095   0.04370   0.00000  Uiso   1.00
H429   H     0.61635   0.71099   0.07840   0.00000  Uiso   1.00
H430   H     0.57973   0.75782   0.06628   0.00000  Uiso   1.00
N431   N     0.49999   0.83332   0.28573   0.00000  Uiso   1.00
N432   N     0.50001   0.83334   0.04760   0.00000  Uiso   1.00
N433   N     0.41327   0.72407   0.06206   0.00000  Uiso   1.00
N434   N     0.58673   0.94259   0.27128   0.00000  Uiso   1.00
N435   N     0.40062   0.93610   0.07217   0.00000  Uiso   1.00
N436   N     0.59938   0.73057   0.26117   0.00000  Uiso   1.00
O437   O     0.50000   0.77225   0.20487   0.00000  Uiso   1.00
O438   O     0.34536   0.85823   0.22420   0.00000  Uiso   1.00
O439   O     0.50000   0.89442   0.12846   0.00000  Uiso   1.00
O440   O     0.50000   0.77226   0.12843   0.00000  Uiso   1.00
O441   O     0.50000   0.89441   0.20490   0.00000  Uiso   1.00
O442   O     0.42392   0.83333   0.19595   0.00000  Uiso   1.00
O443   O     0.57608   0.83334   0.13739   0.00000  Uiso   1.00
O444   O     0.42392   0.83334   0.11950   0.00000  Uiso   1.00
O445   O     0.57608   0.83333   0.21383   0.00000  Uiso   1.00
O446   O     0.65464   0.80843   0.10913   0.00000  Uiso   1.00
Zn447  Zn    0.50000   0.83333   0.21771   0.00000  Uiso   1.00
Zn448  Zn    0.50000   0.83334   0.11563   0.00000  Uiso   1.00
C449   C     0.83349   0.75343   0.16637   0.00000  Uiso   1.00
C450   C     0.86658   0.68910   0.20107   0.00000  Uiso   1.00
C451   C     0.83231   0.95742   0.16760   0.00000  Uiso   1.00
C452   C     0.83436   0.70925   0.16573   0.00000  Uiso   1.00
C453   C     0.87528   0.84874   0.02958   0.00000  Uiso   1.00
C454   C     0.79138   0.81793   0.30375   0.00000  Uiso   1.00
C455   C     0.87531   0.84865   0.31499   0.00000  Uiso   1.00
C456   C     0.79136   0.81802   0.01835   0.00000  Uiso   1.00
C457   C     0.98284   0.76535   0.11644   0.00000  Uiso   1.00
C458   C     0.95292   0.74501   0.07346   0.00000  Uiso   1.00
C459   C     0.68382   0.90131   0.21690   0.00000  Uiso   1.00
C460   C     0.83317   0.91324   0.16697   0.00000  Uiso   1.00
C461   C     0.71373   0.92165   0.25988   0.00000  Uiso   1.00
C462   C     0.77098   0.70787   0.09268   0.00000  Uiso   1.00
C463   C     0.89568   0.95879   0.24065   0.00000  Uiso   1.00
C464   C     0.76325   0.95445   0.09876   0.00000  Uiso   1.00
C465   C     0.90342   0.71222   0.23457   0.00000  Uiso   1.00
C466   C     0.73390   0.83239   0.15487   0.00000  Uiso   1.00
C467   C     0.93277   0.83428   0.17846   0.00000  Uiso   1.00
C468   C     0.67933   0.82715   0.14939   0.00000  Uiso   1.00
C469   C     0.98733   0.83951   0.18394   0.00000  Uiso   1.00
C470   C     0.80201   0.68712   0.13066   0.00000  Uiso   1.00
C471   C     0.86465   0.97955   0.20267   0.00000  Uiso   1.00
C472   C     0.80008   0.97756   0.13227   0.00000  Uiso   1.00
H473   H     0.90884   0.86115   0.05214   0.00000  Uiso   1.00
H474   H     0.97814   0.91556   0.20918   0.00000  Uiso   1.00
H475   H     0.70590   0.90782   0.18803   0.00000  Uiso   1.00
H476   H     0.69313   0.91569   0.28964   0.00000  Uiso   1.00
H477   H     0.75360   0.90887   0.26705   0.00000  Uiso   1.00
H478   H     0.71694   0.95567   0.25495   0.00000  Uiso   1.00
H479   H     0.75783   0.80552   0.28119   0.00000  Uiso   1.00
H480   H     0.90896   0.86079   0.30140   0.00000  Uiso   1.00
H481   H     0.75771   0.80588   0.03193   0.00000  Uiso   1.00
H482   H     0.96077   0.75885   0.14531   0.00000  Uiso   1.00
H483   H     0.68852   0.75110   0.12415   0.00000  Uiso   1.00
H484   H     0.97353   0.75095   0.04370   0.00000  Uiso   1.00
H485   H     0.94968   0.71099   0.07840   0.00000  Uiso   1.00
H486   H     0.91306   0.75782   0.06628   0.00000  Uiso   1.00
N487   N     0.83332   0.83332   0.28573   0.00000  Uiso   1.00
N488   N     0.83335   0.83334   0.04760   0.00000  Uiso   1.00
N489   N     0.74660   0.72407   0.06206   0.00000  Uiso   1.00
N490   N     0.92007   0.94259   0.27128   0.00000  Uiso   1.00
N491   N     0.73395   0.93610   0.07217   0.00000  Uiso   1.00
N492   N     0.93271   0.73057   0.26117   0.00000  Uiso   1.00
O493   O     0.83333   0.77225   0.20487   0.00000  Uiso   1.00
O494   O     0.67869   0.85823   0.22420   0.00000  Uiso   1.00
O495   O     0.83334   0.89442   0.12846   0.00000  Uiso   1.00
O496   O     0.83333   0.77226   0.12843   0.00000  Uiso   1.00
O497   O     0.83334   0.89441   0.20490   0.00000  Uiso   1.00
O498   O     0.75725   0.83333   0.19595   0.00000  Uiso   1.00
O499   O     0.90942   0.83334   0.13739   0.00000  Uiso   1.00
O500   O     0.75725   0.83334   0.11950   0.00000  Uiso   1.00
O501   O     0.90942   0.83333   0.21383   0.00000  Uiso   1.00
O502   O     0.98798   0.80843   0.10913   0.00000  Uiso   1.00
Zn503  Zn    0.83333   0.83333   0.21771   0.00000  Uiso   1.00
Zn504  Zn    0.83333   0.83334   0.11563   0.00000  Uiso   1.00
C505   C     0.16683   0.08676   0.49970   0.00000  Uiso   1.00
C506   C     0.19992   0.02244   0.53440   0.00000  Uiso   1.00
C507   C     0.16564   0.29075   0.50093   0.00000  Uiso   1.00
C508   C     0.16769   0.04258   0.49907   0.00000  Uiso   1.00
C509   C     0.20862   0.18207   0.36291   0.00000  Uiso   1.00
C510   C     0.12472   0.15126   0.63709   0.00000  Uiso   1.00
C511   C     0.20864   0.18198   0.64832   0.00000  Uiso   1.00
C512   C     0.12469   0.15135   0.35168   0.00000  Uiso   1.00
C513   C     0.31617   0.09868   0.44977   0.00000  Uiso   1.00
C514   C     0.28625   0.07835   0.40679   0.00000  Uiso   1.00
C515   C     0.01715   0.23465   0.55023   0.00000  Uiso   1.00
C516   C     0.16651   0.24657   0.50030   0.00000  Uiso   1.00
C517   C     0.04706   0.25498   0.59321   0.00000  Uiso   1.00
C518   C     0.10432   0.04121   0.42601   0.00000  Uiso   1.00
C519   C     0.22902   0.29213   0.57399   0.00000  Uiso   1.00
C520   C     0.09658   0.28778   0.43209   0.00000  Uiso   1.00
C521   C     0.23675   0.04555   0.56791   0.00000  Uiso   1.00
C522   C     0.06723   0.16572   0.48821   0.00000  Uiso   1.00
C523   C     0.26610   0.16761   0.51179   0.00000  Uiso   1.00
C524   C     0.01267   0.16048   0.48272   0.00000  Uiso   1.00
C525   C     0.32066   0.17285   0.51728   0.00000  Uiso   1.00
C526   C     0.13535   0.02045   0.46400   0.00000  Uiso   1.00
C527   C     0.19799   0.31288   0.53600   0.00000  Uiso   1.00
C528   C     0.13342   0.31090   0.46560   0.00000  Uiso   1.00
H529   H     0.24217   0.19448   0.38548   0.00000  Uiso   1.00
H530   H     0.31147   0.24889   0.54252   0.00000  Uiso   1.00
H531   H     0.03923   0.24115   0.52137   0.00000  Uiso   1.00
H532   H     0.02646   0.24902   0.62298   0.00000  Uiso   1.00
H533   H     0.08693   0.24220   0.60039   0.00000  Uiso   1.00
H534   H     0.05028   0.28901   0.58828   0.00000  Uiso   1.00
H535   H     0.09116   0.13885   0.61452   0.00000  Uiso   1.00
H536   H     0.24229   0.19412   0.63473   0.00000  Uiso   1.00
H537   H     0.09104   0.13921   0.36527   0.00000  Uiso   1.00
H538   H     0.29410   0.09218   0.47864   0.00000  Uiso   1.00
H539   H     0.02185   0.08444   0.45748   0.00000  Uiso   1.00
H540   H     0.30686   0.08429   0.37703   0.00000  Uiso   1.00
H541   H     0.28301   0.04432   0.41173   0.00000  Uiso   1.00
H542   H     0.24640   0.09115   0.39961   0.00000  Uiso   1.00
N543   N     0.16665   0.16666   0.61907   0.00000  Uiso   1.00
N544   N     0.16668   0.16668   0.38093   0.00000  Uiso   1.00
N545   N     0.07993   0.05741   0.39539   0.00000  Uiso   1.00
N546   N     0.25340   0.27593   0.60461   0.00000  Uiso   1.00
N547   N     0.06729   0.26943   0.40550   0.00000  Uiso   1.00
N548   N     0.26605   0.06390   0.59450   0.00000  Uiso   1.00
O549   O     0.16666   0.10558   0.53821   0.00000  Uiso   1.00
O550   O     0.01202   0.19157   0.55753   0.00000  Uiso   1.00
O551   O     0.16667   0.22775   0.46179   0.00000  Uiso   1.00
O552   O     0.16666   0.10559   0.46176   0.00000  Uiso   1.00
O553   O     0.16667   0.22774   0.53824   0.00000  Uiso   1.00
O554   O     0.09058   0.16666   0.52928   0.00000  Uiso   1.00
O555   O     0.24275   0.16667   0.47072   0.00000  Uiso   1.00
O556   O     0.09058   0.16667   0.45284   0.00000  Uiso   1.00
O557   O     0.24275   0.16666   0.54716   0.00000  Uiso   1.00
O558   O     0.32131   0.14176   0.44247   0.00000  Uiso   1.00
Zn559  Zn    0.16667   0.16666   0.55104   0.00000  Uiso   1.00
Zn560  Zn    0.16667   0.16667   0.44896   0.00000  Uiso   1.00
C561   C     0.50016   0.08676   0.49970   0.00000  Uiso   1.00
C562   C     0.53325   0.02244   0.53440   0.00000  Uiso   1.00
C563   C     0.49898   0.29075   0.50093   0.00000  Uiso   1.00
C564   C     0.50102   0.04258   0.49907   0.00000  Uiso   1.00
C565   C     0.54195   0.18207   0.36291   0.00000  Uiso   1.00
C566   C     0.45805   0.15126   0.63709   0.00000  Uiso   1.00
C567   C     0.54197   0.18198   0.64832   0.00000  Uiso   1.00
C568   C     0.45803   0.15135   0.35168   0.00000  Uiso   1.00
C569   C     0.64951   0.09868   0.44977   0.00000  Uiso   1.00
C570   C     0.61959   0.07835   0.40679   0.00000  Uiso   1.00
C571   C     0.35049   0.23465   0.55023   0.00000  Uiso   1.00
C572   C     0.49984   0.24657   0.50030   0.00000  Uiso   1.00
C573   C     0.38039   0.25498   0.59321   0.00000  Uiso   1.00
C574   C     0.43765   0.04121   0.42601   0.00000  Uiso   1.00
C575   C     0.56235   0.29213   0.57399   0.00000  Uiso   1.00
C576   C     0.42992   0.28778   0.43209   0.00000  Uiso   1.00
C577   C     0.57008   0.04555   0.56791   0.00000  Uiso   1.00
C578   C     0.40057   0.16572   0.48821   0.00000  Uiso   1.00
C579   C     0.59943   0.16761   0.51179   0.00000  Uiso   1.00
C580   C     0.34600   0.16048   0.48272   0.00000  Uiso   1.00
C581   C     0.65400   0.17285   0.51728   0.00000  Uiso   1.00
C582   C     0.46868   0.02045   0.46400   0.00000  Uiso   1.00
C583   C     0.53132   0.31288   0.53600   0.00000  Uiso   1.00
C584   C     0.46675   0.31090   0.46560   0.00000  Uiso   1.00
H585   H     0.57550   0.19448   0.38548   0.00000  Uiso   1.00
H586   H     0.64481   0.24889   0.54252   0.00000  Uiso   1.00
H587   H     0.37256   0.24115   0.52137   0.00000  Uiso   1.00
H588   H     0.35979   0.24902   0.62298   0.00000  Uiso   1.00
H589   H     0.42026   0.24220   0.60039   0.00000  Uiso   1.00
H590   H     0.38361   0.28901   0.58828   0.00000  Uiso   1.00
H591   H     0.42450   0.13885   0.61452   0.00000  Uiso   1.00
H592   H     0.57562   0.19412   0.63473   0.00000  Uiso   1.00
H593   H     0.42438   0.13921   0.36527   0.00000  Uiso   1.00
H594   H     0.62744   0.09218   0.47864   0.00000  Uiso   1.00
H595   H     0.35518   0.08444   0.45748   0.00000  Uiso   1.00
H596   H     0.64019   0.08429   0.37703   0.00000  Uiso   1.00
H597   H     0.61635   0.04432   0.41173   0.00000  Uiso   1.00
H598   H     0.57973   0.09115   0.39961   0.00000  Uiso   1.00
N599   N     0.49999   0.16666   0.61907   0.00000  Uiso   1.00
N600   N     0.50001   0.16668   0.38093   0.00000  Uiso   1.00
N601   N     0.41327   0.05741   0.39539   0.00000  Uiso   1.00
N602   N     0.58673   0.27593   0.60461   0.00000  Uiso   1.00
N603   N     0.40062   0.26943   0.40550   0.00000  Uiso   1.00
N604   N     0.59938   0.06390   0.59450   0.00000  Uiso   1.00
O605   O     0.50000   0.10558   0.53821   0.00000  Uiso   1.00
O606   O     0.34536   0.19157   0.55753   0.00000  Uiso   1.00
O607   O     0.50000   0.22775   0.46179   0.00000  Uiso   1.00
O608   O     0.50000   0.10559   0.46176   0.00000  Uiso   1.00
O609   O     0.50000   0.22774   0.53824   0.00000  Uiso   1.00
O610   O     0.42392   0.16666   0.52928   0.00000  Uiso   1.00
O611   O     0.57608   0.16667   0.47072   0.00000  Uiso   1.00
O612   O     0.42392   0.16667   0.45284   0.00000  Uiso   1.00
O613   O     0.57608   0.16666   0.54716   0.00000  Uiso   1.00
O614   O     0.65464   0.14176   0.44247   0.00000  Uiso   1.00
Zn615  Zn    0.50000   0.16666   0.55104   0.00000  Uiso   1.00
Zn616  Zn    0.50000   0.16667   0.44896   0.00000  Uiso   1.00
C617   C     0.83349   0.08676   0.49970   0.00000  Uiso   1.00
C618   C     0.86658   0.02244   0.53440   0.00000  Uiso   1.00
C619   C     0.83231   0.29075   0.50093   0.00000  Uiso   1.00
C620   C     0.83436   0.04258   0.49907   0.00000  Uiso   1.00
C621   C     0.87528   0.18207   0.36291   0.00000  Uiso   1.00
C622   C     0.79138   0.15126   0.63709   0.00000  Uiso   1.00
C623   C     0.87531   0.18198   0.64832   0.00000  Uiso   1.00
C624   C     0.79136   0.15135   0.35168   0.00000  Uiso   1.00
C625   C     0.98284   0.09868   0.44977   0.00000  Uiso   1.00
C626   C     0.95292   0.07835   0.40679   0.00000  Uiso   1.00
C627   C     0.68382   0.23465   0.55023   0.00000  Uiso   1.00
C628   C     0.83317   0.24657   0.50030   0.00000  Uiso   1.00
C629   C     0.71373   0.25498   0.59321   0.00000  Uiso   1.00
C630   C     0.77098   0.04121   0.42601   0.00000  Uiso   1.00
C631   C     0.89568   0.29213   0.57399   0.00000  Uiso   1.00
C632   C     0.76325   0.28778   0.43209   0.00000  Uiso   1.00
C633   C     0.90342   0.04555   0.56791   0.00000  Uiso   1.00
C634   C     0.73390   0.16572   0.48821   0.00000  Uiso   1.00
C635   C     0.93277   0.16761   0.51179   0.00000  Uiso   1.00
C636   C     0.67933   0.16048   0.48272   0.00000  Uiso   1.00
C637   C     0.98733   0.17285   0.51728   0.00000  Uiso   1.00
C638   C     0.80201   0.02045   0.46400   0.00000  Uiso   1.00
C639   C     0.86465   0.31288   0.53600   0.00000  Uiso   1.00
C640   C     0.80008   0.31090   0.46560   0.00000  Uiso   1.00
H641   H     0.90884   0.19448   0.38548   0.00000  Uiso   1.00
H642   H     0.97814   0.24889   0.54252   0.00000  Uiso   1.00
H643   H     0.70590   0.24115   0.52137   0.00000  Uiso   1.00
H644   H     0.69313   0.24902   0.62298   0.00000  Uiso   1.00
H645   H     0.75360   0.24220   0.60039   0.00000  Uiso   1.00
H646   H     0.71694   0.28901   0.58828   0.00000  Uiso   1.00
H647   H     0.75783   0.13885   0.61452   0.00000  Uiso   1.00
H648   H     0.90896   0.19412   0.63473   0.00000  Uiso   1.00
H649   H     0.75771   0.13921   0.36527   0.00000  Uiso   1.00
H650   H     0.96077   0.09218   0.47864   0.00000  Uiso   1.00
H651   H     0.68852   0.08444   0.45748   0.00000  Uiso   1.00
H652   H     0.97353   0.08429   0.37703   0.00000  Uiso   1.00
H653   H     0.94968   0.04432   0.41173   0.00000  Uiso   1.00
H654   H     0.91306   0.09115   0.39961   0.00000  Uiso   1.00
N655   N     0.83332   0.16666   0.61907   0.00000  Uiso   1.00
N656   N     0.83335   0.16668   0.38093   0.00000  Uiso   1.00
N657   N     0.74660   0.05741   0.39539   0.00000  Uiso   1.00
N658   N     0.92007   0.27593   0.60461   0.00000  Uiso   1.00
N659   N     0.73395   0.26943   0.40550   0.00000  Uiso   1.00
N660   N     0.93271   0.06390   0.59450   0.00000  Uiso   1.00
O661   O     0.83333   0.10558   0.53821   0.00000  Uiso   1.00
O662   O     0.67869   0.19157   0.55753   0.00000  Uiso   1.00
O663   O     0.83334   0.22775   0.46179   0.00000  Uiso   1.00
O664   O     0.83333   0.10559   0.46176   0.00000  Uiso   1.00
O665   O     0.83334   0.22774   0.53824   0.00000  Uiso   1.00
O666   O     0.75725   0.16666   0.52928   0.00000  Uiso   1.00
O667   O     0.90942   0.16667   0.47072   0.00000  Uiso   1.00
O668   O     0.75725   0.16667   0.45284   0.00000  Uiso   1.00
O669   O     0.90942   0.16666   0.54716   0.00000  Uiso   1.00
O670   O     0.98798   0.14176   0.44247   0.00000  Uiso   1.00
Zn671  Zn    0.83333   0.16666   0.55104   0.00000  Uiso   1.00
Zn672  Zn    0.83333   0.16667   0.44896   0.00000  Uiso   1.00
C673   C     0.16683   0.42010   0.49970   0.00000  Uiso   1.00
C674   C     0.19992   0.35577   0.53440   0.00000  Uiso   1.00
C675   C     0.16564   0.62409   0.50093   0.00000  Uiso   1.00
C676   C     0.16769   0.37591   0.49907   0.00000  Uiso   1.00
C677   C     0.20862   0.51541   0.36291   0.00000  Uiso   1.00
C678   C     0.12472   0.48459   0.63709   0.00000  Uiso   1.00
C679   C     0.20864   0.51532   0.64832   0.00000  Uiso   1.00
C680   C     0.12469   0.48468   0.35168   0.00000  Uiso   1.00
C681   C     0.31617   0.43202   0.44977   0.00000  Uiso   1.00
C682   C     0.28625   0.41168   0.40679   0.00000  Uiso   1.00
C683   C     0.01715   0.56798   0.55023   0.00000  Uiso   1.00
C684   C     0.16651   0.57990   0.50030   0.00000  Uiso   1.00
C685   C     0.04706   0.58832   0.59321   0.00000  Uiso   1.00
C686   C     0.10432   0.37454   0.42601   0.00000  Uiso   1.00
C687   C     0.22902   0.62546   0.57399   0.00000  Uiso   1.00
C688   C     0.09658   0.62111   0.43209   0.00000  Uiso   1.00
C689   C     0.23675   0.37888   0.56791   0.00000  Uiso   1.00
C690   C     0.06723   0.49906   0.48821   0.00000  Uiso   1.00
C691   C     0.26610   0.50094   0.51179   0.00000  Uiso   1.00
C692   C     0.01267   0.49382   0.48272   0.00000  Uiso   1.00
C693   C     0.32066   0.50618   0.51728   0.00000  Uiso   1.00
C694   C     0.13535   0.35378   0.46400   0.00000  Uiso   1.00
C695   C     0.19799   0.64622   0.53600   0.00000  Uiso   1.00
C696   C     0.13342   0.64423   0.46560   0.00000  Uiso   1.00
H697   H     0.24217   0.52781   0.38548   0.00000  Uiso   1.00
H698   H     0.31147   0.58222   0.54252   0.00000  Uiso   1.00
H699   H     0.03923   0.57449   0.52137   0.00000  Uiso   1.00
H700   H     0.02646   0.58236   0.62298   0.00000  Uiso   1.00
H701   H     0.08693   0.57553   0.60039   0.00000  Uiso   1.00
H702   H     0.05028   0.62234   0.58828   0.00000  Uiso   1.00
H703   H     0.09116   0.47218   0.61452   0.00000  Uiso   1.00
H704   H     0.24229   0.52745   0.63473   0.00000  Uiso   1.00
H705   H     0.09104   0.47255   0.36527   0.00000  Uiso   1.00
H706   H     0.29410   0.42551   0.47864   0.00000  Uiso   1.00
H707   H     0.02185   0.41777   0.45748   0.00000  Uiso   1.00
H708   H     0.30686   0.41762   0.37703   0.00000  Uiso   1.00
H709   H     0.28301   0.37766   0.41173   0.00000  Uiso   1.00
H710   H     0.24640   0.42448   0.39961   0.00000  Uiso   1.00
N711   N     0.16665   0.49999   0.61907   0.00000  Uiso   1.00
N712   N     0.16668   0.50001   0.38093   0.00000  Uiso   1.00
N713   N     0.07993   0.39074   0.39539   0.00000  Uiso   1.00
N714   N     0.25340   0.60926   0.60461   0.00000  Uiso   1.00
N715   N     0.06729   0.60276   0.40550   0.00000  Uiso   1.00
N716   N     0.26605   0.39724   0.59450   0.00000  Uiso   1.00
O717   O     0.16666   0.43892   0.53821   0.00000  Uiso   1.00
O718   O     0.01202   0.52490   0.55753   0.00000  Uiso   1.00
O719   O     0.16667   0.56108   0.46179   0.00000  Uiso   1.00
O720   O     0.16666   0.43893   0.46176   0.00000  Uiso   1.00
O721   O     0.16667   0.56107   0.53824   0.00000  Uiso   1.00
O722   O     0.09058   0.50000   0.52928   0.00000  Uiso   1.00
O723   O     0.24275   0.50000   0.47072   0.00000  Uiso   1.00
O724   O     0.09058   0.50000   0.45284   0.00000  Uiso   1.00
O725   O     0.24275   0.50000   0.54716   0.00000  Uiso   1.00
O726   O     0.32131   0.47510   0.44247   0.00000  Uiso   1.00
Zn727  Zn    0.16667   0.49999   0.55104   0.00000  Uiso   1.00
Zn728  Zn    0.16667   0.50001   0.44896   0.00000  Uiso   1.00
C729   C     0.50016   0.42010   0.49970   0.00000  Uiso   1.00
C730   C     0.53325   0.35577   0.53440   0.00000  Uiso   1.00
C731   C     0.49898   0.62409   0.50093   0.00000  Uiso   1.00
C732   C     0.50102   0.37591   0.49907   0.00000  Uiso   1.00
C733   C     0.54195   0.51541   0.36291   0.00000  Uiso   1.00
C734   C     0.45805   0.48459   0.63709   0.00000  Uiso   1.00
C735   C     0.54197   0.51532   0.64832   0.00000  Uiso   1.00
C736   C     0.45803   0.48468   0.35168   0.00000  Uiso   1.00
C737   C     0.64951   0.43202   0.44977   0.00000  Uiso   1.00
C738   C     0.61959   0.41168   0.40679   0.00000  Uiso   1.00
C739   C     0.35049   0.56798   0.55023   0.00000  Uiso   1.00
C740   C     0.49984   0.57990   0.50030   0.00000  Uiso   1.00
C741   C     0.38039   0.58832   0.59321   0.00000  Uiso   1.00
C742   C     0.43765   0.37454   0.42601   0.00000  Uiso   1.00
C743   C     0.56235   0.62546   0.57399   0.00000  Uiso   1.00
C744   C     0.42992   0.62111   0.43209   0.00000  Uiso   1.00
C745   C     0.57008   0.37888   0.56791   0.00000  Uiso   1.00
C746   C     0.40057   0.49906   0.48821   0.00000  Uiso   1.00
C747   C     0.59943   0.50094   0.51179   0.00000  Uiso   1.00
C748   C     0.34600   0.49382   0.48272   0.00000  Uiso   1.00
C749   C     0.65400   0.50618   0.51728   0.00000  Uiso   1.00
C750   C     0.46868   0.35378   0.46400   0.00000  Uiso   1.00
C751   C     0.53132   0.64622   0.53600   0.00000  Uiso   1.00
C752   C     0.46675   0.64423   0.46560   0.00000  Uiso   1.00
H753   H     0.57550   0.52781   0.38548   0.00000  Uiso   1.00
H754   H     0.64481   0.58222   0.54252   0.00000  Uiso   1.00
H755   H     0.37256   0.57449   0.52137   0.00000  Uiso   1.00
H756   H     0.35979   0.58236   0.62298   0.00000  Uiso   1.00
H757   H     0.42026   0.57553   0.60039   0.00000  Uiso   1.00
H758   H     0.38361   0.62234   0.58828   0.00000  Uiso   1.00
H759   H     0.42450   0.47218   0.61452   0.00000  Uiso   1.00
H760   H     0.57562   0.52745   0.63473   0.00000  Uiso   1.00
H761   H     0.42438   0.47255   0.36527   0.00000  Uiso   1.00
H762   H     0.62744   0.42551   0.47864   0.00000  Uiso   1.00
H763   H     0.35518   0.41777   0.45748   0.00000  Uiso   1.00
H764   H     0.64019   0.41762   0.37703   0.00000  Uiso   1.00
H765   H     0.61635   0.37766   0.41173   0.00000  Uiso   1.00
H766   H     0.57973   0.42448   0.39961   0.00000  Uiso   1.00
N767   N     0.49999   0.49999   0.61907   0.00000  Uiso   1.00
N768   N     0.50001   0.50001   0.38093   0.00000  Uiso   1.00
N769   N     0.41327   0.39074   0.39539   0.00000  Uiso   1.00
N770   N     0.58673   0.60926   0.60461   0.00000  Uiso   1.00
N771   N     0.40062   0.60276   0.40550   0.00000  Uiso   1.00
N772   N     0.59938   0.39724   0.59450   0.00000  Uiso   1.00
O773   O     0.50000   0.43892   0.53821   0.00000  Uiso   1.00
O774   O     0.34536   0.52490   0.55753   0.00000  Uiso   1.00
O775   O     0.50000   0.56108   0.46179   0.00000  Uiso   1.00
O776   O     0.50000   0.43893   0.46176   0.00000  Uiso   1.00
O777   O     0.50000   0.56107   0.53824   0.00000  Uiso   1.00
O778   O     0.42392   0.50000   0.52928   0.00000  Uiso   1.00
O779   O     0.57608   0.50000   0.47072   0.00000  Uiso   1.00
O780   O     0.42392   0.50000   0.45284   0.00000  Uiso   1.00
O781   O     0.57608   0.50000   0.54716   0.00000  Uiso   1.00
O782   O     0.65464   0.47510   0.44247   0.00000  Uiso   1.00
Zn783  Zn    0.50000   0.49999   0.55104   0.00000  Uiso   1.00
Zn784  Zn    0.50000   0.50001   0.44896   0.00000  Uiso   1.00
C785   C     0.83349   0.42010   0.49970   0.00000  Uiso   1.00
C786   C     0.86658   0.35577   0.53440   0.00000  Uiso   1.00
C787   C     0.83231   0.62409   0.50093   0.00000  Uiso   1.00
C788   C     0.83436   0.37591   0.49907   0.00000  Uiso   1.00
C789   C     0.87528   0.51541   0.36291   0.00000  Uiso   1.00
C790   C     0.79138   0.48459   0.63709   0.00000  Uiso   1.00
C791   C     0.87531   0.51532   0.64832   0.00000  Uiso   1.00
C792   C     0.79136   0.48468   0.35168   0.00000  Uiso   1.00
C793   C     0.98284   0.43202   0.44977   0.00000  Uiso   1.00
C794   C     0.95292   0.41168   0.40679   0.00000  Uiso   1.00
C795   C     0.68382   0.56798   0.55023   0.00000  Uiso   1.00
C796   C     0.83317   0.57990   0.50030   0.00000  Uiso   1.00
C797   C     0.71373   0.58832   0.59321   0.00000  Uiso   1.00
C798   C     0.77098   0.37454   0.42601   0.00000  Uiso   1.00
C799   C     0.89568   0.62546   0.57399   0.00000  Uiso   1.00
C800   C     0.76325   0.62111   0.43209   0.00000  Uiso   1.00
C801   C     0.90342   0.37888   0.56791   0.00000  Uiso   1.00
C802   C     0.73390   0.49906   0.48821   0.00000  Uiso   1.00
C803   C     0.93277   0.50094   0.51179   0.00000  Uiso   1.00
C804   C     0.67933   0.49382   0.48272   0.00000  Uiso   1.00
C805   C     0.98733   0.50618   0.51728   0.00000  Uiso   1.00
C806   C     0.80201   0.35378   0.46400   0.00000  Uiso   1.00
C807   C     0.86465   0.64622   0.53600   0.00000  Uiso   1.00
C808   C     0.80008   0.64423   0.46560   0.00000  Uiso   1.00
H809   H     0.90884   0.52781   0.38548   0.00000  Uiso   1.00
H810   H     0.97814   0.58222   0.54252   0.00000  Uiso   1.00
H811   H     0.70590   0.57449   0.52137   0.00000  Uiso   1.00
H812   H     0.69313   0.58236   0.62298   0.00000  Uiso   1.00
H813   H     0.75360   0.57553   0.60039   0.00000  Uiso   1.00
H814   H     0.71694   0.62234   0.58828   0.00000  Uiso   1.00
H815   H     0.75783   0.47218   0.61452   0.00000  Uiso   1.00
H816   H     0.90896   0.52745   0.63473   0.00000  Uiso   1.00
H817   H     0.75771   0.47255   0.36527   0.00000  Uiso   1.00
H818   H     0.96077   0.42551   0.47864   0.00000  Uiso   1.00
H819   H     0.68852   0.41777   0.45748   0.00000  Uiso   1.00
H820   H     0.97353   0.41762   0.37703   0.00000  Uiso   1.00
H821   H     0.94968   0.37766   0.41173   0.00000  Uiso   1.00
H822   H     0.91306   0.42448   0.39961   0.00000  Uiso   1.00
N823   N     0.83332   0.49999   0.61907   0.00000  Uiso   1.00
N824   N     0.83335   0.50001   0.38093   0.00000  Uiso   1.00
N825   N     0.74660   0.39074   0.39539   0.00000  Uiso   1.00
N826   N     0.92007   0.60926   0.60461   0.00000  Uiso   1.00
N827   N     0.73395   0.60276   0.40550   0.00000  Uiso   1.00
N828   N     0.93271   0.39724   0.59450   0.00000  Uiso   1.00
O829   O     0.83333   0.43892   0.53821   0.00000  Uiso   1.00
O830   O     0.67869   0.52490   0.55753   0.00000  Uiso   1.00
O831   O     0.83334   0.56108   0.46179   0.00000  Uiso   1.00
O832   O     0.83333   0.43893   0.46176   0.00000  Uiso   1.00
O833   O     0.83334   0.56107   0.53824   0.00000  Uiso   1.00
O834   O     0.75725   0.50000   0.52928   0.00000  Uiso   1.00
O835   O     0.90942   0.50000   0.47072   0.00000  Uiso   1.00
O836   O     0.75725   0.50000   0.45284   0.00000  Uiso   1.00
O837   O     0.90942   0.50000   0.54716   0.00000  Uiso   1.00
O838   O     0.98798   0.47510   0.44247   0.00000  Uiso   1.00
Zn839  Zn    0.83333   0.49999   0.55104   0.00000  Uiso   1.00
Zn840  Zn    0.83333   0.50001   0.44896   0.00000  Uiso   1.00
C841   C     0.16683   0.75343   0.49970   0.00000  Uiso   1.00
C842   C     0.19992   0.68910   0.53440   0.00000  Uiso   1.00
C843   C     0.16564   0.95742   0.50093   0.00000  Uiso   1.00
C844   C     0.16769   0.70925   0.49907   0.00000  Uiso   1.00
C845   C     0.20862   0.84874   0.36291   0.00000  Uiso   1.00
C846   C     0.12472   0.81793   0.63709   0.00000  Uiso   1.00
C847   C     0.20864   0.84865   0.64832   0.00000  Uiso   1.00
C848   C     0.12469   0.81802   0.35168   0.00000  Uiso   1.00
C849   C     0.31617   0.76535   0.44977   0.00000  Uiso   1.00
C850   C     0.28625   0.74501   0.40679   0.00000  Uiso   1.00
C851   C     0.01715   0.90131   0.55023   0.00000  Uiso   1.00
C852   C     0.16651   0.91324   0.50030   0.00000  Uiso   1.00
C853   C     0.04706   0.92165   0.59321   0.00000  Uiso   1.00
C854   C     0.10432   0.70787   0.42601   0.00000  Uiso   1.00
C855   C     0.22902   0.95879   0.57399   0.00000  Uiso   1.00
C856   C     0.09658   0.95445   0.43209   0.00000  Uiso   1.00
C857   C     0.23675   0.71222   0.56791   0.00000  Uiso   1.00
C858   C     0.06723   0.83239   0.48821   0.00000  Uiso   1.00
C859   C     0.26610   0.83428   0.51179   0.00000  Uiso   1.00
C860   C     0.01267   0.82715   0.48272   0.00000  Uiso   1.00
C861   C     0.32066   0.83951   0.51728   0.00000  Uiso   1.00
C862   C     0.13535   0.68712   0.46400   0.00000  Uiso   1.00
C863   C     0.19799   0.97955   0.53600   0.00000  Uiso   1.00
C864   C     0.13342   0.97756   0.46560   0.00000  Uiso   1.00
H865   H     0.24217   0.86115   0.38548   0.00000  Uiso   1.00
H866   H     0.31147   0.91556   0.54252   0.00000  Uiso   1.00
H867   H     0.03923   0.90782   0.52137   0.00000  Uiso   1.00
H868   H     0.02646   0.91569   0.62298   0.00000  Uiso   1.00
H869   H     0.08693   0.90887   0.60039   0.00000  Uiso   1.00
H870   H     0.05028   0.95567   0.58828   0.00000  Uiso   1.00
H871   H     0.09116   0.80552   0.61452   0.00000  Uiso   1.00
H872   H     0.24229   0.86079   0.63473   0.00000  Uiso   1.00
H873   H     0.09104   0.80588   0.36527   0.00000  Uiso   1.00
H874   H     0.29410   0.75885   0.47864   0.00000  Uiso   1.00
H875   H     0.02185   0.75110   0.45748   0.00000  Uiso   1.00
H876   H     0.30686   0.75095   0.37703   0.00000  Uiso   1.00
H877   H     0.28301   0.71099   0.41173   0.00000  Uiso   1.00
H878   H     0.24640   0.75782   0.39961   0.00000  Uiso   1.00
N879   N     0.16665   0.83332   0.61907   0.00000  Uiso   1.00
N880   N     0.16668   0.83334   0.38093   0.00000  Uiso   1.00
N881   N     0.07993   0.72407   0.39539   0.00000  Uiso   1.00
N882   N     0.25340   0.94259   0.60461   0.00000  Uiso   1.00
N883   N     0.06729   0.93610   0.40550   0.00000  Uiso   1.00
N884   N     0.26605   0.73057   0.59450   0.00000  Uiso   1.00
O885   O     0.16666   0.77225   0.53821   0.00000  Uiso   1.00
O886   O     0.01202   0.85823   0.55753   0.00000  Uiso   1.00
O887   O     0.16667   0.89442   0.46179   0.00000  Uiso   1.00
O888   O     0.16666   0.77226   0.46176   0.00000  Uiso   1.00
O889   O     0.16667   0.89441   0.53824   0.00000  Uiso   1.00
O890   O     0.09058   0.83333   0.52928   0.00000  Uiso   1.00
O891   O     0.24275   0.83334   0.47072   0.00000  Uiso   1.00
O892   O     0.09058   0.83334   0.45284   0.00000  Uiso   1.00
O893   O     0.24275   0.83333   0.54716   0.00000  Uiso   1.00
O894   O     0.32131   0.80843   0.44247   0.00000  Uiso   1.00
Zn895  Zn    0.16667   0.83333   0.55104   0.00000  Uiso   1.00
Zn896  Zn    0.16667   0.83334   0.44896   0.00000  Uiso   1.00
C897   C     0.50016   0.75343   0.49970   0.00000  Uiso   1.00
C898   C     0.53325   0.68910   0.53440   0.00000  Uiso   1.00
C899   C     0.49898   0.95742   0.50093   0.00000  Uiso   1.00
C900   C     0.50102   0.70925   0.49907   0.00000  Uiso   1.00
C901   C     0.54195   0.84874   0.36291   0.00000  Uiso   1.00
C902   C     0.45805   0.81793   0.63709   0.00000  Uiso   1.00
C903   C     0.54197   0.84865   0.64832   0.00000  Uiso   1.00
C904   C     0.45803   0.81802   0.35168   0.00000  Uiso   1.00
C905   C     0.64951   0.76535   0.44977   0.00000  Uiso   1.00
C906   C     0.61959   0.74501   0.40679   0.00000  Uiso   1.00
C907   C     0.35049   0.90131   0.55023   0.00000  Uiso   1.00
C908   C     0.49984   0.91324   0.50030   0.00000  Uiso   1.00
C909   C     0.38039   0.92165   0.59321   0.00000  Uiso   1.00
C910   C     0.43765   0.70787   0.42601   0.00000  Uiso   1.00
C911   C     0.56235   0.95879   0.57399   0.00000  Uiso   1.00
C912   C     0.42992   0.95445   0.43209   0.00000  Uiso   1.00
C913   C     0.57008   0.71222   0.56791   0.00000  Uiso   1.00
C914   C     0.40057   0.83239   0.48821   0.00000  Uiso   1.00
C915   C     0.59943   0.83428   0.51179   0.00000  Uiso   1.00
C916   C     0.34600   0.82715   0.48272   0.00000  Uiso   1.00
C917   C     0.65400   0.83951   0.51728   0.00000  Uiso   1.00
C918   C     0.46868   0.68712   0.46400   0.00000  Uiso   1.00
C919   C     0.53132   0.97955   0.53600   0.00000  Uiso   1.00
C920   C     0.46675   0.97756   0.46560   0.00000  Uiso   1.00
H921   H     0.57550   0.86115   0.38548   0.00000  Uiso   1.00
H922   H     0.64481   0.91556   0.54252   0.00000  Uiso   1.00
H923   H     0.37256   0.90782   0.52137   0.00000  Uiso   1.00
H924   H     0.35979   0.91569   0.62298   0.00000  Uiso   1.00
H925   H     0.42026   0.90887   0.60039   0.00000  Uiso   1.00
H926   H     0.38361   0.95567   0.58828   0.00000  Uiso   1.00
H927   H     0.42450   0.80552   0.61452   0.00000  Uiso   1.00
H928   H     0.57562   0.86079   0.63473   0.00000  Uiso   1.00
H929   H     0.42438   0.80588   0.36527   0.00000  Uiso   1.00
H930   H     0.62744   0.75885   0.47864   0.00000  Uiso   1.00
H931   H     0.35518   0.75110   0.45748   0.00000  Uiso   1.00
H932   H     0.64019   0.75095   0.37703   0.00000  Uiso   1.00
H933   H     0.61635   0.71099   0.41173   0.00000  Uiso   1.00
H934   H     0.57973   0.75782   0.39961   0.00000  Uiso   1.00
N935   N     0.49999   0.83332   0.61907   0.00000  Uiso   1.00
N936   N     0.50001   0.83334   0.38093   0.00000  Uiso   1.00
N937   N     0.41327   0.72407   0.39539   0.00000  Uiso   1.00
N938   N     0.58673   0.94259   0.60461   0.00000  Uiso   1.00
N939   N     0.40062   0.93610   0.40550   0.00000  Uiso   1.00
N940   N     0.59938   0.73057   0.59450   0.00000  Uiso   1.00
O941   O     0.50000   0.77225   0.53821   0.00000  Uiso   1.00
O942   O     0.34536   0.85823   0.55753   0.00000  Uiso   1.00
O943   O     0.50000   0.89442   0.46179   0.00000  Uiso   1.00
O944   O     0.50000   0.77226   0.46176   0.00000  Uiso   1.00
O945   O     0.50000   0.89441   0.53824   0.00000  Uiso   1.00
O946   O     0.42392   0.83333   0.52928   0.00000  Uiso   1.00
O947   O     0.57608   0.83334   0.47072   0.00000  Uiso   1.00
O948   O     0.42392   0.83334   0.45284   0.00000  Uiso   1.00
O949   O     0.57608   0.83333   0.54716   0.00000  Uiso   1.00
O950   O     0.65464   0.80843   0.44247   0.00000  Uiso   1.00
Zn951  Zn    0.50000   0.83333   0.55104   0.00000  Uiso   1.00
Zn952  Zn    0.50000   0.83334   0.44896   0.00000  Uiso   1.00
C953   C     0.83349   0.75343   0.49970   0.00000  Uiso   1.00
C954   C     0.86658   0.68910   0.53440   0.00000  Uiso   1.00
C955   C     0.83231   0.95742   0.50093   0.00000  Uiso   1.00
C956   C     0.83436   0.70925   0.49907   0.00000  Uiso   1.00
C957   C     0.87528   0.84874   0.36291   0.00000  Uiso   1.00
C958   C     0.79138   0.81793   0.63709   0.00000  Uiso   1.00
C959   C     0.87531   0.84865   0.64832   0.00000  Uiso   1.00
C960   C     0.79136   0.81802   0.35168   0.00000  Uiso   1.00
C961   C     0.98284   0.76535   0.44977   0.00000  Uiso   1.00
C962   C     0.95292   0.74501   0.40679   0.00000  Uiso   1.00
C963   C     0.68382   0.90131   0.55023   0.00000  Uiso   1.00
C964   C     0.83317   0.91324   0.50030   0.00000  Uiso   1.00
C965   C     0.71373   0.92165   0.59321   0.00000  Uiso   1.00
C966   C     0.77098   0.70787   0.42601   0.00000  Uiso   1.00
C967   C     0.89568   0.95879   0.57399   0.00000  Uiso   1.00
C968   C     0.76325   0.95445   0.43209   0.00000  Uiso   1.00
C969   C     0.90342   0.71222   0.56791   0.00000  Uiso   1.00
C970   C     0.73390   0.83239   0.48821   0.00000  Uiso   1.00
C971   C     0.93277   0.83428   0.51179   0.00000  Uiso   1.00
C972   C     0.67933   0.82715   0.48272   0.00000  Uiso   1.00
C973   C     0.98733   0.83951   0.51728   0.00000  Uiso   1.00
C974   C     0.80201   0.68712   0.46400   0.00000  Uiso   1.00
C975   C     0.86465   0.97955   0.53600   0.00000  Uiso   1.00
C976   C     0.80008   0.97756   0.46560   0.00000  Uiso   1.00
H977   H     0.90884   0.86115   0.38548   0.00000  Uiso   1.00
H978   H     0.97814   0.91556   0.54252   0.00000  Uiso   1.00
H979   H     0.70590   0.90782   0.52137   0.00000  Uiso   1.00
H980   H     0.69313   0.91569   0.62298   0.00000  Uiso   1.00
H981   H     0.75360   0.90887   0.60039   0.00000  Uiso   1.00
H982   H     0.71694   0.95567   0.58828   0.00000  Uiso   1.00
H983   H     0.75783   0.80552   0.61452   0.00000  Uiso   1.00
H984   H     0.90896   0.86079   0.63473   0.00000  Uiso   1.00
H985   H     0.75771   0.80588   0.36527   0.00000  Uiso   1.00
H986   H     0.96077   0.75885   0.47864   0.00000  Uiso   1.00
H987   H     0.68852   0.75110   0.45748   0.00000  Uiso   1.00
H988   H     0.97353   0.75095   0.37703   0.00000  Uiso   1.00
H989   H     0.94968   0.71099   0.41173   0.00000  Uiso   1.00
H990   H     0.91306   0.75782   0.39961   0.00000  Uiso   1.00
N991   N     0.83332   0.83332   0.61907   0.00000  Uiso   1.00
N992   N     0.83335   0.83334   0.38093   0.00000  Uiso   1.00
N993   N     0.74660   0.72407   0.39539   0.00000  Uiso   1.00
N994   N     0.92007   0.94259   0.60461   0.00000  Uiso   1.00
N995   N     0.73395   0.93610   0.40550   0.00000  Uiso   1.00
N996   N     0.93271   0.73057   0.59450   0.00000  Uiso   1.00
O997   O     0.83333   0.77225   0.53821   0.00000  Uiso   1.00
O998   O     0.67869   0.85823   0.55753   0.00000  Uiso   1.00
O999   O     0.83334   0.89442   0.46179   0.00000  Uiso   1.00
O1000  O     0.83333   0.77226   0.46176   0.00000  Uiso   1.00
O1001  O     0.83334   0.89441   0.53824   0.00000  Uiso   1.00
O1002  O     0.75725   0.83333   0.52928   0.00000  Uiso   1.00
O1003  O     0.90942   0.83334   0.47072   0.00000  Uiso   1.00
O1004  O     0.75725   0.83334   0.45284   0.00000  Uiso   1.00
O1005  O     0.90942   0.83333   0.54716   0.00000  Uiso   1.00
O1006  O     0.98798   0.80843   0.44247   0.00000  Uiso   1.00
Zn1007 Zn    0.83333   0.83333   0.55104   0.00000  Uiso   1.00
Zn1008 Zn    0.83333   0.83334   0.44896   0.00000  Uiso   1.00
C1009  C     0.16683   0.08676   0.83303   0.00000  Uiso   1.00
C1010  C     0.19992   0.02244   0.86773   0.00000  Uiso   1.00
C1011  C     0.16564   0.29075   0.83427   0.00000  Uiso   1.00
C1012  C     0.16769   0.04258   0.83240   0.00000  Uiso   1.00
C1013  C     0.20862   0.18207   0.69625   0.00000  Uiso   1.00
C1014  C     0.12472   0.15126   0.97042   0.00000  Uiso   1.00
C1015  C     0.20864   0.18198   0.98165   0.00000  Uiso   1.00
C1016  C     0.12469   0.15135   0.68501   0.00000  Uiso   1.00
C1017  C     0.31617   0.09868   0.78310   0.00000  Uiso   1.00
C1018  C     0.28625   0.07835   0.74013   0.00000  Uiso   1.00
C1019  C     0.01715   0.23465   0.88356   0.00000  Uiso   1.00
C1020  C     0.16651   0.24657   0.83363   0.00000  Uiso   1.00
C1021  C     0.04706   0.25498   0.92655   0.00000  Uiso   1.00
C1022  C     0.10432   0.04121   0.75935   0.00000  Uiso   1.00
C1023  C     0.22902   0.29213   0.90732   0.00000  Uiso   1.00
C1024  C     0.09658   0.28778   0.76543   0.00000  Uiso   1.00
C1025  C     0.23675   0.04555   0.90124   0.00000  Uiso   1.00
C1026  C     0.06723   0.16572   0.82154   0.00000  Uiso   1.00
C1027  C     0.26610   0.16761   0.84513   0.00000  Uiso   1.00
C1028  C     0.01267   0.16048   0.81606   0.00000  Uiso   1.00
C1029  C     0.32066   0.17285   0.85061   0.00000  Uiso   1.00
C1030  C     0.13535   0.02045   0.79733   0.00000  Uiso   1.00
C1031  C     0.19799   0.31288   0.86933   0.00000  Uiso   1.00
C1032  C     0.13342   0.31090   0.79893   0.00000  Uiso   1.00
H1033  H     0.24217   0.19448   0.71881   0.00000  Uiso   1.00
H1034  H     0.31147   0.24889   0.87585   0.00000  Uiso   1.00
H1035  H     0.03923   0.24115   0.85470   0.00000  Uiso   1.00
H1036  H     0.02646   0.24902   0.95631   0.00000  Uiso   1.00
H1037  H     0.08693   0.24220   0.93372   0.00000  Uiso   1.00
H1038  H     0.05028   0.28901   0.92162   0.00000  Uiso   1.00
H1039  H     0.09116   0.13885   0.94786   0.00000  Uiso   1.00
H1040  H     0.24229   0.19412   0.96807   0.00000  Uiso   1.00
H1041  H     0.09104   0.13921   0.69860   0.00000  Uiso   1.00
H1042  H     0.29410   0.09218   0.81197   0.00000  Uiso   1.00
H1043  H     0.02185   0.08444   0.79081   0.00000  Uiso   1.00
H1044  H     0.30686   0.08429   0.71036   0.00000  Uiso   1.00
H1045  H     0.28301   0.04432   0.74507   0.00000  Uiso   1.00
H1046  H     0.24640   0.09115   0.73295   0.00000  Uiso   1.00
N1047  N     0.16665   0.16666   0.95240   0.00000  Uiso   1.00
N1048  N     0.16668   0.16668   0.71427   0.00000  Uiso   1.00
N1049  N     0.07993   0.05741   0.72872   0.00000  Uiso   1.00
N1050  N     0.25340   0.27593   0.93794   0.00000  Uiso   1.00
N1051  N     0.06729   0.26943   0.73883   0.00000  Uiso   1.00
N1052  N     0.26605   0.06390   0.92783   0.00000  Uiso   1.00
O1053  O     0.16666   0.10558   0.87154   0.00000  Uiso   1.00
O1054  O     0.01202   0.19157   0.89087   0.00000  Uiso   1.00
O1055  O     0.16667   0.22775   0.79513   0.00000  Uiso   1.00
O1056  O     0.16666   0.10559   0.79510   0.00000  Uiso   1.00
O1057  O     0.16667   0.22774   0.87157   0.00000  Uiso   1.00
O1058  O     0.09058   0.16666   0.86261   0.00000  Uiso   1.00
O1059  O     0.24275   0.16667   0.80405   0.00000  Uiso   1.00
O1060  O     0.09058   0.16667   0.78617   0.00000  Uiso   1.00
O1061  O     0.24275   0.16666   0.88050   0.00000  Uiso   1.00
O1062  O     0.32131   0.14176   0.77580   0.00000  Uiso   1.00
Zn1063 Zn    0.16667   0.16666   0.88437   0.00000  Uiso   1.00
Zn1064 Zn    0.16667   0.16667   0.78229   0.00000  Uiso   1.00
C1065  C     0.50016   0.08676   0.83303   0.00000  Uiso   1.00
C1066  C     0.53325   0.02244   0.86773   0.00000  Uiso   1.00
C1067  C     0.49898   0.29075   0.83427   0.00000  Uiso   1.00
C1068  C     0.50102   0.04258   0.83240   0.00000  Uiso   1.00
C1069  C     0.54195   0.18207   0.69625   0.00000  Uiso   1.00
C1070  C     0.45805   0.15126   0.97042   0.00000  Uiso   1.00
C1071  C     0.54197   0.18198   0.98165   0.00000  Uiso   1.00
C1072  C     0.45803   0.15135   0.68501   0.00000  Uiso   1.00
C1073  C     0.64951   0.09868   0.78310   0.00000  Uiso   1.00
C1074  C     0.61959   0.07835   0.74013   0.00000  Uiso   1.00
C1075  C     0.35049   0.23465   0.88356   0.00000  Uiso   1.00
C1076  C     0.49984   0.24657   0.83363   0.00000  Uiso   1.00
C1077  C     0.38039   0.25498   0.92655   0.00000  Uiso   1.00
C1078  C     0.43765   0.04121   0.75935   0.00000  Uiso   1.00
C1079  C     0.56235   0.29213   0.90732   0.00000  Uiso   1.00
C1080  C     0.42992   0.28778   0.76543   0.00000  Uiso   1.00
C1081  C     0.57008   0.04555   0.90124   0.00000  Uiso   1.00
C1082  C     0.40057   0.16572   0.82154   0.00000  Uiso   1.00
C1083  C     0.59943   0.16761   0.84513   0.00000  Uiso   1.00
C1084  C     0.34600   0.16048   0.81606   0.00000  Uiso   1.00
C1085  C     0.65400   0.17285   0.85061   0.00000  Uiso   1.00
C1086  C     0.46868   0.02045   0.79733   0.00000  Uiso   1.00
C1087  C     0.53132   0.31288   0.86933   0.00000  Uiso   1.00
C1088  C     0.46675   0.31090   0.79893   0.00000  Uiso   1.00
H1089  H     0.57550   0.19448   0.71881   0.00000  Uiso   1.00
H1090  H     0.64481   0.24889   0.87585   0.00000  Uiso   1.00
H1091  H     0.37256   0.24115   0.85470   0.00000  Uiso   1.00
H1092  H     0.35979   0.24902   0.95631   0.00000  Uiso   1.00
H1093  H     0.42026   0.24220   0.93372   0.00000  Uiso   1.00
H1094  H     0.38361   0.28901   0.92162   0.00000  Uiso   1.00
H1095  H     0.42450   0.13885   0.94786   0.00000  Uiso   1.00
H1096  H     0.57562   0.19412   0.96807   0.00000  Uiso   1.00
H1097  H     0.42438   0.13921   0.69860   0.00000  Uiso   1.00
H1098  H     0.62744   0.09218   0.81197   0.00000  Uiso   1.00
H1099  H     0.35518   0.08444   0.79081   0.00000  Uiso   1.00
H1100  H     0.64019   0.08429   0.71036   0.00000  Uiso   1.00
H1101  H     0.61635   0.04432   0.74507   0.00000  Uiso   1.00
H1102  H     0.57973   0.09115   0.73295   0.00000  Uiso   1.00
N1103  N     0.49999   0.16666   0.95240   0.00000  Uiso   1.00
N1104  N     0.50001   0.16668   0.71427   0.00000  Uiso   1.00
N1105  N     0.41327   0.05741   0.72872   0.00000  Uiso   1.00
N1106  N     0.58673   0.27593   0.93794   0.00000  Uiso   1.00
N1107  N     0.40062   0.26943   0.73883   0.00000  Uiso   1.00
N1108  N     0.59938   0.06390   0.92783   0.00000  Uiso   1.00
O1109  O     0.50000   0.10558   0.87154   0.00000  Uiso   1.00
O1110  O     0.34536   0.19157   0.89087   0.00000  Uiso   1.00
O1111  O     0.50000   0.22775   0.79513   0.00000  Uiso   1.00
O1112  O     0.50000   0.10559   0.79510   0.00000  Uiso   1.00
O1113  O     0.50000   0.22774   0.87157   0.00000  Uiso   1.00
O1114  O     0.42392   0.16666   0.86261   0.00000  Uiso   1.00
O1115  O     0.57608   0.16667   0.80405   0.00000  Uiso   1.00
O1116  O     0.42392   0.16667   0.78617   0.00000  Uiso   1.00
O1117  O     0.57608   0.16666   0.88050   0.00000  Uiso   1.00
O1118  O     0.65464   0.14176   0.77580   0.00000  Uiso   1.00
Zn1119 Zn    0.50000   0.16666   0.88437   0.00000  Uiso   1.00
Zn1120 Zn    0.50000   0.16667   0.78229   0.00000  Uiso   1.00
C1121  C     0.83349   0.08676   0.83303   0.00000  Uiso   1.00
C1122  C     0.86658   0.02244   0.86773   0.00000  Uiso   1.00
C1123  C     0.83231   0.29075   0.83427   0.00000  Uiso   1.00
C1124  C     0.83436   0.04258   0.83240   0.00000  Uiso   1.00
C1125  C     0.87528   0.18207   0.69625   0.00000  Uiso   1.00
C1126  C     0.79138   0.15126   0.97042   0.00000  Uiso   1.00
C1127  C     0.87531   0.18198   0.98165   0.00000  Uiso   1.00
C1128  C     0.79136   0.15135   0.68501   0.00000  Uiso   1.00
C1129  C     0.98284   0.09868   0.78310   0.00000  Uiso   1.00
C1130  C     0.95292   0.07835   0.74013   0.00000  Uiso   1.00
C1131  C     0.68382   0.23465   0.88356   0.00000  Uiso   1.00
C1132  C     0.83317   0.24657   0.83363   0.00000  Uiso   1.00
C1133  C     0.71373   0.25498   0.92655   0.00000  Uiso   1.00
C1134  C     0.77098   0.04121   0.75935   0.00000  Uiso   1.00
C1135  C     0.89568   0.29213   0.90732   0.00000  Uiso   1.00
C1136  C     0.76325   0.28778   0.76543   0.00000  Uiso   1.00
C1137  C     0.90342   0.04555   0.90124   0.00000  Uiso   1.00
C1138  C     0.73390   0.16572   0.82154   0.00000  Uiso   1.00
C1139  C     0.93277   0.16761   0.84513   0.00000  Uiso   1.00
C1140  C     0.67933   0.16048   0.81606   0.00000  Uiso   1.00
C1141  C     0.98733   0.17285   0.85061   0.00000  Uiso   1.00
C1142  C     0.80201   0.02045   0.79733   0.00000  Uiso   1.00
C1143  C     0.86465   0.31288   0.86933   0.00000  Uiso   1.00
C1144  C     0.80008   0.31090   0.79893   0.00000  Uiso   1.00
H1145  H     0.90884   0.19448   0.71881   0.00000  Uiso   1.00
H1146  H     0.97814   0.24889   0.87585   0.00000  Uiso   1.00
H1147  H     0.70590   0.24115   0.85470   0.00000  Uiso   1.00
H1148  H     0.69313   0.24902   0.95631   0.00000  Uiso   1.00
H1149  H     0.75360   0.24220   0.93372   0.00000  Uiso   1.00
H1150  H     0.71694   0.28901   0.92162   0.00000  Uiso   1.00
H1151  H     0.75783   0.13885   0.94786   0.00000  Uiso   1.00
H1152  H     0.90896   0.19412   0.96807   0.00000  Uiso   1.00
H1153  H     0.75771   0.13921   0.69860   0.00000  Uiso   1.00
H1154  H     0.96077   0.09218   0.81197   0.00000  Uiso   1.00
H1155  H     0.68852   0.08444   0.79081   0.00000  Uiso   1.00
H1156  H     0.97353   0.08429   0.71036   0.00000  Uiso   1.00
H1157  H     0.94968   0.04432   0.74507   0.00000  Uiso   1.00
H1158  H     0.91306   0.09115   0.73295   0.00000  Uiso   1.00
N1159  N     0.83332   0.16666   0.95240   0.00000  Uiso   1.00
N1160  N     0.83335   0.16668   0.71427   0.00000  Uiso   1.00
N1161  N     0.74660   0.05741   0.72872   0.00000  Uiso   1.00
N1162  N     0.92007   0.27593   0.93794   0.00000  Uiso   1.00
N1163  N     0.73395   0.26943   0.73883   0.00000  Uiso   1.00
N1164  N     0.93271   0.06390   0.92783   0.00000  Uiso   1.00
O1165  O     0.83333   0.10558   0.87154   0.00000  Uiso   1.00
O1166  O     0.67869   0.19157   0.89087   0.00000  Uiso   1.00
O1167  O     0.83334   0.22775   0.79513   0.00000  Uiso   1.00
O1168  O     0.83333   0.10559   0.79510   0.00000  Uiso   1.00
O1169  O     0.83334   0.22774   0.87157   0.00000  Uiso   1.00
O1170  O     0.75725   0.16666   0.86261   0.00000  Uiso   1.00
O1171  O     0.90942   0.16667   0.80405   0.00000  Uiso   1.00
O1172  O     0.75725   0.16667   0.78617   0.00000  Uiso   1.00
O1173  O     0.90942   0.16666   0.88050   0.00000  Uiso   1.00
O1174  O     0.98798   0.14176   0.77580   0.00000  Uiso   1.00
Zn1175 Zn    0.83333   0.16666   0.88437   0.00000  Uiso   1.00
Zn1176 Zn    0.83333   0.16667   0.78229   0.00000  Uiso   1.00
C1177  C     0.16683   0.42010   0.83303   0.00000  Uiso   1.00
C1178  C     0.19992   0.35577   0.86773   0.00000  Uiso   1.00
C1179  C     0.16564   0.62409   0.83427   0.00000  Uiso   1.00
C1180  C     0.16769   0.37591   0.83240   0.00000  Uiso   1.00
C1181  C     0.20862   0.51541   0.69625   0.00000  Uiso   1.00
C1182  C     0.12472   0.48459   0.97042   0.00000  Uiso   1.00
C1183  C     0.20864   0.51532   0.98165   0.00000  Uiso   1.00
C1184  C     0.12469   0.48468   0.68501   0.00000  Uiso   1.00
C1185  C     0.31617   0.43202   0.78310   0.00000  Uiso   1.00
C1186  C     0.28625   0.41168   0.74013   0.00000  Uiso   1.00
C1187  C     0.01715   0.56798   0.88356   0.00000  Uiso   1.00
C1188  C     0.16651   0.57990   0.83363   0.00000  Uiso   1.00
C1189  C     0.04706   0.58832   0.92655   0.00000  Uiso   1.00
C1190  C     0.10432   0.37454   0.75935   0.00000  Uiso   1.00
C1191  C     0.22902   0.62546   0.90732   0.00000  Uiso   1.00
C1192  C     0.09658   0.62111   0.76543   0.00000  Uiso   1.00
C1193  C     0.23675   0.37888   0.90124   0.00000  Uiso   1.00
C1194  C     0.06723   0.49906   0.82154   0.00000  Uiso   1.00
C1195  C     0.26610   0.50094   0.84513   0.00000  Uiso   1.00
C1196  C     0.01267   0.49382   0.81606   0.00000  Uiso   1.00
C1197  C     0.32066   0.50618   0.85061   0.00000  Uiso   1.00
C1198  C     0.13535   0.35378   0.79733   0.00000  Uiso   1.00
C1199  C     0.19799   0.64622   0.86933   0.00000  Uiso   1.00
C1200  C     0.13342   0.64423   0.79893   0.00000  Uiso   1.00
H1201  H     0.24217   0.52781   0.71881   0.00000  Uiso   1.00
H1202  H     0.31147   0.58222   0.87585   0.00000  Uiso   1.00
H1203  H     0.03923   0.57449   0.85470   0.00000  Uiso   1.00
H1204  H     0.02646   0.58236   0.95631   0.00000  Uiso   1.00
H1205  H     0.08693   0.57553   0.93372   0.00000  Uiso   1.00
H1206  H     0.05028   0.62234   0.92162   0.00000  Uiso   1.00
H1207  H     0.09116   0.47218   0.94786   0.00000  Uiso   1.00
H1208  H     0.24229   0.52745   0.96807   0.00000  Uiso   1.00
H1209  H     0.09104   0.47255   0.69860   0.00000  Uiso   1.00
H1210  H     0.29410   0.42551   0.81197   0.00000  Uiso   1.00
H1211  H     0.02185   0.41777   0.79081   0.00000  Uiso   1.00
H1212  H     0.30686   0.41762   0.71036   0.00000  Uiso   1.00
H1213  H     0.28301   0.37766   0.74507   0.00000  Uiso   1.00
H1214  H     0.24640   0.42448   0.73295   0.00000  Uiso   1.00
N1215  N     0.16665   0.49999   0.95240   0.00000  Uiso   1.00
N1216  N     0.16668   0.50001   0.71427   0.00000  Uiso   1.00
N1217  N     0.07993   0.39074   0.72872   0.00000  Uiso   1.00
N1218  N     0.25340   0.60926   0.93794   0.00000  Uiso   1.00
N1219  N     0.06729   0.60276   0.73883   0.00000  Uiso   1.00
N1220  N     0.26605   0.39724   0.92783   0.00000  Uiso   1.00
O1221  O     0.16666   0.43892   0.87154   0.00000  Uiso   1.00
O1222  O     0.01202   0.52490   0.89087   0.00000  Uiso   1.00
O1223  O     0.16667   0.56108   0.79513   0.00000  Uiso   1.00
O1224  O     0.16666   0.43893   0.79510   0.00000  Uiso   1.00
O1225  O     0.16667   0.56107   0.87157   0.00000  Uiso   1.00
O1226  O     0.09058   0.50000   0.86261   0.00000  Uiso   1.00
O1227  O     0.24275   0.50000   0.80405   0.00000  Uiso   1.00
O1228  O     0.09058   0.50000   0.78617   0.00000  Uiso   1.00
O1229  O     0.24275   0.50000   0.88050   0.00000  Uiso   1.00
O1230  O     0.32131   0.47510   0.77580   0.00000  Uiso   1.00
Zn1231 Zn    0.16667   0.49999   0.88437   0.00000  Uiso   1.00
Zn1232 Zn    0.16667   0.50001   0.78229   0.00000  Uiso   1.00
C1233  C     0.50016   0.42010   0.83303   0.00000  Uiso   1.00
C1234  C     0.53325   0.35577   0.86773   0.00000  Uiso   1.00
C1235  C     0.49898   0.62409   0.83427   0.00000  Uiso   1.00
C1236  C     0.50102   0.37591   0.83240   0.00000  Uiso   1.00
C1237  C     0.54195   0.51541   0.69625   0.00000  Uiso   1.00
C1238  C     0.45805   0.48459   0.97042   0.00000  Uiso   1.00
C1239  C     0.54197   0.51532   0.98165   0.00000  Uiso   1.00
C1240  C     0.45803   0.48468   0.68501   0.00000  Uiso   1.00
C1241  C     0.64951   0.43202   0.78310   0.00000  Uiso   1.00
C1242  C     0.61959   0.41168   0.74013   0.00000  Uiso   1.00
C1243  C     0.35049   0.56798   0.88356   0.00000  Uiso   1.00
C1244  C     0.49984   0.57990   0.83363   0.00000  Uiso   1.00
C1245  C     0.38039   0.58832   0.92655   0.00000  Uiso   1.00
C1246  C     0.43765   0.37454   0.75935   0.00000  Uiso   1.00
C1247  C     0.56235   0.62546   0.90732   0.00000  Uiso   1.00
C1248  C     0.42992   0.62111   0.76543   0.00000  Uiso   1.00
C1249  C     0.57008   0.37888   0.90124   0.00000  Uiso   1.00
C1250  C     0.40057   0.49906   0.82154   0.00000  Uiso   1.00
C1251  C     0.59943   0.50094   0.84513   0.00000  Uiso   1.00
C1252  C     0.34600   0.49382   0.81606   0.00000  Uiso   1.00
C1253  C     0.65400   0.50618   0.85061   0.00000  Uiso   1.00
C1254  C     0.46868   0.35378   0.79733   0.00000  Uiso   1.00
C1255  C     0.53132   0.64622   0.86933   0.00000  Uiso   1.00
C1256  C     0.46675   0.64423   0.79893   0.00000  Uiso   1.00
H1257  H     0.57550   0.52781   0.71881   0.00000  Uiso   1.00
H1258  H     0.64481   0.58222   0.87585   0.00000  Uiso   1.00
H1259  H     0.37256   0.57449   0.85470   0.00000  Uiso   1.00
H1260  H     0.35979   0.58236   0.95631   0.00000  Uiso   1.00
H1261  H     0.42026   0.57553   0.93372   0.00000  Uiso   1.00
H1262  H     0.38361   0.62234   0.92162   0.00000  Uiso   1.00
H1263  H     0.42450   0.47218   0.94786   0.00000  Uiso   1.00
H1264  H     0.57562   0.52745   0.96807   0.00000  Uiso   1.00
H1265  H     0.42438   0.47255   0.69860   0.00000  Uiso   1.00
H1266  H     0.62744   0.42551   0.81197   0.00000  Uiso   1.00
H1267  H     0.35518   0.41777   0.79081   0.00000  Uiso   1.00
H1268  H     0.64019   0.41762   0.71036   0.00000  Uiso   1.00
H1269  H     0.61635   0.37766   0.74507   0.00000  Uiso   1.00
H1270  H     0.57973   0.42448   0.73295   0.00000  Uiso   1.00
N1271  N     0.49999   0.49999   0.95240   0.00000  Uiso   1.00
N1272  N     0.50001   0.50001   0.71427   0.00000  Uiso   1.00
N1273  N     0.41327   0.39074   0.72872   0.00000  Uiso   1.00
N1274  N     0.58673   0.60926   0.93794   0.00000  Uiso   1.00
N1275  N     0.40062   0.60276   0.73883   0.00000  Uiso   1.00
N1276  N     0.59938   0.39724   0.92783   0.00000  Uiso   1.00
O1277  O     0.50000   0.43892   0.87154   0.00000  Uiso   1.00
O1278  O     0.34536   0.52490   0.89087   0.00000  Uiso   1.00
O1279  O     0.50000   0.56108   0.79513   0.00000  Uiso   1.00
O1280  O     0.50000   0.43893   0.79510   0.00000  Uiso   1.00
O1281  O     0.50000   0.56107   0.87157   0.00000  Uiso   1.00
O1282  O     0.42392   0.50000   0.86261   0.00000  Uiso   1.00
O1283  O     0.57608   0.50000   0.80405   0.00000  Uiso   1.00
O1284  O     0.42392   0.50000   0.78617   0.00000  Uiso   1.00
O1285  O     0.57608   0.50000   0.88050   0.00000  Uiso   1.00
O1286  O     0.65464   0.47510   0.77580   0.00000  Uiso   1.00
Zn1287 Zn    0.50000   0.49999   0.88437   0.00000  Uiso   1.00
Zn1288 Zn    0.50000   0.50001   0.78229   0.00000  Uiso   1.00
C1289  C     0.83349   0.42010   0.83303   0.00000  Uiso   1.00
C1290  C     0.86658   0.35577   0.86773   0.00000  Uiso   1.00
C1291  C     0.83231   0.62409   0.83427   0.00000  Uiso   1.00
C1292  C     0.83436   0.37591   0.83240   0.00000  Uiso   1.00
C1293  C     0.87528   0.51541   0.69625   0.00000  Uiso   1.00
C1294  C     0.79138   0.48459   0.97042   0.00000  Uiso   1.00
C1295  C     0.87531   0.51532   0.98165   0.00000  Uiso   1.00
C1296  C     0.79136   0.48468   0.68501   0.00000  Uiso   1.00
C1297  C     0.98284   0.43202   0.78310   0.00000  Uiso   1.00
C1298  C     0.95292   0.41168   0.74013   0.00000  Uiso   1.00
C1299  C     0.68382   0.56798   0.88356   0.00000  Uiso   1.00
C1300  C     0.83317   0.57990   0.83363   0.00000  Uiso   1.00
C1301  C     0.71373   0.58832   0.92655   0.00000  Uiso   1.00
C1302  C     0.77098   0.37454   0.75935   0.00000  Uiso   1.00
C1303  C     0.89568   0.62546   0.90732   0.00000  Uiso   1.00
C1304  C     0.76325   0.62111   0.76543   0.00000  Uiso   1.00
C1305  C     0.90342   0.37888   0.90124   0.00000  Uiso   1.00
C1306  C     0.73390   0.49906   0.82154   0.00000  Uiso   1.00
C1307  C     0.93277   0.50094   0.84513   0.00000  Uiso   1.00
C1308  C     0.67933   0.49382   0.81606   0.00000  Uiso   1.00
C1309  C     0.98733   0.50618   0.85061   0.00000  Uiso   1.00
C1310  C     0.80201   0.35378   0.79733   0.00000  Uiso   1.00
C1311  C     0.86465   0.64622   0.86933   0.00000  Uiso   1.00
C1312  C     0.80008   0.64423   0.79893   0.00000  Uiso   1.00
H1313  H     0.90884   0.52781   0.71881   0.00000  Uiso   1.00
H1314  H     0.97814   0.58222   0.87585   0.00000  Uiso   1.00
H1315  H     0.70590   0.57449   0.85470   0.00000  Uiso   1.00
H1316  H     0.69313   0.58236   0.95631   0.00000  Uiso   1.00
H1317  H     0.75360   0.57553   0.93372   0.00000  Uiso   1.00
H1318  H     0.71694   0.62234   0.92162   0.00000  Uiso   1.00
H1319  H     0.75783   0.47218   0.94786   0.00000  Uiso   1.00
H1320  H     0.90896   0.52745   0.96807   0.00000  Uiso   1.00
H1321  H     0.75771   0.47255   0.69860   0.00000  Uiso   1.00
H1322  H     0.96077   0.42551   0.81197   0.00000  Uiso   1.00
H1323  H     0.68852   0.41777   0.79081   0.00000  Uiso   1.00
H1324  H     0.97353   0.41762   0.71036   0.00000  Uiso   1.00
H1325  H     0.94968   0.37766   0.74507   0.00000  Uiso   1.00
H1326  H     0.91306   0.42448   0.73295   0.00000  Uiso   1.00
N1327  N     0.83332   0.49999   0.95240   0.00000  Uiso   1.00
N1328  N     0.83335   0.50001   0.71427   0.00000  Uiso   1.00
N1329  N     0.74660   0.39074   0.72872   0.00000  Uiso   1.00
N1330  N     0.92007   0.60926   0.93794   0.00000  Uiso   1.00
N1331  N     0.73395   0.60276   0.73883   0.00000  Uiso   1.00
N1332  N     0.93271   0.39724   0.92783   0.00000  Uiso   1.00
O1333  O     0.83333   0.43892   0.87154   0.00000  Uiso   1.00
O1334  O     0.67869   0.52490   0.89087   0.00000  Uiso   1.00
O1335  O     0.83334   0.56108   0.79513   0.00000  Uiso   1.00
O1336  O     0.83333   0.43893   0.79510   0.00000  Uiso   1.00
O1337  O     0.83334   0.56107   0.87157   0.00000  Uiso   1.00
O1338  O     0.75725   0.50000   0.86261   0.00000  Uiso   1.00
O1339  O     0.90942   0.50000   0.80405   0.00000  Uiso   1.00
O1340  O     0.75725   0.50000   0.78617   0.00000  Uiso   1.00
O1341  O     0.90942   0.50000   0.88050   0.00000  Uiso   1.00
O1342  O     0.98798   0.47510   0.77580   0.00000  Uiso   1.00
Zn1343 Zn    0.83333   0.49999   0.88437   0.00000  Uiso   1.00
Zn1344 Zn    0.83333   0.50001   0.78229   0.00000  Uiso   1.00
C1345  C     0.16683   0.75343   0.83303   0.00000  Uiso   1.00
C1346  C     0.19992   0.68910   0.86773   0.00000  Uiso   1.00
C1347  C     0.16564   0.95742   0.83427   0.00000  Uiso   1.00
C1348  C     0.16769   0.70925   0.83240   0.00000  Uiso   1.00
C1349  C     0.20862   0.84874   0.69625   0.00000  Uiso   1.00
C1350  C     0.12472   0.81793   0.97042   0.00000  Uiso   1.00
C1351  C     0.20864   0.84865   0.98165   0.00000  Uiso   1.00
C1352  C     0.12469   0.81802   0.68501   0.00000  Uiso   1.00
C1353  C     0.31617   0.76535   0.78310   0.00000  Uiso   1.00
C1354  C     0.28625   0.74501   0.74013   0.00000  Uiso   1.00
C1355  C     0.01715   0.90131   0.88356   0.00000  Uiso   1.00
C1356  C     0.16651   0.91324   0.83363   0.00000  Uiso   1.00
C1357  C     0.04706   0.92165   0.92655   0.00000  Uiso   1.00
C1358  C     0.10432   0.70787   0.75935   0.00000  Uiso   1.00
C1359  C     0.22902   0.95879   0.90732   0.00000  Uiso   1.00
C1360  C     0.09658   0.95445   0.76543   0.00000  Uiso   1.00
C1361  C     0.23675   0.71222   0.90124   0.00000  Uiso   1.00
C1362  C     0.06723   0.83239   0.82154   0.00000  Uiso   1.00
C1363  C     0.26610   0.83428   0.84513   0.00000  Uiso   1.00
C1364  C     0.01267   0.82715   0.81606   0.00000  Uiso   1.00
C1365  C     0.32066   0.83951   0.85061   0.00000  Uiso   1.00
C1366  C     0.13535   0.68712   0.79733   0.00000  Uiso   1.00
C1367  C     0.19799   0.97955   0.86933   0.00000  Uiso   1.00
C1368  C     0.13342   0.97756   0.79893   0.00000  Uiso   1.00
H1369  H     0.24217   0.86115   0.71881   0.00000  Uiso   1.00
H1370  H     0.31147   0.91556   0.87585   0.00000  Uiso   1.00
H1371  H     0.03923   0.90782   0.85470   0.00000  Uiso   1.00
H1372  H     0.02646   0.91569   0.95631   0.00000  Uiso   1.00
H1373  H     0.08693   0.90887   0.93372   0.00000  Uiso   1.00
H1374  H     0.05028   0.95567   0.92162   0.00000  Uiso   1.00
H1375  H     0.09116   0.80552   0.94786   0.00000  Uiso   1.00
H1376  H     0.24229   0.86079   0.96807   0.00000  Uiso   1.00
H1377  H     0.09104   0.80588   0.69860   0.00000  Uiso   1.00
H1378  H     0.29410   0.75885   0.81197   0.00000  Uiso   1.00
H1379  H     0.02185   0.75110   0.79081   0.00000  Uiso   1.00
H1380  H     0.30686   0.75095   0.71036   0.00000  Uiso   1.00
H1381  H     0.28301   0.71099   0.74507   0.00000  Uiso   1.00
H1382  H     0.24640   0.75782   0.73295   0.00000  Uiso   1.00
N1383  N     0.16665   0.83332   0.95240   0.00000  Uiso   1.00
N1384  N     0.16668   0.83334   0.71427   0.00000  Uiso   1.00
N1385  N     0.07993   0.72407   0.72872   0.00000  Uiso   1.00
N1386  N     0.25340   0.94259   0.93794   0.00000  Uiso   1.00
N1387  N     0.06729   0.93610   0.73883   0.00000  Uiso   1.00
N1388  N     0.26605   0.73057   0.92783   0.00000  Uiso   1.00
O1389  O     0.16666   0.77225   0.87154   0.00000  Uiso   1.00
O1390  O     0.01202   0.85823   0.89087   0.00000  Uiso   1.00
O1391  O     0.16667   0.89442   0.79513   0.00000  Uiso   1.00
O1392  O     0.16666   0.77226   0.79510   0.00000  Uiso   1.00
O1393  O     0.16667   0.89441   0.87157   0.00000  Uiso   1.00
O1394  O     0.09058   0.83333   0.86261   0.00000  Uiso   1.00
O1395  O     0.24275   0.83334   0.80405   0.00000  Uiso   1.00
O1396  O     0.09058   0.83334   0.78617   0.00000  Uiso   1.00
O1397  O     0.24275   0.83333   0.88050   0.00000  Uiso   1.00
O1398  O     0.32131   0.80843   0.77580   0.00000  Uiso   1.00
Zn1399 Zn    0.16667   0.83333   0.88437   0.00000  Uiso   1.00
Zn1400 Zn    0.16667   0.83334   0.78229   0.00000  Uiso   1.00
C1401  C     0.50016   0.75343   0.83303   0.00000  Uiso   1.00
C1402  C     0.53325   0.68910   0.86773   0.00000  Uiso   1.00
C1403  C     0.49898   0.95742   0.83427   0.00000  Uiso   1.00
C1404  C     0.50102   0.70925   0.83240   0.00000  Uiso   1.00
C1405  C     0.54195   0.84874   0.69625   0.00000  Uiso   1.00
C1406  C     0.45805   0.81793   0.97042   0.00000  Uiso   1.00
C1407  C     0.54197   0.84865   0.98165   0.00000  Uiso   1.00
C1408  C     0.45803   0.81802   0.68501   0.00000  Uiso   1.00
C1409  C     0.64951   0.76535   0.78310   0.00000  Uiso   1.00
C1410  C     0.61959   0.74501   0.74013   0.00000  Uiso   1.00
C1411  C     0.35049   0.90131   0.88356   0.00000  Uiso   1.00
C1412  C     0.49984   0.91324   0.83363   0.00000  Uiso   1.00
C1413  C     0.38039   0.92165   0.92655   0.00000  Uiso   1.00
C1414  C     0.43765   0.70787   0.75935   0.00000  Uiso   1.00
C1415  C     0.56235   0.95879   0.90732   0.00000  Uiso   1.00
C1416  C     0.42992   0.95445   0.76543   0.00000  Uiso   1.00
C1417  C     0.57008   0.71222   0.90124   0.00000  Uiso   1.00
C1418  C     0.40057   0.83239   0.82154   0.00000  Uiso   1.00
C1419  C     0.59943   0.83428   0.84513   0.00000  Uiso   1.00
C1420  C     0.34600   0.82715   0.81606   0.00000  Uiso   1.00
C1421  C     0.65400   0.83951   0.85061   0.00000  Uiso   1.00
C1422  C     0.46868   0.68712   0.79733   0.00000  Uiso   1.00
C1423  C     0.53132   0.97955   0.86933   0.00000  Uiso   1.00
C1424  C     0.46675   0.97756   0.79893   0.00000  Uiso   1.00
H1425  H     0.57550   0.86115   0.71881   0.00000  Uiso   1.00
H1426  H     0.64481   0.91556   0.87585   0.00000  Uiso   1.00
H1427  H     0.37256   0.90782   0.85470   0.00000  Uiso   1.00
H1428  H     0.35979   0.91569   0.95631   0.00000  Uiso   1.00
H1429  H     0.42026   0.90887   0.93372   0.00000  Uiso   1.00
H1430  H     0.38361   0.95567   0.92162   0.00000  Uiso   1.00
H1431  H     0.42450   0.80552   0.94786   0.00000  Uiso   1.00
H1432  H     0.57562   0.86079   0.96807   0.00000  Uiso   1.00
H1433  H     0.42438   0.80588   0.69860   0.00000  Uiso   1.00
H1434  H     0.62744   0.75885   0.81197   0.00000  Uiso   1.00
H1435  H     0.35518   0.75110   0.79081   0.00000  Uiso   1.00
H1436  H     0.64019   0.75095   0.71036   0.00000  Uiso   1.00
H1437  H     0.61635   0.71099   0.74507   0.00000  Uiso   1.00
H1438  H     0.57973   0.75782   0.73295   0.00000  Uiso   1.00
N1439  N     0.49999   0.83332   0.95240   0.00000  Uiso   1.00
N1440  N     0.50001   0.83334   0.71427   0.00000  Uiso   1.00
N1441  N     0.41327   0.72407   0.72872   0.00000  Uiso   1.00
N1442  N     0.58673   0.94259   0.93794   0.00000  Uiso   1.00
N1443  N     0.40062   0.93610   0.73883   0.00000  Uiso   1.00
N1444  N     0.59938   0.73057   0.92783   0.00000  Uiso   1.00
O1445  O     0.50000   0.77225   0.87154   0.00000  Uiso   1.00
O1446  O     0.34536   0.85823   0.89087   0.00000  Uiso   1.00
O1447  O     0.50000   0.89442   0.79513   0.00000  Uiso   1.00
O1448  O     0.50000   0.77226   0.79510   0.00000  Uiso   1.00
O1449  O     0.50000   0.89441   0.87157   0.00000  Uiso   1.00
O1450  O     0.42392   0.83333   0.86261   0.00000  Uiso   1.00
O1451  O     0.57608   0.83334   0.80405   0.00000  Uiso   1.00
O1452  O     0.42392   0.83334   0.78617   0.00000  Uiso   1.00
O1453  O     0.57608   0.83333   0.88050   0.00000  Uiso   1.00
O1454  O     0.65464   0.80843   0.77580   0.00000  Uiso   1.00
Zn1455 Zn    0.50000   0.83333   0.88437   0.00000  Uiso   1.00
Zn1456 Zn    0.50000   0.83334   0.78229   0.00000  Uiso   1.00
C1457  C     0.83349   0.75343   0.83303   0.00000  Uiso   1.00
C1458  C     0.86658   0.68910   0.86773   0.00000  Uiso   1.00
C1459  C     0.83231   0.95742   0.83427   0.00000  Uiso   1.00
C1460  C     0.83436   0.70925   0.83240   0.00000  Uiso   1.00
C1461  C     0.87528   0.84874   0.69625   0.00000  Uiso   1.00
C1462  C     0.79138   0.81793   0.97042   0.00000  Uiso   1.00
C1463  C     0.87531   0.84865   0.98165   0.00000  Uiso   1.00
C1464  C     0.79136   0.81802   0.68501   0.00000  Uiso   1.00
C1465  C     0.98284   0.76535   0.78310   0.00000  Uiso   1.00
C1466  C     0.95292   0.74501   0.74013   0.00000  Uiso   1.00
C1467  C     0.68382   0.90131   0.88356   0.00000  Uiso   1.00
C1468  C     0.83317   0.91324   0.83363   0.00000  Uiso   1.00
C1469  C     0.71373   0.92165   0.92655   0.00000  Uiso   1.00
C1470  C     0.77098   0.70787   0.75935   0.00000  Uiso   1.00
C1471  C     0.89568   0.95879   0.90732   0.00000  Uiso   1.00
C1472  C     0.76325   0.95445   0.76543   0.00000  Uiso   1.00
C1473  C     0.90342   0.71222   0.90124   0.00000  Uiso   1.00
C1474  C     0.73390   0.83239   0.82154   0.00000  Uiso   1.00
C1475  C     0.93277   0.83428   0.84513   0.00000  Uiso   1.00
C1476  C     0.67933   0.82715   0.81606   0.00000  Uiso   1.00
C1477  C     0.98733   0.83951   0.85061   0.00000  Uiso   1.00
C1478  C     0.80201   0.68712   0.79733   0.00000  Uiso   1.00
C1479  C     0.86465   0.97955   0.86933   0.00000  Uiso   1.00
C1480  C     0.80008   0.97756   0.79893   0.00000  Uiso   1.00
H1481  H     0.90884   0.86115   0.71881   0.00000  Uiso   1.00
H1482  H     0.97814   0.91556   0.87585   0.00000  Uiso   1.00
H1483  H     0.70590   0.90782   0.85470   0.00000  Uiso   1.00
H1484  H     0.69313   0.91569   0.95631   0.00000  Uiso   1.00
H1485  H     0.75360   0.90887   0.93372   0.00000  Uiso   1.00
H1486  H     0.71694   0.95567   0.92162   0.00000  Uiso   1.00
H1487  H     0.75783   0.80552   0.94786   0.00000  Uiso   1.00
H1488  H     0.90896   0.86079   0.96807   0.00000  Uiso   1.00
H1489  H     0.75771   0.80588   0.69860   0.00000  Uiso   1.00
H1490  H     0.96077   0.75885   0.81197   0.00000  Uiso   1.00
H1491  H     0.68852   0.75110   0.79081   0.00000  Uiso   1.00
H1492  H     0.97353   0.75095   0.71036   0.00000  Uiso   1.00
H1493  H     0.94968   0.71099   0.74507   0.00000  Uiso   1.00
H1494  H     0.91306   0.75782   0.73295   0.00000  Uiso   1.00
N1495  N     0.83332   0.83332   0.95240   0.00000  Uiso   1.00
N1496  N     0.83335   0.83334   0.71427   0.00000  Uiso   1.00
N1497  N     0.74660   0.72407   0.72872   0.00000  Uiso   1.00
N1498  N     0.92007   0.94259   0.93794   0.00000  Uiso   1.00
N1499  N     0.73395   0.93610   0.73883   0.00000  Uiso   1.00
N1500  N     0.93271   0.73057   0.92783   0.00000  Uiso   1.00
O1501  O     0.83333   0.77225   0.87154   0.00000  Uiso   1.00
O1502  O     0.67869   0.85823   0.89087   0.00000  Uiso   1.00
O1503  O     0.83334   0.89442   0.79513   0.00000  Uiso   1.00
O1504  O     0.83333   0.77226   0.79510   0.00000  Uiso   1.00
O1505  O     0.83334   0.89441   0.87157   0.00000  Uiso   1.00
O1506  O     0.75725   0.83333   0.86261   0.00000  Uiso   1.00
O1507  O     0.90942   0.83334   0.80405   0.00000  Uiso   1.00
O1508  O     0.75725   0.83334   0.78617   0.00000  Uiso   1.00
O1509  O     0.90942   0.83333   0.88050   0.00000  Uiso   1.00
O1510  O     0.98798   0.80843   0.77580   0.00000  Uiso   1.00
Zn1511 Zn    0.83333   0.83333   0.88437   0.00000  Uiso   1.00
Zn1512 Zn    0.83333   0.83334   0.78229   0.00000  Uiso   1.00
loop_
_geom_bond_atom_site_label_1
_geom_bond_atom_site_label_2
_geom_bond_distance
_geom_bond_site_symmetry_2
_ccdc_geom_bond_type
C1     C4      1.425   .     S
C1     O45     1.285   .     A
C1     O48     1.278   .     A
C2     C4      1.407   .     A
C2     C17     1.457   .     S
C2     C359    1.384   1_545 S
C3     C23     1.410   .     A
C3     C24     1.407   .     A
C3     C12     1.425   .     S
C4     C22     1.410   .     A
C5     H25     1.081   .     S
C5     N40     1.366   .     A
C5     C1015   1.415   1_554 S
C6     H31     1.081   .     S
C6     N39     1.366   .     A
C6     C512    1.415   .     S
C7     H32     1.081   .     S
C7     N39     1.366   .     A
C7     C509    1.415   .     S
C8     H33     1.081   .     S
C8     N40     1.366   .     A
C8     C1014   1.415   1_554 S
C9     C10     1.521   .     S
C9     H34     1.114   .     S
C9     O54     1.414   .     S
C9     H91     1.111   .     S
C10    H38     1.111   .     S
C10    H36     1.110   .     S
C10    H37     1.111   .     S
C11    H27     1.114   .     S
C11    C13     1.521   .     S
C11    O46     1.414   .     S
C11    H138    1.111   1_455 S
C12    O49     1.278   .     A
C12    O47     1.285   .     A
C13    H28     1.110   .     S
C13    H29     1.111   .     S
C13    H30     1.111   .     S
C14    C22     1.454   .     S
C14    N41     1.157   .     T
C15    C23     1.454   .     S
C15    N42     1.157   .     T
C16    C24     1.457   .     S
C16    N43     1.158   .     T
C17    N44     1.158   .     T
C18    O52     1.283   .     A
C18    C20     1.406   .     S
C18    O50     1.272   .     A
C19    O53     1.283   .     A
C19    C21     1.406   .     S
C19    O51     1.272   .     A
C20    C133    1.354   1_455 S
C20    O166    1.390   1_455 S
C21    C76     1.354   .     S
C21    O102    1.390   .     S
C22    C360    1.384   1_545 S
C23    C170    1.384   .     S
C24    C190    1.384   .     S
H26    C67     1.111   .     S
H35    C121    1.111   1_455 S
N39    Zn55    2.008   .     S
N40    Zn56    2.008   .     S
O45    Zn55    2.001   .     S
O46    C133    1.390   1_455 S
O47    Zn56    2.001   .     S
O48    Zn56    2.007   .     S
O49    Zn55    2.007   .     S
O50    Zn55    1.980   .     S
O51    Zn56    1.980   .     S
O52    Zn56    1.992   .     S
O53    Zn55    1.992   .     S
O54    C76     1.390   .     S
C57    C60     1.425   .     S
C57    O101    1.285   .     A
C57    O104    1.278   .     A
C58    C60     1.407   .     A
C58    C73     1.457   .     S
C58    C415    1.384   1_545 S
C59    C79     1.410   .     A
C59    C80     1.407   .     A
C59    C68     1.425   .     S
C60    C78     1.410   .     A
C61    H81     1.081   .     S
C61    N96     1.366   .     A
C61    C1071   1.415   1_554 S
C62    H87     1.081   .     S
C62    N95     1.366   .     A
C62    C568    1.415   .     S
C63    H88     1.081   .     S
C63    N95     1.366   .     A
C63    C565    1.415   .     S
C64    H89     1.081   .     S
C64    N96     1.366   .     A
C64    C1070   1.415   1_554 S
C65    C66     1.521   .     S
C65    H90     1.114   .     S
C65    O110    1.414   .     S
C65    H147    1.111   .     S
C66    H94     1.111   .     S
C66    H92     1.110   .     S
C66    H93     1.111   .     S
C67    H83     1.114   .     S
C67    C69     1.521   .     S
C67    O102    1.414   .     S
C68    O105    1.278   .     A
C68    O103    1.285   .     A
C69    H84     1.110   .     S
C69    H85     1.111   .     S
C69    H86     1.111   .     S
C70    C78     1.454   .     S
C70    N97     1.157   .     T
C71    C79     1.454   .     S
C71    N98     1.157   .     T
C72    C80     1.457   .     S
C72    N99     1.158   .     T
C73    N100    1.158   .     T
C74    O108    1.283   .     A
C74    C76     1.406   .     S
C74    O106    1.272   .     A
C75    O109    1.283   .     A
C75    C77     1.406   .     S
C75    O107    1.272   .     A
C77    C132    1.354   .     S
C77    O158    1.390   .     S
C78    C416    1.384   1_545 S
C79    C226    1.384   .     S
C80    C246    1.384   .     S
H82    C123    1.111   .     S
N95    Zn111   2.008   .     S
N96    Zn112   2.008   .     S
O101   Zn111   2.001   .     S
O103   Zn112   2.001   .     S
O104   Zn112   2.007   .     S
O105   Zn111   2.007   .     S
O106   Zn111   1.980   .     S
O107   Zn112   1.980   .     S
O108   Zn112   1.992   .     S
O109   Zn111   1.992   .     S
O110   C132    1.390   .     S
C113   C116    1.425   .     S
C113   O157    1.285   .     A
C113   O160    1.278   .     A
C114   C116    1.407   .     A
C114   C129    1.457   .     S
C114   C471    1.384   1_545 S
C115   C135    1.410   .     A
C115   C136    1.407   .     A
C115   C124    1.425   .     S
C116   C134    1.410   .     A
C117   H137    1.081   .     S
C117   N152    1.366   .     A
C117   C1127   1.415   1_554 S
C118   H143    1.081   .     S
C118   N151    1.366   .     A
C118   C624    1.415   .     S
C119   H144    1.081   .     S
C119   N151    1.366   .     A
C119   C621    1.415   .     S
C120   H145    1.081   .     S
C120   N152    1.366   .     A
C120   C1126   1.415   1_554 S
C121   C122    1.521   .     S
C121   H146    1.114   .     S
C121   O166    1.414   .     S
C121   H35     1.111   1_655 S
C122   H150    1.111   .     S
C122   H148    1.110   .     S
C122   H149    1.111   .     S
C123   H139    1.114   .     S
C123   C125    1.521   .     S
C123   O158    1.414   .     S
C124   O161    1.278   .     A
C124   O159    1.285   .     A
C125   H140    1.110   .     S
C125   H141    1.111   .     S
C125   H142    1.111   .     S
C126   C134    1.454   .     S
C126   N153    1.157   .     T
C127   C135    1.454   .     S
C127   N154    1.157   .     T
C128   C136    1.457   .     S
C128   N155    1.158   .     T
C129   N156    1.158   .     T
C130   O164    1.283   .     A
C130   C132    1.406   .     S
C130   O162    1.272   .     A
C131   O165    1.283   .     A
C131   C133    1.406   .     S
C131   O163    1.272   .     A
C133   C20     1.354   1_655 S
C133   O46     1.390   1_655 S
C134   C472    1.384   1_545 S
C135   C282    1.384   .     S
C136   C302    1.384   .     S
H138   C11     1.111   1_655 S
N151   Zn167   2.008   .     S
N152   Zn168   2.008   .     S
O157   Zn167   2.001   .     S
O159   Zn168   2.001   .     S
O160   Zn168   2.007   .     S
O161   Zn167   2.007   .     S
O162   Zn167   1.980   .     S
O163   Zn168   1.980   .     S
O164   Zn168   1.992   .     S
O165   Zn167   1.992   .     S
O166   C20     1.390   1_655 S
C169   C172    1.425   .     S
C169   O213    1.285   .     A
C169   O216    1.278   .     A
C170   C172    1.407   .     A
C170   C185    1.457   .     S
C171   C191    1.410   .     A
C171   C192    1.407   .     A
C171   C180    1.425   .     S
C172   C190    1.410   .     A
C173   H193    1.081   .     S
C173   N208    1.366   .     A
C173   C1183   1.415   1_554 S
C174   H199    1.081   .     S
C174   N207    1.366   .     A
C174   C680    1.415   .     S
C175   H200    1.081   .     S
C175   N207    1.366   .     A
C175   C677    1.415   .     S
C176   H201    1.081   .     S
C176   N208    1.366   .     A
C176   C1182   1.415   1_554 S
C177   C178    1.521   .     S
C177   H202    1.114   .     S
C177   O222    1.414   .     S
C177   H259    1.111   .     S
C178   H206    1.111   .     S
C178   H204    1.110   .     S
C178   H205    1.111   .     S
C179   H195    1.114   .     S
C179   C181    1.521   .     S
C179   O214    1.414   .     S
C179   H306    1.111   1_455 S
C180   O217    1.278   .     A
C180   O215    1.285   .     A
C181   H196    1.110   .     S
C181   H197    1.111   .     S
C181   H198    1.111   .     S
C182   C190    1.454   .     S
C182   N209    1.157   .     T
C183   C191    1.454   .     S
C183   N210    1.157   .     T
C184   C192    1.457   .     S
C184   N211    1.158   .     T
C185   N212    1.158   .     T
C186   O220    1.283   .     A
C186   C188    1.406   .     S
C186   O218    1.272   .     A
C187   O221    1.283   .     A
C187   C189    1.406   .     S
C187   O219    1.272   .     A
C188   C301    1.354   1_455 S
C188   O334    1.390   1_455 S
C189   C244    1.354   .     S
C189   O270    1.390   .     S
C191   C338    1.384   .     S
C192   C358    1.384   .     S
H194   C235    1.111   .     S
H203   C289    1.111   1_455 S
N207   Zn223   2.008   .     S
N208   Zn224   2.008   .     S
O213   Zn223   2.001   .     S
O214   C301    1.390   1_455 S
O215   Zn224   2.001   .     S
O216   Zn224   2.007   .     S
O217   Zn223   2.007   .     S
O218   Zn223   1.980   .     S
O219   Zn224   1.980   .     S
O220   Zn224   1.992   .     S
O221   Zn223   1.992   .     S
O222   C244    1.390   .     S
C225   C228    1.425   .     S
C225   O269    1.285   .     A
C225   O272    1.278   .     A
C226   C228    1.407   .     A
C226   C241    1.457   .     S
C227   C247    1.410   .     A
C227   C248    1.407   .     A
C227   C236    1.425   .     S
C228   C246    1.410   .     A
C229   H249    1.081   .     S
C229   N264    1.366   .     A
C229   C1239   1.415   1_554 S
C230   H255    1.081   .     S
C230   N263    1.366   .     A
C230   C736    1.415   .     S
C231   H256    1.081   .     S
C231   N263    1.366   .     A
C231   C733    1.415   .     S
C232   H257    1.081   .     S
C232   N264    1.366   .     A
C232   C1238   1.415   1_554 S
C233   C234    1.521   .     S
C233   H258    1.114   .     S
C233   O278    1.414   .     S
C233   H315    1.111   .     S
C234   H262    1.111   .     S
C234   H260    1.110   .     S
C234   H261    1.111   .     S
C235   H251    1.114   .     S
C235   C237    1.521   .     S
C235   O270    1.414   .     S
C236   O273    1.278   .     A
C236   O271    1.285   .     A
C237   H252    1.110   .     S
C237   H253    1.111   .     S
C237   H254    1.111   .     S
C238   C246    1.454   .     S
C238   N265    1.157   .     T
C239   C247    1.454   .     S
C239   N266    1.157   .     T
C240   C248    1.457   .     S
C240   N267    1.158   .     T
C241   N268    1.158   .     T
C242   O276    1.283   .     A
C242   C244    1.406   .     S
C242   O274    1.272   .     A
C243   O277    1.283   .     A
C243   C245    1.406   .     S
C243   O275    1.272   .     A
C245   C300    1.354   .     S
C245   O326    1.390   .     S
C247   C394    1.384   .     S
C248   C414    1.384   .     S
H250   C291    1.111   .     S
N263   Zn279   2.008   .     S
N264   Zn280   2.008   .     S
O269   Zn279   2.001   .     S
O271   Zn280   2.001   .     S
O272   Zn280   2.007   .     S
O273   Zn279   2.007   .     S
O274   Zn279   1.980   .     S
O275   Zn280   1.980   .     S
O276   Zn280   1.992   .     S
O277   Zn279   1.992   .     S
O278   C300    1.390   .     S
C281   C284    1.425   .     S
C281   O325    1.285   .     A
C281   O328    1.278   .     A
C282   C284    1.407   .     A
C282   C297    1.457   .     S
C283   C303    1.410   .     A
C283   C304    1.407   .     A
C283   C292    1.425   .     S
C284   C302    1.410   .     A
C285   H305    1.081   .     S
C285   N320    1.366   .     A
C285   C1295   1.415   1_554 S
C286   H311    1.081   .     S
C286   N319    1.366   .     A
C286   C792    1.415   .     S
C287   H312    1.081   .     S
C287   N319    1.366   .     A
C287   C789    1.415   .     S
C288   H313    1.081   .     S
C288   N320    1.366   .     A
C288   C1294   1.415   1_554 S
C289   C290    1.521   .     S
C289   H314    1.114   .     S
C289   O334    1.414   .     S
C289   H203    1.111   1_655 S
C290   H318    1.111   .     S
C290   H316    1.110   .     S
C290   H317    1.111   .     S
C291   H307    1.114   .     S
C291   C293    1.521   .     S
C291   O326    1.414   .     S
C292   O329    1.278   .     A
C292   O327    1.285   .     A
C293   H308    1.110   .     S
C293   H309    1.111   .     S
C293   H310    1.111   .     S
C294   C302    1.454   .     S
C294   N321    1.157   .     T
C295   C303    1.454   .     S
C295   N322    1.157   .     T
C296   C304    1.457   .     S
C296   N323    1.158   .     T
C297   N324    1.158   .     T
C298   O332    1.283   .     A
C298   C300    1.406   .     S
C298   O330    1.272   .     A
C299   O333    1.283   .     A
C299   C301    1.406   .     S
C299   O331    1.272   .     A
C301   C188    1.354   1_655 S
C301   O214    1.390   1_655 S
C303   C450    1.384   .     S
C304   C470    1.384   .     S
H306   C179    1.111   1_655 S
N319   Zn335   2.008   .     S
N320   Zn336   2.008   .     S
O325   Zn335   2.001   .     S
O327   Zn336   2.001   .     S
O328   Zn336   2.007   .     S
O329   Zn335   2.007   .     S
O330   Zn335   1.980   .     S
O331   Zn336   1.980   .     S
O332   Zn336   1.992   .     S
O333   Zn335   1.992   .     S
O334   C188    1.390   1_655 S
C337   C340    1.425   .     S
C337   O381    1.285   .     A
C337   O384    1.278   .     A
C338   C340    1.407   .     A
C338   C353    1.457   .     S
C339   C359    1.410   .     A
C339   C360    1.407   .     A
C339   C348    1.425   .     S
C340   C358    1.410   .     A
C341   H361    1.081   .     S
C341   N376    1.366   .     A
C341   C1351   1.415   1_554 S
C342   H367    1.081   .     S
C342   N375    1.366   .     A
C342   C848    1.415   .     S
C343   H368    1.081   .     S
C343   N375    1.366   .     A
C343   C845    1.415   .     S
C344   H369    1.081   .     S
C344   N376    1.366   .     A
C344   C1350   1.415   1_554 S
C345   C346    1.521   .     S
C345   H370    1.114   .     S
C345   O390    1.414   .     S
C345   H427    1.111   .     S
C346   H374    1.111   .     S
C346   H372    1.110   .     S
C346   H373    1.111   .     S
C347   H363    1.114   .     S
C347   C349    1.521   .     S
C347   O382    1.414   .     S
C347   H474    1.111   1_455 S
C348   O385    1.278   .     A
C348   O383    1.285   .     A
C349   H364    1.110   .     S
C349   H365    1.111   .     S
C349   H366    1.111   .     S
C350   C358    1.454   .     S
C350   N377    1.157   .     T
C351   C359    1.454   .     S
C351   N378    1.157   .     T
C352   C360    1.457   .     S
C352   N379    1.158   .     T
C353   N380    1.158   .     T
C354   O388    1.283   .     A
C354   C356    1.406   .     S
C354   O386    1.272   .     A
C355   O389    1.283   .     A
C355   C357    1.406   .     S
C355   O387    1.272   .     A
C356   C469    1.354   1_455 S
C356   O502    1.390   1_455 S
C357   C412    1.354   .     S
C357   O438    1.390   .     S
C359   C2      1.384   1_565 S
C360   C22     1.384   1_565 S
H362   C403    1.111   .     S
H371   C457    1.111   1_455 S
N375   Zn391   2.008   .     S
N376   Zn392   2.008   .     S
O381   Zn391   2.001   .     S
O382   C469    1.390   1_455 S
O383   Zn392   2.001   .     S
O384   Zn392   2.007   .     S
O385   Zn391   2.007   .     S
O386   Zn391   1.980   .     S
O387   Zn392   1.980   .     S
O388   Zn392   1.992   .     S
O389   Zn391   1.992   .     S
O390   C412    1.390   .     S
C393   C396    1.425   .     S
C393   O437    1.285   .     A
C393   O440    1.278   .     A
C394   C396    1.407   .     A
C394   C409    1.457   .     S
C395   C415    1.410   .     A
C395   C416    1.407   .     A
C395   C404    1.425   .     S
C396   C414    1.410   .     A
C397   H417    1.081   .     S
C397   N432    1.366   .     A
C397   C1407   1.415   1_554 S
C398   H423    1.081   .     S
C398   N431    1.366   .     A
C398   C904    1.415   .     S
C399   H424    1.081   .     S
C399   N431    1.366   .     A
C399   C901    1.415   .     S
C400   H425    1.081   .     S
C400   N432    1.366   .     A
C400   C1406   1.415   1_554 S
C401   C402    1.521   .     S
C401   H426    1.114   .     S
C401   O446    1.414   .     S
C401   H483    1.111   .     S
C402   H430    1.111   .     S
C402   H428    1.110   .     S
C402   H429    1.111   .     S
C403   H419    1.114   .     S
C403   C405    1.521   .     S
C403   O438    1.414   .     S
C404   O441    1.278   .     A
C404   O439    1.285   .     A
C405   H420    1.110   .     S
C405   H421    1.111   .     S
C405   H422    1.111   .     S
C406   C414    1.454   .     S
C406   N433    1.157   .     T
C407   C415    1.454   .     S
C407   N434    1.157   .     T
C408   C416    1.457   .     S
C408   N435    1.158   .     T
C409   N436    1.158   .     T
C410   O444    1.283   .     A
C410   C412    1.406   .     S
C410   O442    1.272   .     A
C411   O445    1.283   .     A
C411   C413    1.406   .     S
C411   O443    1.272   .     A
C413   C468    1.354   .     S
C413   O494    1.390   .     S
C415   C58     1.384   1_565 S
C416   C78     1.384   1_565 S
H418   C459    1.111   .     S
N431   Zn447   2.008   .     S
N432   Zn448   2.008   .     S
O437   Zn447   2.001   .     S
O439   Zn448   2.001   .     S
O440   Zn448   2.007   .     S
O441   Zn447   2.007   .     S
O442   Zn447   1.980   .     S
O443   Zn448   1.980   .     S
O444   Zn448   1.992   .     S
O445   Zn447   1.992   .     S
O446   C468    1.390   .     S
C449   C452    1.425   .     S
C449   O493    1.285   .     A
C449   O496    1.278   .     A
C450   C452    1.407   .     A
C450   C465    1.457   .     S
C451   C471    1.410   .     A
C451   C472    1.407   .     A
C451   C460    1.425   .     S
C452   C470    1.410   .     A
C453   H473    1.081   .     S
C453   N488    1.366   .     A
C453   C1463   1.415   1_554 S
C454   H479    1.081   .     S
C454   N487    1.366   .     A
C454   C960    1.415   .     S
C455   H480    1.081   .     S
C455   N487    1.366   .     A
C455   C957    1.415   .     S
C456   H481    1.081   .     S
C456   N488    1.366   .     A
C456   C1462   1.415   1_554 S
C457   C458    1.521   .     S
C457   H482    1.114   .     S
C457   O502    1.414   .     S
C457   H371    1.111   1_655 S
C458   H486    1.111   .     S
C458   H484    1.110   .     S
C458   H485    1.111   .     S
C459   H475    1.114   .     S
C459   C461    1.521   .     S
C459   O494    1.414   .     S
C460   O497    1.278   .     A
C460   O495    1.285   .     A
C461   H476    1.110   .     S
C461   H477    1.111   .     S
C461   H478    1.111   .     S
C462   C470    1.454   .     S
C462   N489    1.157   .     T
C463   C471    1.454   .     S
C463   N490    1.157   .     T
C464   C472    1.457   .     S
C464   N491    1.158   .     T
C465   N492    1.158   .     T
C466   O500    1.283   .     A
C466   C468    1.406   .     S
C466   O498    1.272   .     A
C467   O501    1.283   .     A
C467   C469    1.406   .     S
C467   O499    1.272   .     A
C469   C356    1.354   1_655 S
C469   O382    1.390   1_655 S
C471   C114    1.384   1_565 S
C472   C134    1.384   1_565 S
H474   C347    1.111   1_655 S
N487   Zn503   2.008   .     S
N488   Zn504   2.008   .     S
O493   Zn503   2.001   .     S
O495   Zn504   2.001   .     S
O496   Zn504   2.007   .     S
O497   Zn503   2.007   .     S
O498   Zn503   1.980   .     S
O499   Zn504   1.980   .     S
O500   Zn504   1.992   .     S
O501   Zn503   1.992   .     S
O502   C356    1.390   1_655 S
C505   C508    1.425   .     S
C505   O549    1.285   .     A
C505   O552    1.278   .     A
C506   C508    1.407   .     A
C506   C521    1.457   .     S
C506   C863    1.384   1_545 S
C507   C527    1.410   .     A
C507   C528    1.407   .     A
C507   C516    1.425   .     S
C508   C526    1.410   .     A
C509   H529    1.081   .     S
C509   N544    1.366   .     A
C510   H535    1.081   .     S
C510   N543    1.366   .     A
C510   C1016   1.415   .     S
C511   H536    1.081   .     S
C511   N543    1.366   .     A
C511   C1013   1.415   .     S
C512   H537    1.081   .     S
C512   N544    1.366   .     A
C513   C514    1.521   .     S
C513   H538    1.114   .     S
C513   O558    1.414   .     S
C513   H595    1.111   .     S
C514   H542    1.111   .     S
C514   H540    1.110   .     S
C514   H541    1.111   .     S
C515   H531    1.114   .     S
C515   C517    1.521   .     S
C515   O550    1.414   .     S
C515   H642    1.111   1_455 S
C516   O553    1.278   .     A
C516   O551    1.285   .     A
C517   H532    1.110   .     S
C517   H533    1.111   .     S
C517   H534    1.111   .     S
C518   C526    1.454   .     S
C518   N545    1.157   .     T
C519   C527    1.454   .     S
C519   N546    1.157   .     T
C520   C528    1.457   .     S
C520   N547    1.158   .     T
C521   N548    1.158   .     T
C522   O556    1.283   .     A
C522   C524    1.406   .     S
C522   O554    1.272   .     A
C523   O557    1.283   .     A
C523   C525    1.406   .     S
C523   O555    1.272   .     A
C524   C637    1.354   1_455 S
C524   O670    1.390   1_455 S
C525   C580    1.354   .     S
C525   O606    1.390   .     S
C526   C864    1.384   1_545 S
C527   C674    1.384   .     S
C528   C694    1.384   .     S
H530   C571    1.111   .     S
H539   C625    1.111   1_455 S
N543   Zn559   2.008   .     S
N544   Zn560   2.008   .     S
O549   Zn559   2.001   .     S
O550   C637    1.390   1_455 S
O551   Zn560   2.001   .     S
O552   Zn560   2.007   .     S
O553   Zn559   2.007   .     S
O554   Zn559   1.980   .     S
O555   Zn560   1.980   .     S
O556   Zn560   1.992   .     S
O557   Zn559   1.992   .     S
O558   C580    1.390   .     S
C561   C564    1.425   .     S
C561   O605    1.285   .     A
C561   O608    1.278   .     A
C562   C564    1.407   .     A
C562   C577    1.457   .     S
C562   C919    1.384   1_545 S
C563   C583    1.410   .     A
C563   C584    1.407   .     A
C563   C572    1.425   .     S
C564   C582    1.410   .     A
C565   H585    1.081   .     S
C565   N600    1.366   .     A
C566   H591    1.081   .     S
C566   N599    1.366   .     A
C566   C1072   1.415   .     S
C567   H592    1.081   .     S
C567   N599    1.366   .     A
C567   C1069   1.415   .     S
C568   H593    1.081   .     S
C568   N600    1.366   .     A
C569   C570    1.521   .     S
C569   H594    1.114   .     S
C569   O614    1.414   .     S
C569   H651    1.111   .     S
C570   H598    1.111   .     S
C570   H596    1.110   .     S
C570   H597    1.111   .     S
C571   H587    1.114   .     S
C571   C573    1.521   .     S
C571   O606    1.414   .     S
C572   O609    1.278   .     A
C572   O607    1.285   .     A
C573   H588    1.110   .     S
C573   H589    1.111   .     S
C573   H590    1.111   .     S
C574   C582    1.454   .     S
C574   N601    1.157   .     T
C575   C583    1.454   .     S
C575   N602    1.157   .     T
C576   C584    1.457   .     S
C576   N603    1.158   .     T
C577   N604    1.158   .     T
C578   O612    1.283   .     A
C578   C580    1.406   .     S
C578   O610    1.272   .     A
C579   O613    1.283   .     A
C579   C581    1.406   .     S
C579   O611    1.272   .     A
C581   C636    1.354   .     S
C581   O662    1.390   .     S
C582   C920    1.384   1_545 S
C583   C730    1.384   .     S
C584   C750    1.384   .     S
H586   C627    1.111   .     S
N599   Zn615   2.008   .     S
N600   Zn616   2.008   .     S
O605   Zn615   2.001   .     S
O607   Zn616   2.001   .     S
O608   Zn616   2.007   .     S
O609   Zn615   2.007   .     S
O610   Zn615   1.980   .     S
O611   Zn616   1.980   .     S
O612   Zn616   1.992   .     S
O613   Zn615   1.992   .     S
O614   C636    1.390   .     S
C617   C620    1.425   .     S
C617   O661    1.285   .     A
C617   O664    1.278   .     A
C618   C620    1.407   .     A
C618   C633    1.457   .     S
C618   C975    1.384   1_545 S
C619   C639    1.410   .     A
C619   C640    1.407   .     A
C619   C628    1.425   .     S
C620   C638    1.410   .     A
C621   H641    1.081   .     S
C621   N656    1.366   .     A
C622   H647    1.081   .     S
C622   N655    1.366   .     A
C622   C1128   1.415   .     S
C623   H648    1.081   .     S
C623   N655    1.366   .     A
C623   C1125   1.415   .     S
C624   H649    1.081   .     S
C624   N656    1.366   .     A
C625   C626    1.521   .     S
C625   H650    1.114   .     S
C625   O670    1.414   .     S
C625   H539    1.111   1_655 S
C626   H654    1.111   .     S
C626   H652    1.110   .     S
C626   H653    1.111   .     S
C627   H643    1.114   .     S
C627   C629    1.521   .     S
C627   O662    1.414   .     S
C628   O665    1.278   .     A
C628   O663    1.285   .     A
C629   H644    1.110   .     S
C629   H645    1.111   .     S
C629   H646    1.111   .     S
C630   C638    1.454   .     S
C630   N657    1.157   .     T
C631   C639    1.454   .     S
C631   N658    1.157   .     T
C632   C640    1.457   .     S
C632   N659    1.158   .     T
C633   N660    1.158   .     T
C634   O668    1.283   .     A
C634   C636    1.406   .     S
C634   O666    1.272   .     A
C635   O669    1.283   .     A
C635   C637    1.406   .     S
C635   O667    1.272   .     A
C637   C524    1.354   1_655 S
C637   O550    1.390   1_655 S
C638   C976    1.384   1_545 S
C639   C786    1.384   .     S
C640   C806    1.384   .     S
H642   C515    1.111   1_655 S
N655   Zn671   2.008   .     S
N656   Zn672   2.008   .     S
O661   Zn671   2.001   .     S
O663   Zn672   2.001   .     S
O664   Zn672   2.007   .     S
O665   Zn671   2.007   .     S
O666   Zn671   1.980   .     S
O667   Zn672   1.980   .     S
O668   Zn672   1.992   .     S
O669   Zn671   1.992   .     S
O670   C524    1.390   1_655 S
C673   C676    1.425   .     S
C673   O717    1.285   .     A
C673   O720    1.278   .     A
C674   C676    1.407   .     A
C674   C689    1.457   .     S
C675   C695    1.410   .     A
C675   C696    1.407   .     A
C675   C684    1.425   .     S
C676   C694    1.410   .     A
C677   H697    1.081   .     S
C677   N712    1.366   .     A
C678   H703    1.081   .     S
C678   N711    1.366   .     A
C678   C1184   1.415   .     S
C679   H704    1.081   .     S
C679   N711    1.366   .     A
C679   C1181   1.415   .     S
C680   H705    1.081   .     S
C680   N712    1.366   .     A
C681   C682    1.521   .     S
C681   H706    1.114   .     S
C681   O726    1.414   .     S
C681   H763    1.111   .     S
C682   H710    1.111   .     S
C682   H708    1.110   .     S
C682   H709    1.111   .     S
C683   H699    1.114   .     S
C683   C685    1.521   .     S
C683   O718    1.414   .     S
C683   H810    1.111   1_455 S
C684   O721    1.278   .     A
C684   O719    1.285   .     A
C685   H700    1.110   .     S
C685   H701    1.111   .     S
C685   H702    1.111   .     S
C686   C694    1.454   .     S
C686   N713    1.157   .     T
C687   C695    1.454   .     S
C687   N714    1.157   .     T
C688   C696    1.457   .     S
C688   N715    1.158   .     T
C689   N716    1.158   .     T
C690   O724    1.283   .     A
C690   C692    1.406   .     S
C690   O722    1.272   .     A
C691   O725    1.283   .     A
C691   C693    1.406   .     S
C691   O723    1.272   .     A
C692   C805    1.354   1_455 S
C692   O838    1.390   1_455 S
C693   C748    1.354   .     S
C693   O774    1.390   .     S
C695   C842    1.384   .     S
C696   C862    1.384   .     S
H698   C739    1.111   .     S
H707   C793    1.111   1_455 S
N711   Zn727   2.008   .     S
N712   Zn728   2.008   .     S
O717   Zn727   2.001   .     S
O718   C805    1.390   1_455 S
O719   Zn728   2.001   .     S
O720   Zn728   2.007   .     S
O721   Zn727   2.007   .     S
O722   Zn727   1.980   .     S
O723   Zn728   1.980   .     S
O724   Zn728   1.992   .     S
O725   Zn727   1.992   .     S
O726   C748    1.390   .     S
C729   C732    1.425   .     S
C729   O773    1.285   .     A
C729   O776    1.278   .     A
C730   C732    1.407   .     A
C730   C745    1.457   .     S
C731   C751    1.410   .     A
C731   C752    1.407   .     A
C731   C740    1.425   .     S
C732   C750    1.410   .     A
C733   H753    1.081   .     S
C733   N768    1.366   .     A
C734   H759    1.081   .     S
C734   N767    1.366   .     A
C734   C1240   1.415   .     S
C735   H760    1.081   .     S
C735   N767    1.366   .     A
C735   C1237   1.415   .     S
C736   H761    1.081   .     S
C736   N768    1.366   .     A
C737   C738    1.521   .     S
C737   H762    1.114   .     S
C737   O782    1.414   .     S
C737   H819    1.111   .     S
C738   H766    1.111   .     S
C738   H764    1.110   .     S
C738   H765    1.111   .     S
C739   H755    1.114   .     S
C739   C741    1.521   .     S
C739   O774    1.414   .     S
C740   O777    1.278   .     A
C740   O775    1.285   .     A
C741   H756    1.110   .     S
C741   H757    1.111   .     S
C741   H758    1.111   .     S
C742   C750    1.454   .     S
C742   N769    1.157   .     T
C743   C751    1.454   .     S
C743   N770    1.157   .     T
C744   C752    1.457   .     S
C744   N771    1.158   .     T
C745   N772    1.158   .     T
C746   O780    1.283   .     A
C746   C748    1.406   .     S
C746   O778    1.272   .     A
C747   O781    1.283   .     A
C747   C749    1.406   .     S
C747   O779    1.272   .     A
C749   C804    1.354   .     S
C749   O830    1.390   .     S
C751   C898    1.384   .     S
C752   C918    1.384   .     S
H754   C795    1.111   .     S
N767   Zn783   2.008   .     S
N768   Zn784   2.008   .     S
O773   Zn783   2.001   .     S
O775   Zn784   2.001   .     S
O776   Zn784   2.007   .     S
O777   Zn783   2.007   .     S
O778   Zn783   1.980   .     S
O779   Zn784   1.980   .     S
O780   Zn784   1.992   .     S
O781   Zn783   1.992   .     S
O782   C804    1.390   .     S
C785   C788    1.425   .     S
C785   O829    1.285   .     A
C785   O832    1.278   .     A
C786   C788    1.407   .     A
C786   C801    1.457   .     S
C787   C807    1.410   .     A
C787   C808    1.407   .     A
C787   C796    1.425   .     S
C788   C806    1.410   .     A
C789   H809    1.081   .     S
C789   N824    1.366   .     A
C790   H815    1.081   .     S
C790   N823    1.366   .     A
C790   C1296   1.415   .     S
C791   H816    1.081   .     S
C791   N823    1.366   .     A
C791   C1293   1.415   .     S
C792   H817    1.081   .     S
C792   N824    1.366   .     A
C793   C794    1.521   .     S
C793   H818    1.114   .     S
C793   O838    1.414   .     S
C793   H707    1.111   1_655 S
C794   H822    1.111   .     S
C794   H820    1.110   .     S
C794   H821    1.111   .     S
C795   H811    1.114   .     S
C795   C797    1.521   .     S
C795   O830    1.414   .     S
C796   O833    1.278   .     A
C796   O831    1.285   .     A
C797   H812    1.110   .     S
C797   H813    1.111   .     S
C797   H814    1.111   .     S
C798   C806    1.454   .     S
C798   N825    1.157   .     T
C799   C807    1.454   .     S
C799   N826    1.157   .     T
C800   C808    1.457   .     S
C800   N827    1.158   .     T
C801   N828    1.158   .     T
C802   O836    1.283   .     A
C802   C804    1.406   .     S
C802   O834    1.272   .     A
C803   O837    1.283   .     A
C803   C805    1.406   .     S
C803   O835    1.272   .     A
C805   C692    1.354   1_655 S
C805   O718    1.390   1_655 S
C807   C954    1.384   .     S
C808   C974    1.384   .     S
H810   C683    1.111   1_655 S
N823   Zn839   2.008   .     S
N824   Zn840   2.008   .     S
O829   Zn839   2.001   .     S
O831   Zn840   2.001   .     S
O832   Zn840   2.007   .     S
O833   Zn839   2.007   .     S
O834   Zn839   1.980   .     S
O835   Zn840   1.980   .     S
O836   Zn840   1.992   .     S
O837   Zn839   1.992   .     S
O838   C692    1.390   1_655 S
C841   C844    1.425   .     S
C841   O885    1.285   .     A
C841   O888    1.278   .     A
C842   C844    1.407   .     A
C842   C857    1.457   .     S
C843   C863    1.410   .     A
C843   C864    1.407   .     A
C843   C852    1.425   .     S
C844   C862    1.410   .     A
C845   H865    1.081   .     S
C845   N880    1.366   .     A
C846   H871    1.081   .     S
C846   N879    1.366   .     A
C846   C1352   1.415   .     S
C847   H872    1.081   .     S
C847   N879    1.366   .     A
C847   C1349   1.415   .     S
C848   H873    1.081   .     S
C848   N880    1.366   .     A
C849   C850    1.521   .     S
C849   H874    1.114   .     S
C849   O894    1.414   .     S
C849   H931    1.111   .     S
C850   H878    1.111   .     S
C850   H876    1.110   .     S
C850   H877    1.111   .     S
C851   H867    1.114   .     S
C851   C853    1.521   .     S
C851   O886    1.414   .     S
C851   H978    1.111   1_455 S
C852   O889    1.278   .     A
C852   O887    1.285   .     A
C853   H868    1.110   .     S
C853   H869    1.111   .     S
C853   H870    1.111   .     S
C854   C862    1.454   .     S
C854   N881    1.157   .     T
C855   C863    1.454   .     S
C855   N882    1.157   .     T
C856   C864    1.457   .     S
C856   N883    1.158   .     T
C857   N884    1.158   .     T
C858   O892    1.283   .     A
C858   C860    1.406   .     S
C858   O890    1.272   .     A
C859   O893    1.283   .     A
C859   C861    1.406   .     S
C859   O891    1.272   .     A
C860   C973    1.354   1_455 S
C860   O1006   1.390   1_455 S
C861   C916    1.354   .     S
C861   O942    1.390   .     S
C863   C506    1.384   1_565 S
C864   C526    1.384   1_565 S
H866   C907    1.111   .     S
H875   C961    1.111   1_455 S
N879   Zn895   2.008   .     S
N880   Zn896   2.008   .     S
O885   Zn895   2.001   .     S
O886   C973    1.390   1_455 S
O887   Zn896   2.001   .     S
O888   Zn896   2.007   .     S
O889   Zn895   2.007   .     S
O890   Zn895   1.980   .     S
O891   Zn896   1.980   .     S
O892   Zn896   1.992   .     S
O893   Zn895   1.992   .     S
O894   C916    1.390   .     S
C897   C900    1.425   .     S
C897   O941    1.285   .     A
C897   O944    1.278   .     A
C898   C900    1.407   .     A
C898   C913    1.457   .     S
C899   C919    1.410   .     A
C899   C920    1.407   .     A
C899   C908    1.425   .     S
C900   C918    1.410   .     A
C901   H921    1.081   .     S
C901   N936    1.366   .     A
C902   H927    1.081   .     S
C902   N935    1.366   .     A
C902   C1408   1.415   .     S
C903   H928    1.081   .     S
C903   N935    1.366   .     A
C903   C1405   1.415   .     S
C904   H929    1.081   .     S
C904   N936    1.366   .     A
C905   C906    1.521   .     S
C905   H930    1.114   .     S
C905   O950    1.414   .     S
C905   H987    1.111   .     S
C906   H934    1.111   .     S
C906   H932    1.110   .     S
C906   H933    1.111   .     S
C907   H923    1.114   .     S
C907   C909    1.521   .     S
C907   O942    1.414   .     S
C908   O945    1.278   .     A
C908   O943    1.285   .     A
C909   H924    1.110   .     S
C909   H925    1.111   .     S
C909   H926    1.111   .     S
C910   C918    1.454   .     S
C910   N937    1.157   .     T
C911   C919    1.454   .     S
C911   N938    1.157   .     T
C912   C920    1.457   .     S
C912   N939    1.158   .     T
C913   N940    1.158   .     T
C914   O948    1.283   .     A
C914   C916    1.406   .     S
C914   O946    1.272   .     A
C915   O949    1.283   .     A
C915   C917    1.406   .     S
C915   O947    1.272   .     A
C917   C972    1.354   .     S
C917   O998    1.390   .     S
C919   C562    1.384   1_565 S
C920   C582    1.384   1_565 S
H922   C963    1.111   .     S
N935   Zn951   2.008   .     S
N936   Zn952   2.008   .     S
O941   Zn951   2.001   .     S
O943   Zn952   2.001   .     S
O944   Zn952   2.007   .     S
O945   Zn951   2.007   .     S
O946   Zn951   1.980   .     S
O947   Zn952   1.980   .     S
O948   Zn952   1.992   .     S
O949   Zn951   1.992   .     S
O950   C972    1.390   .     S
C953   C956    1.425   .     S
C953   O997    1.285   .     A
C953   O1000   1.278   .     A
C954   C956    1.407   .     A
C954   C969    1.457   .     S
C955   C975    1.410   .     A
C955   C976    1.407   .     A
C955   C964    1.425   .     S
C956   C974    1.410   .     A
C957   H977    1.081   .     S
C957   N992    1.366   .     A
C958   H983    1.081   .     S
C958   N991    1.366   .     A
C958   C1464   1.415   .     S
C959   H984    1.081   .     S
C959   N991    1.366   .     A
C959   C1461   1.415   .     S
C960   H985    1.081   .     S
C960   N992    1.366   .     A
C961   C962    1.521   .     S
C961   H986    1.114   .     S
C961   O1006   1.414   .     S
C961   H875    1.111   1_655 S
C962   H990    1.111   .     S
C962   H988    1.110   .     S
C962   H989    1.111   .     S
C963   H979    1.114   .     S
C963   C965    1.521   .     S
C963   O998    1.414   .     S
C964   O1001   1.278   .     A
C964   O999    1.285   .     A
C965   H980    1.110   .     S
C965   H981    1.111   .     S
C965   H982    1.111   .     S
C966   C974    1.454   .     S
C966   N993    1.157   .     T
C967   C975    1.454   .     S
C967   N994    1.157   .     T
C968   C976    1.457   .     S
C968   N995    1.158   .     T
C969   N996    1.158   .     T
C970   O1004   1.283   .     A
C970   C972    1.406   .     S
C970   O1002   1.272   .     A
C971   O1005   1.283   .     A
C971   C973    1.406   .     S
C971   O1003   1.272   .     A
C973   C860    1.354   1_655 S
C973   O886    1.390   1_655 S
C975   C618    1.384   1_565 S
C976   C638    1.384   1_565 S
H978   C851    1.111   1_655 S
N991   Zn1007  2.008   .     S
N992   Zn1008  2.008   .     S
O997   Zn1007  2.001   .     S
O999   Zn1008  2.001   .     S
O1000  Zn1008  2.007   .     S
O1001  Zn1007  2.007   .     S
O1002  Zn1007  1.980   .     S
O1003  Zn1008  1.980   .     S
O1004  Zn1008  1.992   .     S
O1005  Zn1007  1.992   .     S
O1006  C860    1.390   1_655 S
C1009  C1012   1.425   .     S
C1009  O1053   1.285   .     A
C1009  O1056   1.278   .     A
C1010  C1012   1.407   .     A
C1010  C1025   1.457   .     S
C1010  C1367   1.384   1_545 S
C1011  C1031   1.410   .     A
C1011  C1032   1.407   .     A
C1011  C1020   1.425   .     S
C1012  C1030   1.410   .     A
C1013  H1033   1.081   .     S
C1013  N1048   1.366   .     A
C1014  H1039   1.081   .     S
C1014  N1047   1.366   .     A
C1014  C8      1.415   1_556 S
C1015  H1040   1.081   .     S
C1015  N1047   1.366   .     A
C1015  C5      1.415   1_556 S
C1016  H1041   1.081   .     S
C1016  N1048   1.366   .     A
C1017  C1018   1.521   .     S
C1017  H1042   1.114   .     S
C1017  O1062   1.414   .     S
C1017  H1099   1.111   .     S
C1018  H1046   1.111   .     S
C1018  H1044   1.110   .     S
C1018  H1045   1.111   .     S
C1019  H1035   1.114   .     S
C1019  C1021   1.521   .     S
C1019  O1054   1.414   .     S
C1019  H1146   1.111   1_455 S
C1020  O1057   1.278   .     A
C1020  O1055   1.285   .     A
C1021  H1036   1.110   .     S
C1021  H1037   1.111   .     S
C1021  H1038   1.111   .     S
C1022  C1030   1.454   .     S
C1022  N1049   1.157   .     T
C1023  C1031   1.454   .     S
C1023  N1050   1.157   .     T
C1024  C1032   1.457   .     S
C1024  N1051   1.158   .     T
C1025  N1052   1.158   .     T
C1026  O1060   1.283   .     A
C1026  C1028   1.406   .     S
C1026  O1058   1.272   .     A
C1027  O1061   1.283   .     A
C1027  C1029   1.406   .     S
C1027  O1059   1.272   .     A
C1028  C1141   1.354   1_455 S
C1028  O1174   1.390   1_455 S
C1029  C1084   1.354   .     S
C1029  O1110   1.390   .     S
C1030  C1368   1.384   1_545 S
C1031  C1178   1.384   .     S
C1032  C1198   1.384   .     S
H1034  C1075   1.111   .     S
H1043  C1129   1.111   1_455 S
N1047  Zn1063  2.008   .     S
N1048  Zn1064  2.008   .     S
O1053  Zn1063  2.001   .     S
O1054  C1141   1.390   1_455 S
O1055  Zn1064  2.001   .     S
O1056  Zn1064  2.007   .     S
O1057  Zn1063  2.007   .     S
O1058  Zn1063  1.980   .     S
O1059  Zn1064  1.980   .     S
O1060  Zn1064  1.992   .     S
O1061  Zn1063  1.992   .     S
O1062  C1084   1.390   .     S
C1065  C1068   1.425   .     S
C1065  O1109   1.285   .     A
C1065  O1112   1.278   .     A
C1066  C1068   1.407   .     A
C1066  C1081   1.457   .     S
C1066  C1423   1.384   1_545 S
C1067  C1087   1.410   .     A
C1067  C1088   1.407   .     A
C1067  C1076   1.425   .     S
C1068  C1086   1.410   .     A
C1069  H1089   1.081   .     S
C1069  N1104   1.366   .     A
C1070  H1095   1.081   .     S
C1070  N1103   1.366   .     A
C1070  C64     1.415   1_556 S
C1071  H1096   1.081   .     S
C1071  N1103   1.366   .     A
C1071  C61     1.415   1_556 S
C1072  H1097   1.081   .     S
C1072  N1104   1.366   .     A
C1073  C1074   1.521   .     S
C1073  H1098   1.114   .     S
C1073  O1118   1.414   .     S
C1073  H1155   1.111   .     S
C1074  H1102   1.111   .     S
C1074  H1100   1.110   .     S
C1074  H1101   1.111   .     S
C1075  H1091   1.114   .     S
C1075  C1077   1.521   .     S
C1075  O1110   1.414   .     S
C1076  O1113   1.278   .     A
C1076  O1111   1.285   .     A
C1077  H1092   1.110   .     S
C1077  H1093   1.111   .     S
C1077  H1094   1.111   .     S
C1078  C1086   1.454   .     S
C1078  N1105   1.157   .     T
C1079  C1087   1.454   .     S
C1079  N1106   1.157   .     T
C1080  C1088   1.457   .     S
C1080  N1107   1.158   .     T
C1081  N1108   1.158   .     T
C1082  O1116   1.283   .     A
C1082  C1084   1.406   .     S
C1082  O1114   1.272   .     A
C1083  O1117   1.283   .     A
C1083  C1085   1.406   .     S
C1083  O1115   1.272   .     A
C1085  C1140   1.354   .     S
C1085  O1166   1.390   .     S
C1086  C1424   1.384   1_545 S
C1087  C1234   1.384   .     S
C1088  C1254   1.384   .     S
H1090  C1131   1.111   .     S
N1103  Zn1119  2.008   .     S
N1104  Zn1120  2.008   .     S
O1109  Zn1119  2.001   .     S
O1111  Zn1120  2.001   .     S
O1112  Zn1120  2.007   .     S
O1113  Zn1119  2.007   .     S
O1114  Zn1119  1.980   .     S
O1115  Zn1120  1.980   .     S
O1116  Zn1120  1.992   .     S
O1117  Zn1119  1.992   .     S
O1118  C1140   1.390   .     S
C1121  C1124   1.425   .     S
C1121  O1165   1.285   .     A
C1121  O1168   1.278   .     A
C1122  C1124   1.407   .     A
C1122  C1137   1.457   .     S
C1122  C1479   1.384   1_545 S
C1123  C1143   1.410   .     A
C1123  C1144   1.407   .     A
C1123  C1132   1.425   .     S
C1124  C1142   1.410   .     A
C1125  H1145   1.081   .     S
C1125  N1160   1.366   .     A
C1126  H1151   1.081   .     S
C1126  N1159   1.366   .     A
C1126  C120    1.415   1_556 S
C1127  H1152   1.081   .     S
C1127  N1159   1.366   .     A
C1127  C117    1.415   1_556 S
C1128  H1153   1.081   .     S
C1128  N1160   1.366   .     A
C1129  C1130   1.521   .     S
C1129  H1154   1.114   .     S
C1129  O1174   1.414   .     S
C1129  H1043   1.111   1_655 S
C1130  H1158   1.111   .     S
C1130  H1156   1.110   .     S
C1130  H1157   1.111   .     S
C1131  H1147   1.114   .     S
C1131  C1133   1.521   .     S
C1131  O1166   1.414   .     S
C1132  O1169   1.278   .     A
C1132  O1167   1.285   .     A
C1133  H1148   1.110   .     S
C1133  H1149   1.111   .     S
C1133  H1150   1.111   .     S
C1134  C1142   1.454   .     S
C1134  N1161   1.157   .     T
C1135  C1143   1.454   .     S
C1135  N1162   1.157   .     T
C1136  C1144   1.457   .     S
C1136  N1163   1.158   .     T
C1137  N1164   1.158   .     T
C1138  O1172   1.283   .     A
C1138  C1140   1.406   .     S
C1138  O1170   1.272   .     A
C1139  O1173   1.283   .     A
C1139  C1141   1.406   .     S
C1139  O1171   1.272   .     A
C1141  C1028   1.354   1_655 S
C1141  O1054   1.390   1_655 S
C1142  C1480   1.384   1_545 S
C1143  C1290   1.384   .     S
C1144  C1310   1.384   .     S
H1146  C1019   1.111   1_655 S
N1159  Zn1175  2.008   .     S
N1160  Zn1176  2.008   .     S
O1165  Zn1175  2.001   .     S
O1167  Zn1176  2.001   .     S
O1168  Zn1176  2.007   .     S
O1169  Zn1175  2.007   .     S
O1170  Zn1175  1.980   .     S
O1171  Zn1176  1.980   .     S
O1172  Zn1176  1.992   .     S
O1173  Zn1175  1.992   .     S
O1174  C1028   1.390   1_655 S
C1177  C1180   1.425   .     S
C1177  O1221   1.285   .     A
C1177  O1224   1.278   .     A
C1178  C1180   1.407   .     A
C1178  C1193   1.457   .     S
C1179  C1199   1.410   .     A
C1179  C1200   1.407   .     A
C1179  C1188   1.425   .     S
C1180  C1198   1.410   .     A
C1181  H1201   1.081   .     S
C1181  N1216   1.366   .     A
C1182  H1207   1.081   .     S
C1182  N1215   1.366   .     A
C1182  C176    1.415   1_556 S
C1183  H1208   1.081   .     S
C1183  N1215   1.366   .     A
C1183  C173    1.415   1_556 S
C1184  H1209   1.081   .     S
C1184  N1216   1.366   .     A
C1185  C1186   1.521   .     S
C1185  H1210   1.114   .     S
C1185  O1230   1.414   .     S
C1185  H1267   1.111   .     S
C1186  H1214   1.111   .     S
C1186  H1212   1.110   .     S
C1186  H1213   1.111   .     S
C1187  H1203   1.114   .     S
C1187  C1189   1.521   .     S
C1187  O1222   1.414   .     S
C1187  H1314   1.111   1_455 S
C1188  O1225   1.278   .     A
C1188  O1223   1.285   .     A
C1189  H1204   1.110   .     S
C1189  H1205   1.111   .     S
C1189  H1206   1.111   .     S
C1190  C1198   1.454   .     S
C1190  N1217   1.157   .     T
C1191  C1199   1.454   .     S
C1191  N1218   1.157   .     T
C1192  C1200   1.457   .     S
C1192  N1219   1.158   .     T
C1193  N1220   1.158   .     T
C1194  O1228   1.283   .     A
C1194  C1196   1.406   .     S
C1194  O1226   1.272   .     A
C1195  O1229   1.283   .     A
C1195  C1197   1.406   .     S
C1195  O1227   1.272   .     A
C1196  C1309   1.354   1_455 S
C1196  O1342   1.390   1_455 S
C1197  C1252   1.354   .     S
C1197  O1278   1.390   .     S
C1199  C1346   1.384   .     S
C1200  C1366   1.384   .     S
H1202  C1243   1.111   .     S
H1211  C1297   1.111   1_455 S
N1215  Zn1231  2.008   .     S
N1216  Zn1232  2.008   .     S
O1221  Zn1231  2.001   .     S
O1222  C1309   1.390   1_455 S
O1223  Zn1232  2.001   .     S
O1224  Zn1232  2.007   .     S
O1225  Zn1231  2.007   .     S
O1226  Zn1231  1.980   .     S
O1227  Zn1232  1.980   .     S
O1228  Zn1232  1.992   .     S
O1229  Zn1231  1.992   .     S
O1230  C1252   1.390   .     S
C1233  C1236   1.425   .     S
C1233  O1277   1.285   .     A
C1233  O1280   1.278   .     A
C1234  C1236   1.407   .     A
C1234  C1249   1.457   .     S
C1235  C1255   1.410   .     A
C1235  C1256   1.407   .     A
C1235  C1244   1.425   .     S
C1236  C1254   1.410   .     A
C1237  H1257   1.081   .     S
C1237  N1272   1.366   .     A
C1238  H1263   1.081   .     S
C1238  N1271   1.366   .     A
C1238  C232    1.415   1_556 S
C1239  H1264   1.081   .     S
C1239  N1271   1.366   .     A
C1239  C229    1.415   1_556 S
C1240  H1265   1.081   .     S
C1240  N1272   1.366   .     A
C1241  C1242   1.521   .     S
C1241  H1266   1.114   .     S
C1241  O1286   1.414   .     S
C1241  H1323   1.111   .     S
C1242  H1270   1.111   .     S
C1242  H1268   1.110   .     S
C1242  H1269   1.111   .     S
C1243  H1259   1.114   .     S
C1243  C1245   1.521   .     S
C1243  O1278   1.414   .     S
C1244  O1281   1.278   .     A
C1244  O1279   1.285   .     A
C1245  H1260   1.110   .     S
C1245  H1261   1.111   .     S
C1245  H1262   1.111   .     S
C1246  C1254   1.454   .     S
C1246  N1273   1.157   .     T
C1247  C1255   1.454   .     S
C1247  N1274   1.157   .     T
C1248  C1256   1.457   .     S
C1248  N1275   1.158   .     T
C1249  N1276   1.158   .     T
C1250  O1284   1.283   .     A
C1250  C1252   1.406   .     S
C1250  O1282   1.272   .     A
C1251  O1285   1.283   .     A
C1251  C1253   1.406   .     S
C1251  O1283   1.272   .     A
C1253  C1308   1.354   .     S
C1253  O1334   1.390   .     S
C1255  C1402   1.384   .     S
C1256  C1422   1.384   .     S
H1258  C1299   1.111   .     S
N1271  Zn1287  2.008   .     S
N1272  Zn1288  2.008   .     S
O1277  Zn1287  2.001   .     S
O1279  Zn1288  2.001   .     S
O1280  Zn1288  2.007   .     S
O1281  Zn1287  2.007   .     S
O1282  Zn1287  1.980   .     S
O1283  Zn1288  1.980   .     S
O1284  Zn1288  1.992   .     S
O1285  Zn1287  1.992   .     S
O1286  C1308   1.390   .     S
C1289  C1292   1.425   .     S
C1289  O1333   1.285   .     A
C1289  O1336   1.278   .     A
C1290  C1292   1.407   .     A
C1290  C1305   1.457   .     S
C1291  C1311   1.410   .     A
C1291  C1312   1.407   .     A
C1291  C1300   1.425   .     S
C1292  C1310   1.410   .     A
C1293  H1313   1.081   .     S
C1293  N1328   1.366   .     A
C1294  H1319   1.081   .     S
C1294  N1327   1.366   .     A
C1294  C288    1.415   1_556 S
C1295  H1320   1.081   .     S
C1295  N1327   1.366   .     A
C1295  C285    1.415   1_556 S
C1296  H1321   1.081   .     S
C1296  N1328   1.366   .     A
C1297  C1298   1.521   .     S
C1297  H1322   1.114   .     S
C1297  O1342   1.414   .     S
C1297  H1211   1.111   1_655 S
C1298  H1326   1.111   .     S
C1298  H1324   1.110   .     S
C1298  H1325   1.111   .     S
C1299  H1315   1.114   .     S
C1299  C1301   1.521   .     S
C1299  O1334   1.414   .     S
C1300  O1337   1.278   .     A
C1300  O1335   1.285   .     A
C1301  H1316   1.110   .     S
C1301  H1317   1.111   .     S
C1301  H1318   1.111   .     S
C1302  C1310   1.454   .     S
C1302  N1329   1.157   .     T
C1303  C1311   1.454   .     S
C1303  N1330   1.157   .     T
C1304  C1312   1.457   .     S
C1304  N1331   1.158   .     T
C1305  N1332   1.158   .     T
C1306  O1340   1.283   .     A
C1306  C1308   1.406   .     S
C1306  O1338   1.272   .     A
C1307  O1341   1.283   .     A
C1307  C1309   1.406   .     S
C1307  O1339   1.272   .     A
C1309  C1196   1.354   1_655 S
C1309  O1222   1.390   1_655 S
C1311  C1458   1.384   .     S
C1312  C1478   1.384   .     S
H1314  C1187   1.111   1_655 S
N1327  Zn1343  2.008   .     S
N1328  Zn1344  2.008   .     S
O1333  Zn1343  2.001   .     S
O1335  Zn1344  2.001   .     S
O1336  Zn1344  2.007   .     S
O1337  Zn1343  2.007   .     S
O1338  Zn1343  1.980   .     S
O1339  Zn1344  1.980   .     S
O1340  Zn1344  1.992   .     S
O1341  Zn1343  1.992   .     S
O1342  C1196   1.390   1_655 S
C1345  C1348   1.425   .     S
C1345  O1389   1.285   .     A
C1345  O1392   1.278   .     A
C1346  C1348   1.407   .     A
C1346  C1361   1.457   .     S
C1347  C1367   1.410   .     A
C1347  C1368   1.407   .     A
C1347  C1356   1.425   .     S
C1348  C1366   1.410   .     A
C1349  H1369   1.081   .     S
C1349  N1384   1.366   .     A
C1350  H1375   1.081   .     S
C1350  N1383   1.366   .     A
C1350  C344    1.415   1_556 S
C1351  H1376   1.081   .     S
C1351  N1383   1.366   .     A
C1351  C341    1.415   1_556 S
C1352  H1377   1.081   .     S
C1352  N1384   1.366   .     A
C1353  C1354   1.521   .     S
C1353  H1378   1.114   .     S
C1353  O1398   1.414   .     S
C1353  H1435   1.111   .     S
C1354  H1382   1.111   .     S
C1354  H1380   1.110   .     S
C1354  H1381   1.111   .     S
C1355  H1371   1.114   .     S
C1355  C1357   1.521   .     S
C1355  O1390   1.414   .     S
C1355  H1482   1.111   1_455 S
C1356  O1393   1.278   .     A
C1356  O1391   1.285   .     A
C1357  H1372   1.110   .     S
C1357  H1373   1.111   .     S
C1357  H1374   1.111   .     S
C1358  C1366   1.454   .     S
C1358  N1385   1.157   .     T
C1359  C1367   1.454   .     S
C1359  N1386   1.157   .     T
C1360  C1368   1.457   .     S
C1360  N1387   1.158   .     T
C1361  N1388   1.158   .     T
C1362  O1396   1.283   .     A
C1362  C1364   1.406   .     S
C1362  O1394   1.272   .     A
C1363  O1397   1.283   .     A
C1363  C1365   1.406   .     S
C1363  O1395   1.272   .     A
C1364  C1477   1.354   1_455 S
C1364  O1510   1.390   1_455 S
C1365  C1420   1.354   .     S
C1365  O1446   1.390   .     S
C1367  C1010   1.384   1_565 S
C1368  C1030   1.384   1_565 S
H1370  C1411   1.111   .     S
H1379  C1465   1.111   1_455 S
N1383  Zn1399  2.008   .     S
N1384  Zn1400  2.008   .     S
O1389  Zn1399  2.001   .     S
O1390  C1477   1.390   1_455 S
O1391  Zn1400  2.001   .     S
O1392  Zn1400  2.007   .     S
O1393  Zn1399  2.007   .     S
O1394  Zn1399  1.980   .     S
O1395  Zn1400  1.980   .     S
O1396  Zn1400  1.992   .     S
O1397  Zn1399  1.992   .     S
O1398  C1420   1.390   .     S
C1401  C1404   1.425   .     S
C1401  O1445   1.285   .     A
C1401  O1448   1.278   .     A
C1402  C1404   1.407   .     A
C1402  C1417   1.457   .     S
C1403  C1423   1.410   .     A
C1403  C1424   1.407   .     A
C1403  C1412   1.425   .     S
C1404  C1422   1.410   .     A
C1405  H1425   1.081   .     S
C1405  N1440   1.366   .     A
C1406  H1431   1.081   .     S
C1406  N1439   1.366   .     A
C1406  C400    1.415   1_556 S
C1407  H1432   1.081   .     S
C1407  N1439   1.366   .     A
C1407  C397    1.415   1_556 S
C1408  H1433   1.081   .     S
C1408  N1440   1.366   .     A
C1409  C1410   1.521   .     S
C1409  H1434   1.114   .     S
C1409  O1454   1.414   .     S
C1409  H1491   1.111   .     S
C1410  H1438   1.111   .     S
C1410  H1436   1.110   .     S
C1410  H1437   1.111   .     S
C1411  H1427   1.114   .     S
C1411  C1413   1.521   .     S
C1411  O1446   1.414   .     S
C1412  O1449   1.278   .     A
C1412  O1447   1.285   .     A
C1413  H1428   1.110   .     S
C1413  H1429   1.111   .     S
C1413  H1430   1.111   .     S
C1414  C1422   1.454   .     S
C1414  N1441   1.157   .     T
C1415  C1423   1.454   .     S
C1415  N1442   1.157   .     T
C1416  C1424   1.457   .     S
C1416  N1443   1.158   .     T
C1417  N1444   1.158   .     T
C1418  O1452   1.283   .     A
C1418  C1420   1.406   .     S
C1418  O1450   1.272   .     A
C1419  O1453   1.283   .     A
C1419  C1421   1.406   .     S
C1419  O1451   1.272   .     A
C1421  C1476   1.354   .     S
C1421  O1502   1.390   .     S
C1423  C1066   1.384   1_565 S
C1424  C1086   1.384   1_565 S
H1426  C1467   1.111   .     S
N1439  Zn1455  2.008   .     S
N1440  Zn1456  2.008   .     S
O1445  Zn1455  2.001   .     S
O1447  Zn1456  2.001   .     S
O1448  Zn1456  2.007   .     S
O1449  Zn1455  2.007   .     S
O1450  Zn1455  1.980   .     S
O1451  Zn1456  1.980   .     S
O1452  Zn1456  1.992   .     S
O1453  Zn1455  1.992   .     S
O1454  C1476   1.390   .     S
C1457  C1460   1.425   .     S
C1457  O1501   1.285   .     A
C1457  O1504   1.278   .     A
C1458  C1460   1.407   .     A
C1458  C1473   1.457   .     S
C1459  C1479   1.410   .     A
C1459  C1480   1.407   .     A
C1459  C1468   1.425   .     S
C1460  C1478   1.410   .     A
C1461  H1481   1.081   .     S
C1461  N1496   1.366   .     A
C1462  H1487   1.081   .     S
C1462  N1495   1.366   .     A
C1462  C456    1.415   1_556 S
C1463  H1488   1.081   .     S
C1463  N1495   1.366   .     A
C1463  C453    1.415   1_556 S
C1464  H1489   1.081   .     S
C1464  N1496   1.366   .     A
C1465  C1466   1.521   .     S
C1465  H1490   1.114   .     S
C1465  O1510   1.414   .     S
C1465  H1379   1.111   1_655 S
C1466  H1494   1.111   .     S
C1466  H1492   1.110   .     S
C1466  H1493   1.111   .     S
C1467  H1483   1.114   .     S
C1467  C1469   1.521   .     S
C1467  O1502   1.414   .     S
C1468  O1505   1.278   .     A
C1468  O1503   1.285   .     A
C1469  H1484   1.110   .     S
C1469  H1485   1.111   .     S
C1469  H1486   1.111   .     S
C1470  C1478   1.454   .     S
C1470  N1497   1.157   .     T
C1471  C1479   1.454   .     S
C1471  N1498   1.157   .     T
C1472  C1480   1.457   .     S
C1472  N1499   1.158   .     T
C1473  N1500   1.158   .     T
C1474  O1508   1.283   .     A
C1474  C1476   1.406   .     S
C1474  O1506   1.272   .     A
C1475  O1509   1.283   .     A
C1475  C1477   1.406   .     S
C1475  O1507   1.272   .     A
C1477  C1364   1.354   1_655 S
C1477  O1390   1.390   1_655 S
C1479  C1122   1.384   1_565 S
C1480  C1142   1.384   1_565 S
H1482  C1355   1.111   1_655 S
N1495  Zn1511  2.008   .     S
N1496  Zn1512  2.008   .     S
O1501  Zn1511  2.001   .     S
O1503  Zn1512  2.001   .     S
O1504  Zn1512  2.007   .     S
O1505  Zn1511  2.007   .     S
O1506  Zn1511  1.980   .     S
O1507  Zn1512  1.980   .     S
O1508  Zn1512  1.992   .     S
O1509  Zn1511  1.992   .     S
O1510  C1364   1.390   1_655 S
