data_str_m3_o1_o17_pcu_sym.94
_audit_creation_date              2020-01-03
_audit_creation_method            'Materials Studio'
_symmetry_space_group_name_H-M    'P1'
_symmetry_Int_Tables_number       1
_symmetry_cell_setting            triclinic
loop_
_symmetry_equiv_pos_as_xyz
  x,y,z
_cell_length_a                    32.3363
_cell_length_b                    29.4652
_cell_length_c                    30.0467
_cell_angle_alpha                 89.5983
_cell_angle_beta                  88.9880
_cell_angle_gamma                 91.6194
loop_
_atom_site_label
_atom_site_type_symbol
_atom_site_fract_x
_atom_site_fract_y
_atom_site_fract_z
_atom_site_U_iso_or_equiv
_atom_site_adp_type
_atom_site_occupancy
C1     C     0.08665   0.16581   0.24861   0.00000  Uiso   1.00
C2     C     0.04232   0.16383   0.24611   0.00000  Uiso   1.00
C3     C     0.18793   0.02443   0.28133   0.00000  Uiso   1.00
C4     C     0.14541   0.30890   0.21867   0.00000  Uiso   1.00
C5     C     0.14536   0.02357   0.21870   0.00000  Uiso   1.00
C6     C     0.18797   0.30976   0.28130   0.00000  Uiso   1.00
C7     C     0.16622   0.16670   0.16363   0.00000  Uiso   1.00
C8     C     0.16712   0.16663   0.33637   0.00000  Uiso   1.00
C9     C     0.20339   0.18056   0.40581   0.00000  Uiso   1.00
C10    C     0.12994   0.15278   0.09419   0.00000  Uiso   1.00
C11    C     0.16703   0.16692   0.38406   0.00000  Uiso   1.00
C12    C     0.24669   0.16752   0.25139   0.00000  Uiso   1.00
C13    C     0.16630   0.16641   0.11594   0.00000  Uiso   1.00
C14    C     0.13093   0.15240   0.40730   0.00000  Uiso   1.00
C15    C     0.20239   0.18096   0.09270   0.00000  Uiso   1.00
C16    C     0.13126   0.15071   0.45386   0.00000  Uiso   1.00
C17    C     0.20206   0.18266   0.04614   0.00000  Uiso   1.00
C18    C     0.16690   0.16632   0.47654   0.00000  Uiso   1.00
C19    C     0.16642   0.16704   0.02346   0.00000  Uiso   1.00
C20    C     0.20285   0.18169   0.45251   0.00000  Uiso   1.00
C21    C     0.13047   0.15167   0.04749   0.00000  Uiso   1.00
C22    C     0.09638   0.13480   0.47835   0.00000  Uiso   1.00
C23    C     0.09630   0.13450   0.02422   0.00000  Uiso   1.00
C24    C     0.23693   0.19859   0.02165   0.00000  Uiso   1.00
C25    C     0.24157   0.19243   0.37898   0.00000  Uiso   1.00
C26    C     0.09177   0.14088   0.12103   0.00000  Uiso   1.00
C27    C     0.09270   0.14007   0.38276   0.00000  Uiso   1.00
C28    C     0.24062   0.19330   0.11724   0.00000  Uiso   1.00
C29    C     0.03961   0.08985   0.29060   0.00000  Uiso   1.00
C30    C     0.29372   0.24348   0.20939   0.00000  Uiso   1.00
C31    C     0.28609   0.10161   0.30589   0.00000  Uiso   1.00
C32    C     0.04724   0.23172   0.19411   0.00000  Uiso   1.00
C33    C     0.23702   0.19888   0.47578   0.00000  Uiso   1.00
C34    C     0.01961   0.12944   0.26999   0.00000  Uiso   1.00
C35    C     0.31373   0.20389   0.23001   0.00000  Uiso   1.00
C36    C     0.31047   0.13359   0.27577   0.00000  Uiso   1.00
C37    C     0.02287   0.19974   0.22423   0.00000  Uiso   1.00
C38    C     0.29101   0.16950   0.25388   0.00000  Uiso   1.00
H39    H     0.06858   0.12221   0.46263   0.00000  Uiso   1.00
H40    H     0.09362   0.12030   0.15095   0.00000  Uiso   1.00
H41    H     0.07574   0.10865   0.39040   0.00000  Uiso   1.00
H42    H     0.25755   0.22474   0.10962   0.00000  Uiso   1.00
H43    H     0.03873   0.08544   0.32642   0.00000  Uiso   1.00
H44    H     0.29461   0.24790   0.17358   0.00000  Uiso   1.00
H45    H     0.26032   0.11400   0.32544   0.00000  Uiso   1.00
H46    H     0.07302   0.21933   0.17456   0.00000  Uiso   1.00
H47    H     0.26472   0.21119   0.03737   0.00000  Uiso   1.00
H48    H     0.06908   0.12008   0.04091   0.00000  Uiso   1.00
H49    H     0.26423   0.21330   0.45909   0.00000  Uiso   1.00
H50    H     0.20484   0.04298   0.30640   0.00000  Uiso   1.00
H51    H     0.12849   0.29035   0.19360   0.00000  Uiso   1.00
H52    H     0.12827   0.04144   0.19375   0.00000  Uiso   1.00
H53    H     0.20506   0.29189   0.30625   0.00000  Uiso   1.00
H54    H     0.23974   0.21298   0.34903   0.00000  Uiso   1.00
N55    N     0.16667   0.28573   0.25000   0.00000  Uiso   1.00
N56    N     0.16667   0.04760   0.25000   0.00000  Uiso   1.00
O57    O     0.10559   0.20487   0.25000   0.00000  Uiso   1.00
O58    O     0.05830   0.15589   0.11116   0.00000  Uiso   1.00
O59    O     0.07951   0.16563   0.35454   0.00000  Uiso   1.00
O60    O     0.25384   0.16772   0.14542   0.00000  Uiso   1.00
O61    O     0.05410   0.06017   0.26738   0.00000  Uiso   1.00
O62    O     0.27922   0.27315   0.23262   0.00000  Uiso   1.00
O63    O     0.29317   0.06116   0.30768   0.00000  Uiso   1.00
O64    O     0.04016   0.27218   0.19232   0.00000  Uiso   1.00
O65    O     0.22774   0.12846   0.25001   0.00000  Uiso   1.00
O66    O     0.22774   0.20487   0.25001   0.00000  Uiso   1.00
O67    O     0.10559   0.12846   0.25000   0.00000  Uiso   1.00
O68    O     0.16666   0.20489   0.18393   0.00000  Uiso   1.00
O69    O     0.16667   0.12844   0.31608   0.00000  Uiso   1.00
O70    O     0.16667   0.20489   0.31608   0.00000  Uiso   1.00
O71    O     0.16666   0.12844   0.18393   0.00000  Uiso   1.00
O72    O     0.27503   0.17743   0.38887   0.00000  Uiso   1.00
Zn73   Zn    0.16667   0.21771   0.25000   0.00000  Uiso   1.00
Zn74   Zn    0.16667   0.11563   0.25000   0.00000  Uiso   1.00
C75    C     0.41998   0.16581   0.24861   0.00000  Uiso   1.00
C76    C     0.37565   0.16383   0.24611   0.00000  Uiso   1.00
C77    C     0.52126   0.02443   0.28133   0.00000  Uiso   1.00
C78    C     0.47874   0.30890   0.21867   0.00000  Uiso   1.00
C79    C     0.47869   0.02357   0.21870   0.00000  Uiso   1.00
C80    C     0.52131   0.30976   0.28130   0.00000  Uiso   1.00
C81    C     0.49955   0.16670   0.16363   0.00000  Uiso   1.00
C82    C     0.50045   0.16663   0.33637   0.00000  Uiso   1.00
C83    C     0.53672   0.18056   0.40581   0.00000  Uiso   1.00
C84    C     0.46328   0.15278   0.09419   0.00000  Uiso   1.00
C85    C     0.50037   0.16692   0.38406   0.00000  Uiso   1.00
C86    C     0.58002   0.16752   0.25139   0.00000  Uiso   1.00
C87    C     0.49963   0.16641   0.11594   0.00000  Uiso   1.00
C88    C     0.46426   0.15240   0.40730   0.00000  Uiso   1.00
C89    C     0.53573   0.18096   0.09270   0.00000  Uiso   1.00
C90    C     0.46459   0.15071   0.45386   0.00000  Uiso   1.00
C91    C     0.53539   0.18266   0.04614   0.00000  Uiso   1.00
C92    C     0.50024   0.16632   0.47654   0.00000  Uiso   1.00
C93    C     0.49975   0.16704   0.02346   0.00000  Uiso   1.00
C94    C     0.53619   0.18169   0.45251   0.00000  Uiso   1.00
C95    C     0.46380   0.15167   0.04749   0.00000  Uiso   1.00
C96    C     0.42971   0.13480   0.47835   0.00000  Uiso   1.00
C97    C     0.42963   0.13450   0.02422   0.00000  Uiso   1.00
C98    C     0.57026   0.19859   0.02165   0.00000  Uiso   1.00
C99    C     0.57491   0.19243   0.37898   0.00000  Uiso   1.00
C100   C     0.42510   0.14088   0.12103   0.00000  Uiso   1.00
C101   C     0.42604   0.14007   0.38276   0.00000  Uiso   1.00
C102   C     0.57395   0.19330   0.11724   0.00000  Uiso   1.00
C103   C     0.37294   0.08985   0.29060   0.00000  Uiso   1.00
C104   C     0.62706   0.24348   0.20939   0.00000  Uiso   1.00
C105   C     0.61942   0.10161   0.30589   0.00000  Uiso   1.00
C106   C     0.38058   0.23172   0.19411   0.00000  Uiso   1.00
C107   C     0.57035   0.19888   0.47578   0.00000  Uiso   1.00
C108   C     0.35294   0.12944   0.26999   0.00000  Uiso   1.00
C109   C     0.64706   0.20389   0.23001   0.00000  Uiso   1.00
C110   C     0.64380   0.13359   0.27577   0.00000  Uiso   1.00
C111   C     0.35620   0.19974   0.22423   0.00000  Uiso   1.00
C112   C     0.62435   0.16950   0.25388   0.00000  Uiso   1.00
H113   H     0.40192   0.12221   0.46263   0.00000  Uiso   1.00
H114   H     0.42695   0.12030   0.15095   0.00000  Uiso   1.00
H115   H     0.40907   0.10865   0.39040   0.00000  Uiso   1.00
H116   H     0.59088   0.22474   0.10962   0.00000  Uiso   1.00
H117   H     0.37206   0.08544   0.32642   0.00000  Uiso   1.00
H118   H     0.62795   0.24790   0.17358   0.00000  Uiso   1.00
H119   H     0.59365   0.11400   0.32544   0.00000  Uiso   1.00
H120   H     0.40635   0.21933   0.17456   0.00000  Uiso   1.00
H121   H     0.59805   0.21119   0.03737   0.00000  Uiso   1.00
H122   H     0.40242   0.12008   0.04091   0.00000  Uiso   1.00
H123   H     0.59756   0.21330   0.45909   0.00000  Uiso   1.00
H124   H     0.53817   0.04298   0.30640   0.00000  Uiso   1.00
H125   H     0.46183   0.29035   0.19360   0.00000  Uiso   1.00
H126   H     0.46161   0.04144   0.19375   0.00000  Uiso   1.00
H127   H     0.53839   0.29189   0.30625   0.00000  Uiso   1.00
H128   H     0.57307   0.21298   0.34903   0.00000  Uiso   1.00
N129   N     0.50000   0.28573   0.25000   0.00000  Uiso   1.00
N130   N     0.50000   0.04760   0.25000   0.00000  Uiso   1.00
O131   O     0.43892   0.20487   0.25000   0.00000  Uiso   1.00
O132   O     0.39164   0.15589   0.11116   0.00000  Uiso   1.00
O133   O     0.41284   0.16563   0.35454   0.00000  Uiso   1.00
O134   O     0.58717   0.16772   0.14542   0.00000  Uiso   1.00
O135   O     0.38744   0.06017   0.26738   0.00000  Uiso   1.00
O136   O     0.61256   0.27315   0.23262   0.00000  Uiso   1.00
O137   O     0.62650   0.06116   0.30768   0.00000  Uiso   1.00
O138   O     0.37350   0.27218   0.19232   0.00000  Uiso   1.00
O139   O     0.56108   0.12846   0.25001   0.00000  Uiso   1.00
O140   O     0.56108   0.20487   0.25001   0.00000  Uiso   1.00
O141   O     0.43892   0.12846   0.25000   0.00000  Uiso   1.00
O142   O     0.49999   0.20489   0.18393   0.00000  Uiso   1.00
O143   O     0.50001   0.12844   0.31608   0.00000  Uiso   1.00
O144   O     0.50001   0.20489   0.31608   0.00000  Uiso   1.00
O145   O     0.49999   0.12844   0.18393   0.00000  Uiso   1.00
O146   O     0.60837   0.17743   0.38887   0.00000  Uiso   1.00
Zn147  Zn    0.50000   0.21771   0.25000   0.00000  Uiso   1.00
Zn148  Zn    0.50000   0.11563   0.25000   0.00000  Uiso   1.00
C149   C     0.75331   0.16581   0.24861   0.00000  Uiso   1.00
C150   C     0.70899   0.16383   0.24611   0.00000  Uiso   1.00
C151   C     0.85459   0.02443   0.28133   0.00000  Uiso   1.00
C152   C     0.81207   0.30890   0.21867   0.00000  Uiso   1.00
C153   C     0.81203   0.02357   0.21870   0.00000  Uiso   1.00
C154   C     0.85464   0.30976   0.28130   0.00000  Uiso   1.00
C155   C     0.83288   0.16670   0.16363   0.00000  Uiso   1.00
C156   C     0.83378   0.16663   0.33637   0.00000  Uiso   1.00
C157   C     0.87005   0.18056   0.40581   0.00000  Uiso   1.00
C158   C     0.79661   0.15278   0.09419   0.00000  Uiso   1.00
C159   C     0.83370   0.16692   0.38406   0.00000  Uiso   1.00
C160   C     0.91335   0.16752   0.25139   0.00000  Uiso   1.00
C161   C     0.83296   0.16641   0.11594   0.00000  Uiso   1.00
C162   C     0.79760   0.15240   0.40730   0.00000  Uiso   1.00
C163   C     0.86906   0.18096   0.09270   0.00000  Uiso   1.00
C164   C     0.79793   0.15071   0.45386   0.00000  Uiso   1.00
C165   C     0.86872   0.18266   0.04614   0.00000  Uiso   1.00
C166   C     0.83357   0.16632   0.47654   0.00000  Uiso   1.00
C167   C     0.83308   0.16704   0.02346   0.00000  Uiso   1.00
C168   C     0.86952   0.18169   0.45251   0.00000  Uiso   1.00
C169   C     0.79713   0.15167   0.04749   0.00000  Uiso   1.00
C170   C     0.76305   0.13480   0.47835   0.00000  Uiso   1.00
C171   C     0.76296   0.13450   0.02422   0.00000  Uiso   1.00
C172   C     0.90360   0.19859   0.02165   0.00000  Uiso   1.00
C173   C     0.90824   0.19243   0.37898   0.00000  Uiso   1.00
C174   C     0.75843   0.14088   0.12103   0.00000  Uiso   1.00
C175   C     0.75937   0.14007   0.38276   0.00000  Uiso   1.00
C176   C     0.90728   0.19330   0.11724   0.00000  Uiso   1.00
C177   C     0.70628   0.08985   0.29060   0.00000  Uiso   1.00
C178   C     0.96039   0.24348   0.20939   0.00000  Uiso   1.00
C179   C     0.95276   0.10161   0.30589   0.00000  Uiso   1.00
C180   C     0.71391   0.23172   0.19411   0.00000  Uiso   1.00
C181   C     0.90368   0.19888   0.47578   0.00000  Uiso   1.00
C182   C     0.68627   0.12944   0.26999   0.00000  Uiso   1.00
C183   C     0.98039   0.20389   0.23001   0.00000  Uiso   1.00
C184   C     0.97714   0.13359   0.27577   0.00000  Uiso   1.00
C185   C     0.68953   0.19974   0.22423   0.00000  Uiso   1.00
C186   C     0.95768   0.16950   0.25388   0.00000  Uiso   1.00
H187   H     0.73525   0.12221   0.46263   0.00000  Uiso   1.00
H188   H     0.76028   0.12030   0.15095   0.00000  Uiso   1.00
H189   H     0.74241   0.10865   0.39040   0.00000  Uiso   1.00
H190   H     0.92421   0.22474   0.10962   0.00000  Uiso   1.00
H191   H     0.70539   0.08544   0.32642   0.00000  Uiso   1.00
H192   H     0.96128   0.24790   0.17358   0.00000  Uiso   1.00
H193   H     0.92699   0.11400   0.32544   0.00000  Uiso   1.00
H194   H     0.73968   0.21933   0.17456   0.00000  Uiso   1.00
H195   H     0.93139   0.21119   0.03737   0.00000  Uiso   1.00
H196   H     0.73575   0.12008   0.04091   0.00000  Uiso   1.00
H197   H     0.93089   0.21330   0.45909   0.00000  Uiso   1.00
H198   H     0.87151   0.04298   0.30640   0.00000  Uiso   1.00
H199   H     0.79516   0.29035   0.19360   0.00000  Uiso   1.00
H200   H     0.79494   0.04144   0.19375   0.00000  Uiso   1.00
H201   H     0.87173   0.29189   0.30625   0.00000  Uiso   1.00
H202   H     0.90640   0.21298   0.34903   0.00000  Uiso   1.00
N203   N     0.83333   0.28573   0.25000   0.00000  Uiso   1.00
N204   N     0.83333   0.04760   0.25000   0.00000  Uiso   1.00
O205   O     0.77226   0.20487   0.25000   0.00000  Uiso   1.00
O206   O     0.72497   0.15589   0.11116   0.00000  Uiso   1.00
O207   O     0.74618   0.16563   0.35454   0.00000  Uiso   1.00
O208   O     0.92050   0.16772   0.14542   0.00000  Uiso   1.00
O209   O     0.72077   0.06017   0.26738   0.00000  Uiso   1.00
O210   O     0.94589   0.27315   0.23262   0.00000  Uiso   1.00
O211   O     0.95984   0.06116   0.30768   0.00000  Uiso   1.00
O212   O     0.70683   0.27218   0.19232   0.00000  Uiso   1.00
O213   O     0.89441   0.12846   0.25001   0.00000  Uiso   1.00
O214   O     0.89441   0.20487   0.25001   0.00000  Uiso   1.00
O215   O     0.77226   0.12846   0.25000   0.00000  Uiso   1.00
O216   O     0.83333   0.20489   0.18393   0.00000  Uiso   1.00
O217   O     0.83334   0.12844   0.31608   0.00000  Uiso   1.00
O218   O     0.83334   0.20489   0.31608   0.00000  Uiso   1.00
O219   O     0.83333   0.12844   0.18393   0.00000  Uiso   1.00
O220   O     0.94170   0.17743   0.38887   0.00000  Uiso   1.00
Zn221  Zn    0.83333   0.21771   0.25000   0.00000  Uiso   1.00
Zn222  Zn    0.83333   0.11563   0.25000   0.00000  Uiso   1.00
C223   C     0.08665   0.49915   0.24861   0.00000  Uiso   1.00
C224   C     0.04232   0.49716   0.24611   0.00000  Uiso   1.00
C225   C     0.18793   0.35776   0.28133   0.00000  Uiso   1.00
C226   C     0.14541   0.64224   0.21867   0.00000  Uiso   1.00
C227   C     0.14536   0.35690   0.21870   0.00000  Uiso   1.00
C228   C     0.18797   0.64310   0.28130   0.00000  Uiso   1.00
C229   C     0.16622   0.50003   0.16363   0.00000  Uiso   1.00
C230   C     0.16712   0.49997   0.33637   0.00000  Uiso   1.00
C231   C     0.20339   0.51389   0.40581   0.00000  Uiso   1.00
C232   C     0.12994   0.48611   0.09419   0.00000  Uiso   1.00
C233   C     0.16703   0.50026   0.38406   0.00000  Uiso   1.00
C234   C     0.24669   0.50085   0.25139   0.00000  Uiso   1.00
C235   C     0.16630   0.49975   0.11594   0.00000  Uiso   1.00
C236   C     0.13093   0.48573   0.40730   0.00000  Uiso   1.00
C237   C     0.20239   0.51430   0.09270   0.00000  Uiso   1.00
C238   C     0.13126   0.48405   0.45386   0.00000  Uiso   1.00
C239   C     0.20206   0.51599   0.04614   0.00000  Uiso   1.00
C240   C     0.16690   0.49966   0.47654   0.00000  Uiso   1.00
C241   C     0.16642   0.50038   0.02346   0.00000  Uiso   1.00
C242   C     0.20285   0.51502   0.45251   0.00000  Uiso   1.00
C243   C     0.13047   0.48500   0.04749   0.00000  Uiso   1.00
C244   C     0.09638   0.46813   0.47835   0.00000  Uiso   1.00
C245   C     0.09630   0.46783   0.02422   0.00000  Uiso   1.00
C246   C     0.23693   0.53192   0.02165   0.00000  Uiso   1.00
C247   C     0.24157   0.52577   0.37898   0.00000  Uiso   1.00
C248   C     0.09177   0.47421   0.12103   0.00000  Uiso   1.00
C249   C     0.09270   0.47341   0.38276   0.00000  Uiso   1.00
C250   C     0.24062   0.52663   0.11724   0.00000  Uiso   1.00
C251   C     0.03961   0.42318   0.29060   0.00000  Uiso   1.00
C252   C     0.29372   0.57682   0.20939   0.00000  Uiso   1.00
C253   C     0.28609   0.43494   0.30589   0.00000  Uiso   1.00
C254   C     0.04724   0.56505   0.19411   0.00000  Uiso   1.00
C255   C     0.23702   0.53221   0.47578   0.00000  Uiso   1.00
C256   C     0.01961   0.46278   0.26999   0.00000  Uiso   1.00
C257   C     0.31373   0.53722   0.23001   0.00000  Uiso   1.00
C258   C     0.31047   0.46693   0.27577   0.00000  Uiso   1.00
C259   C     0.02287   0.53307   0.22423   0.00000  Uiso   1.00
C260   C     0.29101   0.50284   0.25388   0.00000  Uiso   1.00
H261   H     0.06858   0.45554   0.46263   0.00000  Uiso   1.00
H262   H     0.09362   0.45363   0.15095   0.00000  Uiso   1.00
H263   H     0.07574   0.44199   0.39040   0.00000  Uiso   1.00
H264   H     0.25755   0.55808   0.10962   0.00000  Uiso   1.00
H265   H     0.03873   0.41877   0.32642   0.00000  Uiso   1.00
H266   H     0.29461   0.58123   0.17358   0.00000  Uiso   1.00
H267   H     0.26032   0.44733   0.32544   0.00000  Uiso   1.00
H268   H     0.07302   0.55266   0.17456   0.00000  Uiso   1.00
H269   H     0.26472   0.54453   0.03737   0.00000  Uiso   1.00
H270   H     0.06908   0.45341   0.04091   0.00000  Uiso   1.00
H271   H     0.26423   0.54664   0.45909   0.00000  Uiso   1.00
H272   H     0.20484   0.37632   0.30640   0.00000  Uiso   1.00
H273   H     0.12849   0.62368   0.19360   0.00000  Uiso   1.00
H274   H     0.12827   0.37477   0.19375   0.00000  Uiso   1.00
H275   H     0.20506   0.62523   0.30625   0.00000  Uiso   1.00
H276   H     0.23974   0.54631   0.34903   0.00000  Uiso   1.00
N277   N     0.16667   0.61907   0.25000   0.00000  Uiso   1.00
N278   N     0.16667   0.38093   0.25000   0.00000  Uiso   1.00
O279   O     0.10559   0.53821   0.25000   0.00000  Uiso   1.00
O280   O     0.05830   0.48922   0.11116   0.00000  Uiso   1.00
O281   O     0.07951   0.49897   0.35454   0.00000  Uiso   1.00
O282   O     0.25384   0.50106   0.14542   0.00000  Uiso   1.00
O283   O     0.05410   0.39351   0.26738   0.00000  Uiso   1.00
O284   O     0.27922   0.60649   0.23262   0.00000  Uiso   1.00
O285   O     0.29317   0.39449   0.30768   0.00000  Uiso   1.00
O286   O     0.04016   0.60551   0.19232   0.00000  Uiso   1.00
O287   O     0.22774   0.46179   0.25001   0.00000  Uiso   1.00
O288   O     0.22774   0.53821   0.25001   0.00000  Uiso   1.00
O289   O     0.10559   0.46179   0.25000   0.00000  Uiso   1.00
O290   O     0.16666   0.53823   0.18393   0.00000  Uiso   1.00
O291   O     0.16667   0.46177   0.31608   0.00000  Uiso   1.00
O292   O     0.16667   0.53823   0.31608   0.00000  Uiso   1.00
O293   O     0.16666   0.46177   0.18393   0.00000  Uiso   1.00
O294   O     0.27503   0.51076   0.38887   0.00000  Uiso   1.00
Zn295  Zn    0.16667   0.55104   0.25000   0.00000  Uiso   1.00
Zn296  Zn    0.16667   0.44896   0.25000   0.00000  Uiso   1.00
C297   C     0.41998   0.49915   0.24861   0.00000  Uiso   1.00
C298   C     0.37565   0.49716   0.24611   0.00000  Uiso   1.00
C299   C     0.52126   0.35776   0.28133   0.00000  Uiso   1.00
C300   C     0.47874   0.64224   0.21867   0.00000  Uiso   1.00
C301   C     0.47869   0.35690   0.21870   0.00000  Uiso   1.00
C302   C     0.52131   0.64310   0.28130   0.00000  Uiso   1.00
C303   C     0.49955   0.50003   0.16363   0.00000  Uiso   1.00
C304   C     0.50045   0.49997   0.33637   0.00000  Uiso   1.00
C305   C     0.53672   0.51389   0.40581   0.00000  Uiso   1.00
C306   C     0.46328   0.48611   0.09419   0.00000  Uiso   1.00
C307   C     0.50037   0.50026   0.38406   0.00000  Uiso   1.00
C308   C     0.58002   0.50085   0.25139   0.00000  Uiso   1.00
C309   C     0.49963   0.49975   0.11594   0.00000  Uiso   1.00
C310   C     0.46426   0.48573   0.40730   0.00000  Uiso   1.00
C311   C     0.53573   0.51430   0.09270   0.00000  Uiso   1.00
C312   C     0.46459   0.48405   0.45386   0.00000  Uiso   1.00
C313   C     0.53539   0.51599   0.04614   0.00000  Uiso   1.00
C314   C     0.50024   0.49966   0.47654   0.00000  Uiso   1.00
C315   C     0.49975   0.50038   0.02346   0.00000  Uiso   1.00
C316   C     0.53619   0.51502   0.45251   0.00000  Uiso   1.00
C317   C     0.46380   0.48500   0.04749   0.00000  Uiso   1.00
C318   C     0.42971   0.46813   0.47835   0.00000  Uiso   1.00
C319   C     0.42963   0.46783   0.02422   0.00000  Uiso   1.00
C320   C     0.57026   0.53192   0.02165   0.00000  Uiso   1.00
C321   C     0.57491   0.52577   0.37898   0.00000  Uiso   1.00
C322   C     0.42510   0.47421   0.12103   0.00000  Uiso   1.00
C323   C     0.42604   0.47341   0.38276   0.00000  Uiso   1.00
C324   C     0.57395   0.52663   0.11724   0.00000  Uiso   1.00
C325   C     0.37294   0.42318   0.29060   0.00000  Uiso   1.00
C326   C     0.62706   0.57682   0.20939   0.00000  Uiso   1.00
C327   C     0.61942   0.43494   0.30589   0.00000  Uiso   1.00
C328   C     0.38058   0.56505   0.19411   0.00000  Uiso   1.00
C329   C     0.57035   0.53221   0.47578   0.00000  Uiso   1.00
C330   C     0.35294   0.46278   0.26999   0.00000  Uiso   1.00
C331   C     0.64706   0.53722   0.23001   0.00000  Uiso   1.00
C332   C     0.64380   0.46693   0.27577   0.00000  Uiso   1.00
C333   C     0.35620   0.53307   0.22423   0.00000  Uiso   1.00
C334   C     0.62435   0.50284   0.25388   0.00000  Uiso   1.00
H335   H     0.40192   0.45554   0.46263   0.00000  Uiso   1.00
H336   H     0.42695   0.45363   0.15095   0.00000  Uiso   1.00
H337   H     0.40907   0.44199   0.39040   0.00000  Uiso   1.00
H338   H     0.59088   0.55808   0.10962   0.00000  Uiso   1.00
H339   H     0.37206   0.41877   0.32642   0.00000  Uiso   1.00
H340   H     0.62795   0.58123   0.17358   0.00000  Uiso   1.00
H341   H     0.59365   0.44733   0.32544   0.00000  Uiso   1.00
H342   H     0.40635   0.55266   0.17456   0.00000  Uiso   1.00
H343   H     0.59805   0.54453   0.03737   0.00000  Uiso   1.00
H344   H     0.40242   0.45341   0.04091   0.00000  Uiso   1.00
H345   H     0.59756   0.54664   0.45909   0.00000  Uiso   1.00
H346   H     0.53817   0.37632   0.30640   0.00000  Uiso   1.00
H347   H     0.46183   0.62368   0.19360   0.00000  Uiso   1.00
H348   H     0.46161   0.37477   0.19375   0.00000  Uiso   1.00
H349   H     0.53839   0.62523   0.30625   0.00000  Uiso   1.00
H350   H     0.57307   0.54631   0.34903   0.00000  Uiso   1.00
N351   N     0.50000   0.61907   0.25000   0.00000  Uiso   1.00
N352   N     0.50000   0.38093   0.25000   0.00000  Uiso   1.00
O353   O     0.43892   0.53821   0.25000   0.00000  Uiso   1.00
O354   O     0.39164   0.48922   0.11116   0.00000  Uiso   1.00
O355   O     0.41284   0.49897   0.35454   0.00000  Uiso   1.00
O356   O     0.58717   0.50106   0.14542   0.00000  Uiso   1.00
O357   O     0.38744   0.39351   0.26738   0.00000  Uiso   1.00
O358   O     0.61256   0.60649   0.23262   0.00000  Uiso   1.00
O359   O     0.62650   0.39449   0.30768   0.00000  Uiso   1.00
O360   O     0.37350   0.60551   0.19232   0.00000  Uiso   1.00
O361   O     0.56108   0.46179   0.25001   0.00000  Uiso   1.00
O362   O     0.56108   0.53821   0.25001   0.00000  Uiso   1.00
O363   O     0.43892   0.46179   0.25000   0.00000  Uiso   1.00
O364   O     0.49999   0.53823   0.18393   0.00000  Uiso   1.00
O365   O     0.50001   0.46177   0.31608   0.00000  Uiso   1.00
O366   O     0.50001   0.53823   0.31608   0.00000  Uiso   1.00
O367   O     0.49999   0.46177   0.18393   0.00000  Uiso   1.00
O368   O     0.60837   0.51076   0.38887   0.00000  Uiso   1.00
Zn369  Zn    0.50000   0.55104   0.25000   0.00000  Uiso   1.00
Zn370  Zn    0.50000   0.44896   0.25000   0.00000  Uiso   1.00
C371   C     0.75331   0.49915   0.24861   0.00000  Uiso   1.00
C372   C     0.70899   0.49716   0.24611   0.00000  Uiso   1.00
C373   C     0.85459   0.35776   0.28133   0.00000  Uiso   1.00
C374   C     0.81207   0.64224   0.21867   0.00000  Uiso   1.00
C375   C     0.81203   0.35690   0.21870   0.00000  Uiso   1.00
C376   C     0.85464   0.64310   0.28130   0.00000  Uiso   1.00
C377   C     0.83288   0.50003   0.16363   0.00000  Uiso   1.00
C378   C     0.83378   0.49997   0.33637   0.00000  Uiso   1.00
C379   C     0.87005   0.51389   0.40581   0.00000  Uiso   1.00
C380   C     0.79661   0.48611   0.09419   0.00000  Uiso   1.00
C381   C     0.83370   0.50026   0.38406   0.00000  Uiso   1.00
C382   C     0.91335   0.50085   0.25139   0.00000  Uiso   1.00
C383   C     0.83296   0.49975   0.11594   0.00000  Uiso   1.00
C384   C     0.79760   0.48573   0.40730   0.00000  Uiso   1.00
C385   C     0.86906   0.51430   0.09270   0.00000  Uiso   1.00
C386   C     0.79793   0.48405   0.45386   0.00000  Uiso   1.00
C387   C     0.86872   0.51599   0.04614   0.00000  Uiso   1.00
C388   C     0.83357   0.49966   0.47654   0.00000  Uiso   1.00
C389   C     0.83308   0.50038   0.02346   0.00000  Uiso   1.00
C390   C     0.86952   0.51502   0.45251   0.00000  Uiso   1.00
C391   C     0.79713   0.48500   0.04749   0.00000  Uiso   1.00
C392   C     0.76305   0.46813   0.47835   0.00000  Uiso   1.00
C393   C     0.76296   0.46783   0.02422   0.00000  Uiso   1.00
C394   C     0.90360   0.53192   0.02165   0.00000  Uiso   1.00
C395   C     0.90824   0.52577   0.37898   0.00000  Uiso   1.00
C396   C     0.75843   0.47421   0.12103   0.00000  Uiso   1.00
C397   C     0.75937   0.47341   0.38276   0.00000  Uiso   1.00
C398   C     0.90728   0.52663   0.11724   0.00000  Uiso   1.00
C399   C     0.70628   0.42318   0.29060   0.00000  Uiso   1.00
C400   C     0.96039   0.57682   0.20939   0.00000  Uiso   1.00
C401   C     0.95276   0.43494   0.30589   0.00000  Uiso   1.00
C402   C     0.71391   0.56505   0.19411   0.00000  Uiso   1.00
C403   C     0.90368   0.53221   0.47578   0.00000  Uiso   1.00
C404   C     0.68627   0.46278   0.26999   0.00000  Uiso   1.00
C405   C     0.98039   0.53722   0.23001   0.00000  Uiso   1.00
C406   C     0.97714   0.46693   0.27577   0.00000  Uiso   1.00
C407   C     0.68953   0.53307   0.22423   0.00000  Uiso   1.00
C408   C     0.95768   0.50284   0.25388   0.00000  Uiso   1.00
H409   H     0.73525   0.45554   0.46263   0.00000  Uiso   1.00
H410   H     0.76028   0.45363   0.15095   0.00000  Uiso   1.00
H411   H     0.74241   0.44199   0.39040   0.00000  Uiso   1.00
H412   H     0.92421   0.55808   0.10962   0.00000  Uiso   1.00
H413   H     0.70539   0.41877   0.32642   0.00000  Uiso   1.00
H414   H     0.96128   0.58123   0.17358   0.00000  Uiso   1.00
H415   H     0.92699   0.44733   0.32544   0.00000  Uiso   1.00
H416   H     0.73968   0.55266   0.17456   0.00000  Uiso   1.00
H417   H     0.93139   0.54453   0.03737   0.00000  Uiso   1.00
H418   H     0.73575   0.45341   0.04091   0.00000  Uiso   1.00
H419   H     0.93089   0.54664   0.45909   0.00000  Uiso   1.00
H420   H     0.87151   0.37632   0.30640   0.00000  Uiso   1.00
H421   H     0.79516   0.62368   0.19360   0.00000  Uiso   1.00
H422   H     0.79494   0.37477   0.19375   0.00000  Uiso   1.00
H423   H     0.87173   0.62523   0.30625   0.00000  Uiso   1.00
H424   H     0.90640   0.54631   0.34903   0.00000  Uiso   1.00
N425   N     0.83333   0.61907   0.25000   0.00000  Uiso   1.00
N426   N     0.83333   0.38093   0.25000   0.00000  Uiso   1.00
O427   O     0.77226   0.53821   0.25000   0.00000  Uiso   1.00
O428   O     0.72497   0.48922   0.11116   0.00000  Uiso   1.00
O429   O     0.74618   0.49897   0.35454   0.00000  Uiso   1.00
O430   O     0.92050   0.50106   0.14542   0.00000  Uiso   1.00
O431   O     0.72077   0.39351   0.26738   0.00000  Uiso   1.00
O432   O     0.94589   0.60649   0.23262   0.00000  Uiso   1.00
O433   O     0.95984   0.39449   0.30768   0.00000  Uiso   1.00
O434   O     0.70683   0.60551   0.19232   0.00000  Uiso   1.00
O435   O     0.89441   0.46179   0.25001   0.00000  Uiso   1.00
O436   O     0.89441   0.53821   0.25001   0.00000  Uiso   1.00
O437   O     0.77226   0.46179   0.25000   0.00000  Uiso   1.00
O438   O     0.83333   0.53823   0.18393   0.00000  Uiso   1.00
O439   O     0.83334   0.46177   0.31608   0.00000  Uiso   1.00
O440   O     0.83334   0.53823   0.31608   0.00000  Uiso   1.00
O441   O     0.83333   0.46177   0.18393   0.00000  Uiso   1.00
O442   O     0.94170   0.51076   0.38887   0.00000  Uiso   1.00
Zn443  Zn    0.83333   0.55104   0.25000   0.00000  Uiso   1.00
Zn444  Zn    0.83333   0.44896   0.25000   0.00000  Uiso   1.00
C445   C     0.08665   0.83248   0.24861   0.00000  Uiso   1.00
C446   C     0.04232   0.83050   0.24611   0.00000  Uiso   1.00
C447   C     0.18793   0.69110   0.28133   0.00000  Uiso   1.00
C448   C     0.14541   0.97557   0.21867   0.00000  Uiso   1.00
C449   C     0.14536   0.69024   0.21870   0.00000  Uiso   1.00
C450   C     0.18797   0.97643   0.28130   0.00000  Uiso   1.00
C451   C     0.16622   0.83337   0.16363   0.00000  Uiso   1.00
C452   C     0.16712   0.83330   0.33637   0.00000  Uiso   1.00
C453   C     0.20339   0.84723   0.40581   0.00000  Uiso   1.00
C454   C     0.12994   0.81944   0.09419   0.00000  Uiso   1.00
C455   C     0.16703   0.83359   0.38406   0.00000  Uiso   1.00
C456   C     0.24669   0.83418   0.25139   0.00000  Uiso   1.00
C457   C     0.16630   0.83308   0.11594   0.00000  Uiso   1.00
C458   C     0.13093   0.81907   0.40730   0.00000  Uiso   1.00
C459   C     0.20239   0.84763   0.09270   0.00000  Uiso   1.00
C460   C     0.13126   0.81738   0.45386   0.00000  Uiso   1.00
C461   C     0.20206   0.84933   0.04614   0.00000  Uiso   1.00
C462   C     0.16690   0.83299   0.47654   0.00000  Uiso   1.00
C463   C     0.16642   0.83371   0.02346   0.00000  Uiso   1.00
C464   C     0.20285   0.84836   0.45251   0.00000  Uiso   1.00
C465   C     0.13047   0.81833   0.04749   0.00000  Uiso   1.00
C466   C     0.09638   0.80146   0.47835   0.00000  Uiso   1.00
C467   C     0.09630   0.80116   0.02422   0.00000  Uiso   1.00
C468   C     0.23693   0.86526   0.02165   0.00000  Uiso   1.00
C469   C     0.24157   0.85910   0.37898   0.00000  Uiso   1.00
C470   C     0.09177   0.80754   0.12103   0.00000  Uiso   1.00
C471   C     0.09270   0.80674   0.38276   0.00000  Uiso   1.00
C472   C     0.24062   0.85996   0.11724   0.00000  Uiso   1.00
C473   C     0.03961   0.75652   0.29060   0.00000  Uiso   1.00
C474   C     0.29372   0.91015   0.20939   0.00000  Uiso   1.00
C475   C     0.28609   0.76828   0.30589   0.00000  Uiso   1.00
C476   C     0.04724   0.89839   0.19411   0.00000  Uiso   1.00
C477   C     0.23702   0.86555   0.47578   0.00000  Uiso   1.00
C478   C     0.01961   0.79611   0.26999   0.00000  Uiso   1.00
C479   C     0.31373   0.87056   0.23001   0.00000  Uiso   1.00
C480   C     0.31047   0.80026   0.27577   0.00000  Uiso   1.00
C481   C     0.02287   0.86641   0.22423   0.00000  Uiso   1.00
C482   C     0.29101   0.83617   0.25388   0.00000  Uiso   1.00
H483   H     0.06858   0.78888   0.46263   0.00000  Uiso   1.00
H484   H     0.09362   0.78697   0.15095   0.00000  Uiso   1.00
H485   H     0.07574   0.77532   0.39040   0.00000  Uiso   1.00
H486   H     0.25755   0.89141   0.10962   0.00000  Uiso   1.00
H487   H     0.03873   0.75210   0.32642   0.00000  Uiso   1.00
H488   H     0.29461   0.91456   0.17358   0.00000  Uiso   1.00
H489   H     0.26032   0.78067   0.32544   0.00000  Uiso   1.00
H490   H     0.07302   0.88600   0.17456   0.00000  Uiso   1.00
H491   H     0.26472   0.87786   0.03737   0.00000  Uiso   1.00
H492   H     0.06908   0.78675   0.04091   0.00000  Uiso   1.00
H493   H     0.26423   0.87997   0.45909   0.00000  Uiso   1.00
H494   H     0.20484   0.70965   0.30640   0.00000  Uiso   1.00
H495   H     0.12849   0.95702   0.19360   0.00000  Uiso   1.00
H496   H     0.12827   0.70811   0.19375   0.00000  Uiso   1.00
H497   H     0.20506   0.95856   0.30625   0.00000  Uiso   1.00
H498   H     0.23974   0.87964   0.34903   0.00000  Uiso   1.00
N499   N     0.16667   0.95240   0.25000   0.00000  Uiso   1.00
N500   N     0.16667   0.71427   0.25000   0.00000  Uiso   1.00
O501   O     0.10559   0.87154   0.25000   0.00000  Uiso   1.00
O502   O     0.05830   0.82255   0.11116   0.00000  Uiso   1.00
O503   O     0.07951   0.83230   0.35454   0.00000  Uiso   1.00
O504   O     0.25384   0.83439   0.14542   0.00000  Uiso   1.00
O505   O     0.05410   0.72684   0.26738   0.00000  Uiso   1.00
O506   O     0.27922   0.93982   0.23262   0.00000  Uiso   1.00
O507   O     0.29317   0.72782   0.30768   0.00000  Uiso   1.00
O508   O     0.04016   0.93884   0.19232   0.00000  Uiso   1.00
O509   O     0.22774   0.79513   0.25001   0.00000  Uiso   1.00
O510   O     0.22774   0.87154   0.25001   0.00000  Uiso   1.00
O511   O     0.10559   0.79513   0.25000   0.00000  Uiso   1.00
O512   O     0.16666   0.87156   0.18393   0.00000  Uiso   1.00
O513   O     0.16667   0.79511   0.31608   0.00000  Uiso   1.00
O514   O     0.16667   0.87156   0.31608   0.00000  Uiso   1.00
O515   O     0.16666   0.79511   0.18393   0.00000  Uiso   1.00
O516   O     0.27503   0.84409   0.38887   0.00000  Uiso   1.00
Zn517  Zn    0.16667   0.88437   0.25000   0.00000  Uiso   1.00
Zn518  Zn    0.16667   0.78229   0.25000   0.00000  Uiso   1.00
C519   C     0.41998   0.83248   0.24861   0.00000  Uiso   1.00
C520   C     0.37565   0.83050   0.24611   0.00000  Uiso   1.00
C521   C     0.52126   0.69110   0.28133   0.00000  Uiso   1.00
C522   C     0.47874   0.97557   0.21867   0.00000  Uiso   1.00
C523   C     0.47869   0.69024   0.21870   0.00000  Uiso   1.00
C524   C     0.52131   0.97643   0.28130   0.00000  Uiso   1.00
C525   C     0.49955   0.83337   0.16363   0.00000  Uiso   1.00
C526   C     0.50045   0.83330   0.33637   0.00000  Uiso   1.00
C527   C     0.53672   0.84723   0.40581   0.00000  Uiso   1.00
C528   C     0.46328   0.81944   0.09419   0.00000  Uiso   1.00
C529   C     0.50037   0.83359   0.38406   0.00000  Uiso   1.00
C530   C     0.58002   0.83418   0.25139   0.00000  Uiso   1.00
C531   C     0.49963   0.83308   0.11594   0.00000  Uiso   1.00
C532   C     0.46426   0.81907   0.40730   0.00000  Uiso   1.00
C533   C     0.53573   0.84763   0.09270   0.00000  Uiso   1.00
C534   C     0.46459   0.81738   0.45386   0.00000  Uiso   1.00
C535   C     0.53539   0.84933   0.04614   0.00000  Uiso   1.00
C536   C     0.50024   0.83299   0.47654   0.00000  Uiso   1.00
C537   C     0.49975   0.83371   0.02346   0.00000  Uiso   1.00
C538   C     0.53619   0.84836   0.45251   0.00000  Uiso   1.00
C539   C     0.46380   0.81833   0.04749   0.00000  Uiso   1.00
C540   C     0.42971   0.80146   0.47835   0.00000  Uiso   1.00
C541   C     0.42963   0.80116   0.02422   0.00000  Uiso   1.00
C542   C     0.57026   0.86526   0.02165   0.00000  Uiso   1.00
C543   C     0.57491   0.85910   0.37898   0.00000  Uiso   1.00
C544   C     0.42510   0.80754   0.12103   0.00000  Uiso   1.00
C545   C     0.42604   0.80674   0.38276   0.00000  Uiso   1.00
C546   C     0.57395   0.85996   0.11724   0.00000  Uiso   1.00
C547   C     0.37294   0.75652   0.29060   0.00000  Uiso   1.00
C548   C     0.62706   0.91015   0.20939   0.00000  Uiso   1.00
C549   C     0.61942   0.76828   0.30589   0.00000  Uiso   1.00
C550   C     0.38058   0.89839   0.19411   0.00000  Uiso   1.00
C551   C     0.57035   0.86555   0.47578   0.00000  Uiso   1.00
C552   C     0.35294   0.79611   0.26999   0.00000  Uiso   1.00
C553   C     0.64706   0.87056   0.23001   0.00000  Uiso   1.00
C554   C     0.64380   0.80026   0.27577   0.00000  Uiso   1.00
C555   C     0.35620   0.86641   0.22423   0.00000  Uiso   1.00
C556   C     0.62435   0.83617   0.25388   0.00000  Uiso   1.00
H557   H     0.40192   0.78888   0.46263   0.00000  Uiso   1.00
H558   H     0.42695   0.78697   0.15095   0.00000  Uiso   1.00
H559   H     0.40907   0.77532   0.39040   0.00000  Uiso   1.00
H560   H     0.59088   0.89141   0.10962   0.00000  Uiso   1.00
H561   H     0.37206   0.75210   0.32642   0.00000  Uiso   1.00
H562   H     0.62795   0.91456   0.17358   0.00000  Uiso   1.00
H563   H     0.59365   0.78067   0.32544   0.00000  Uiso   1.00
H564   H     0.40635   0.88600   0.17456   0.00000  Uiso   1.00
H565   H     0.59805   0.87786   0.03737   0.00000  Uiso   1.00
H566   H     0.40242   0.78675   0.04091   0.00000  Uiso   1.00
H567   H     0.59756   0.87997   0.45909   0.00000  Uiso   1.00
H568   H     0.53817   0.70965   0.30640   0.00000  Uiso   1.00
H569   H     0.46183   0.95702   0.19360   0.00000  Uiso   1.00
H570   H     0.46161   0.70811   0.19375   0.00000  Uiso   1.00
H571   H     0.53839   0.95856   0.30625   0.00000  Uiso   1.00
H572   H     0.57307   0.87964   0.34903   0.00000  Uiso   1.00
N573   N     0.50000   0.95240   0.25000   0.00000  Uiso   1.00
N574   N     0.50000   0.71427   0.25000   0.00000  Uiso   1.00
O575   O     0.43892   0.87154   0.25000   0.00000  Uiso   1.00
O576   O     0.39164   0.82255   0.11116   0.00000  Uiso   1.00
O577   O     0.41284   0.83230   0.35454   0.00000  Uiso   1.00
O578   O     0.58717   0.83439   0.14542   0.00000  Uiso   1.00
O579   O     0.38744   0.72684   0.26738   0.00000  Uiso   1.00
O580   O     0.61256   0.93982   0.23262   0.00000  Uiso   1.00
O581   O     0.62650   0.72782   0.30768   0.00000  Uiso   1.00
O582   O     0.37350   0.93884   0.19232   0.00000  Uiso   1.00
O583   O     0.56108   0.79513   0.25001   0.00000  Uiso   1.00
O584   O     0.56108   0.87154   0.25001   0.00000  Uiso   1.00
O585   O     0.43892   0.79513   0.25000   0.00000  Uiso   1.00
O586   O     0.49999   0.87156   0.18393   0.00000  Uiso   1.00
O587   O     0.50001   0.79511   0.31608   0.00000  Uiso   1.00
O588   O     0.50001   0.87156   0.31608   0.00000  Uiso   1.00
O589   O     0.49999   0.79511   0.18393   0.00000  Uiso   1.00
O590   O     0.60837   0.84409   0.38887   0.00000  Uiso   1.00
Zn591  Zn    0.50000   0.88437   0.25000   0.00000  Uiso   1.00
Zn592  Zn    0.50000   0.78229   0.25000   0.00000  Uiso   1.00
C593   C     0.75331   0.83248   0.24861   0.00000  Uiso   1.00
C594   C     0.70899   0.83050   0.24611   0.00000  Uiso   1.00
C595   C     0.85459   0.69110   0.28133   0.00000  Uiso   1.00
C596   C     0.81207   0.97557   0.21867   0.00000  Uiso   1.00
C597   C     0.81203   0.69024   0.21870   0.00000  Uiso   1.00
C598   C     0.85464   0.97643   0.28130   0.00000  Uiso   1.00
C599   C     0.83288   0.83337   0.16363   0.00000  Uiso   1.00
C600   C     0.83378   0.83330   0.33637   0.00000  Uiso   1.00
C601   C     0.87005   0.84723   0.40581   0.00000  Uiso   1.00
C602   C     0.79661   0.81944   0.09419   0.00000  Uiso   1.00
C603   C     0.83370   0.83359   0.38406   0.00000  Uiso   1.00
C604   C     0.91335   0.83418   0.25139   0.00000  Uiso   1.00
C605   C     0.83296   0.83308   0.11594   0.00000  Uiso   1.00
C606   C     0.79760   0.81907   0.40730   0.00000  Uiso   1.00
C607   C     0.86906   0.84763   0.09270   0.00000  Uiso   1.00
C608   C     0.79793   0.81738   0.45386   0.00000  Uiso   1.00
C609   C     0.86872   0.84933   0.04614   0.00000  Uiso   1.00
C610   C     0.83357   0.83299   0.47654   0.00000  Uiso   1.00
C611   C     0.83308   0.83371   0.02346   0.00000  Uiso   1.00
C612   C     0.86952   0.84836   0.45251   0.00000  Uiso   1.00
C613   C     0.79713   0.81833   0.04749   0.00000  Uiso   1.00
C614   C     0.76305   0.80146   0.47835   0.00000  Uiso   1.00
C615   C     0.76296   0.80116   0.02422   0.00000  Uiso   1.00
C616   C     0.90360   0.86526   0.02165   0.00000  Uiso   1.00
C617   C     0.90824   0.85910   0.37898   0.00000  Uiso   1.00
C618   C     0.75843   0.80754   0.12103   0.00000  Uiso   1.00
C619   C     0.75937   0.80674   0.38276   0.00000  Uiso   1.00
C620   C     0.90728   0.85996   0.11724   0.00000  Uiso   1.00
C621   C     0.70628   0.75652   0.29060   0.00000  Uiso   1.00
C622   C     0.96039   0.91015   0.20939   0.00000  Uiso   1.00
C623   C     0.95276   0.76828   0.30589   0.00000  Uiso   1.00
C624   C     0.71391   0.89839   0.19411   0.00000  Uiso   1.00
C625   C     0.90368   0.86555   0.47578   0.00000  Uiso   1.00
C626   C     0.68627   0.79611   0.26999   0.00000  Uiso   1.00
C627   C     0.98039   0.87056   0.23001   0.00000  Uiso   1.00
C628   C     0.97714   0.80026   0.27577   0.00000  Uiso   1.00
C629   C     0.68953   0.86641   0.22423   0.00000  Uiso   1.00
C630   C     0.95768   0.83617   0.25388   0.00000  Uiso   1.00
H631   H     0.73525   0.78888   0.46263   0.00000  Uiso   1.00
H632   H     0.76028   0.78697   0.15095   0.00000  Uiso   1.00
H633   H     0.74241   0.77532   0.39040   0.00000  Uiso   1.00
H634   H     0.92421   0.89141   0.10962   0.00000  Uiso   1.00
H635   H     0.70539   0.75210   0.32642   0.00000  Uiso   1.00
H636   H     0.96128   0.91456   0.17358   0.00000  Uiso   1.00
H637   H     0.92699   0.78067   0.32544   0.00000  Uiso   1.00
H638   H     0.73968   0.88600   0.17456   0.00000  Uiso   1.00
H639   H     0.93139   0.87786   0.03737   0.00000  Uiso   1.00
H640   H     0.73575   0.78675   0.04091   0.00000  Uiso   1.00
H641   H     0.93089   0.87997   0.45909   0.00000  Uiso   1.00
H642   H     0.87151   0.70965   0.30640   0.00000  Uiso   1.00
H643   H     0.79516   0.95702   0.19360   0.00000  Uiso   1.00
H644   H     0.79494   0.70811   0.19375   0.00000  Uiso   1.00
H645   H     0.87173   0.95856   0.30625   0.00000  Uiso   1.00
H646   H     0.90640   0.87964   0.34903   0.00000  Uiso   1.00
N647   N     0.83333   0.95240   0.25000   0.00000  Uiso   1.00
N648   N     0.83333   0.71427   0.25000   0.00000  Uiso   1.00
O649   O     0.77226   0.87154   0.25000   0.00000  Uiso   1.00
O650   O     0.72497   0.82255   0.11116   0.00000  Uiso   1.00
O651   O     0.74618   0.83230   0.35454   0.00000  Uiso   1.00
O652   O     0.92050   0.83439   0.14542   0.00000  Uiso   1.00
O653   O     0.72077   0.72684   0.26738   0.00000  Uiso   1.00
O654   O     0.94589   0.93982   0.23262   0.00000  Uiso   1.00
O655   O     0.95984   0.72782   0.30768   0.00000  Uiso   1.00
O656   O     0.70683   0.93884   0.19232   0.00000  Uiso   1.00
O657   O     0.89441   0.79513   0.25001   0.00000  Uiso   1.00
O658   O     0.89441   0.87154   0.25001   0.00000  Uiso   1.00
O659   O     0.77226   0.79513   0.25000   0.00000  Uiso   1.00
O660   O     0.83333   0.87156   0.18393   0.00000  Uiso   1.00
O661   O     0.83334   0.79511   0.31608   0.00000  Uiso   1.00
O662   O     0.83334   0.87156   0.31608   0.00000  Uiso   1.00
O663   O     0.83333   0.79511   0.18393   0.00000  Uiso   1.00
O664   O     0.94170   0.84409   0.38887   0.00000  Uiso   1.00
Zn665  Zn    0.83333   0.88437   0.25000   0.00000  Uiso   1.00
Zn666  Zn    0.83333   0.78229   0.25000   0.00000  Uiso   1.00
C667   C     0.08665   0.16581   0.74861   0.00000  Uiso   1.00
C668   C     0.04232   0.16383   0.74611   0.00000  Uiso   1.00
C669   C     0.18793   0.02443   0.78133   0.00000  Uiso   1.00
C670   C     0.14541   0.30890   0.71867   0.00000  Uiso   1.00
C671   C     0.14536   0.02357   0.71870   0.00000  Uiso   1.00
C672   C     0.18797   0.30976   0.78130   0.00000  Uiso   1.00
C673   C     0.16622   0.16670   0.66363   0.00000  Uiso   1.00
C674   C     0.16712   0.16663   0.83637   0.00000  Uiso   1.00
C675   C     0.20339   0.18056   0.90581   0.00000  Uiso   1.00
C676   C     0.12994   0.15278   0.59419   0.00000  Uiso   1.00
C677   C     0.16703   0.16692   0.88406   0.00000  Uiso   1.00
C678   C     0.24669   0.16752   0.75139   0.00000  Uiso   1.00
C679   C     0.16630   0.16641   0.61594   0.00000  Uiso   1.00
C680   C     0.13093   0.15240   0.90730   0.00000  Uiso   1.00
C681   C     0.20239   0.18096   0.59270   0.00000  Uiso   1.00
C682   C     0.13126   0.15071   0.95386   0.00000  Uiso   1.00
C683   C     0.20206   0.18266   0.54614   0.00000  Uiso   1.00
C684   C     0.16690   0.16632   0.97654   0.00000  Uiso   1.00
C685   C     0.16642   0.16704   0.52346   0.00000  Uiso   1.00
C686   C     0.20285   0.18169   0.95251   0.00000  Uiso   1.00
C687   C     0.13047   0.15167   0.54749   0.00000  Uiso   1.00
C688   C     0.09638   0.13480   0.97835   0.00000  Uiso   1.00
C689   C     0.09630   0.13450   0.52422   0.00000  Uiso   1.00
C690   C     0.23693   0.19859   0.52165   0.00000  Uiso   1.00
C691   C     0.24157   0.19243   0.87898   0.00000  Uiso   1.00
C692   C     0.09177   0.14088   0.62103   0.00000  Uiso   1.00
C693   C     0.09270   0.14007   0.88276   0.00000  Uiso   1.00
C694   C     0.24062   0.19330   0.61724   0.00000  Uiso   1.00
C695   C     0.03961   0.08985   0.79060   0.00000  Uiso   1.00
C696   C     0.29372   0.24348   0.70939   0.00000  Uiso   1.00
C697   C     0.28609   0.10161   0.80589   0.00000  Uiso   1.00
C698   C     0.04724   0.23172   0.69411   0.00000  Uiso   1.00
C699   C     0.23702   0.19888   0.97578   0.00000  Uiso   1.00
C700   C     0.01961   0.12944   0.76999   0.00000  Uiso   1.00
C701   C     0.31373   0.20389   0.73001   0.00000  Uiso   1.00
C702   C     0.31047   0.13359   0.77577   0.00000  Uiso   1.00
C703   C     0.02287   0.19974   0.72423   0.00000  Uiso   1.00
C704   C     0.29101   0.16950   0.75388   0.00000  Uiso   1.00
H705   H     0.06858   0.12221   0.96263   0.00000  Uiso   1.00
H706   H     0.09362   0.12030   0.65095   0.00000  Uiso   1.00
H707   H     0.07574   0.10865   0.89040   0.00000  Uiso   1.00
H708   H     0.25755   0.22474   0.60962   0.00000  Uiso   1.00
H709   H     0.03873   0.08544   0.82642   0.00000  Uiso   1.00
H710   H     0.29461   0.24790   0.67358   0.00000  Uiso   1.00
H711   H     0.26032   0.11400   0.82544   0.00000  Uiso   1.00
H712   H     0.07302   0.21933   0.67456   0.00000  Uiso   1.00
H713   H     0.26472   0.21119   0.53737   0.00000  Uiso   1.00
H714   H     0.06908   0.12008   0.54091   0.00000  Uiso   1.00
H715   H     0.26423   0.21330   0.95909   0.00000  Uiso   1.00
H716   H     0.20484   0.04298   0.80640   0.00000  Uiso   1.00
H717   H     0.12849   0.29035   0.69360   0.00000  Uiso   1.00
H718   H     0.12827   0.04144   0.69375   0.00000  Uiso   1.00
H719   H     0.20506   0.29189   0.80625   0.00000  Uiso   1.00
H720   H     0.23974   0.21298   0.84903   0.00000  Uiso   1.00
N721   N     0.16667   0.28573   0.75000   0.00000  Uiso   1.00
N722   N     0.16667   0.04760   0.75000   0.00000  Uiso   1.00
O723   O     0.10559   0.20487   0.75000   0.00000  Uiso   1.00
O724   O     0.05830   0.15589   0.61116   0.00000  Uiso   1.00
O725   O     0.07951   0.16563   0.85454   0.00000  Uiso   1.00
O726   O     0.25384   0.16772   0.64542   0.00000  Uiso   1.00
O727   O     0.05410   0.06017   0.76738   0.00000  Uiso   1.00
O728   O     0.27922   0.27315   0.73262   0.00000  Uiso   1.00
O729   O     0.29317   0.06116   0.80768   0.00000  Uiso   1.00
O730   O     0.04016   0.27218   0.69232   0.00000  Uiso   1.00
O731   O     0.22774   0.12846   0.75001   0.00000  Uiso   1.00
O732   O     0.22774   0.20487   0.75001   0.00000  Uiso   1.00
O733   O     0.10559   0.12846   0.75000   0.00000  Uiso   1.00
O734   O     0.16666   0.20489   0.68393   0.00000  Uiso   1.00
O735   O     0.16667   0.12844   0.81608   0.00000  Uiso   1.00
O736   O     0.16667   0.20489   0.81608   0.00000  Uiso   1.00
O737   O     0.16666   0.12844   0.68393   0.00000  Uiso   1.00
O738   O     0.27503   0.17743   0.88887   0.00000  Uiso   1.00
Zn739  Zn    0.16667   0.21771   0.75000   0.00000  Uiso   1.00
Zn740  Zn    0.16667   0.11563   0.75000   0.00000  Uiso   1.00
C741   C     0.41998   0.16581   0.74861   0.00000  Uiso   1.00
C742   C     0.37565   0.16383   0.74611   0.00000  Uiso   1.00
C743   C     0.52126   0.02443   0.78133   0.00000  Uiso   1.00
C744   C     0.47874   0.30890   0.71867   0.00000  Uiso   1.00
C745   C     0.47869   0.02357   0.71870   0.00000  Uiso   1.00
C746   C     0.52131   0.30976   0.78130   0.00000  Uiso   1.00
C747   C     0.49955   0.16670   0.66363   0.00000  Uiso   1.00
C748   C     0.50045   0.16663   0.83637   0.00000  Uiso   1.00
C749   C     0.53672   0.18056   0.90581   0.00000  Uiso   1.00
C750   C     0.46328   0.15278   0.59419   0.00000  Uiso   1.00
C751   C     0.50037   0.16692   0.88406   0.00000  Uiso   1.00
C752   C     0.58002   0.16752   0.75139   0.00000  Uiso   1.00
C753   C     0.49963   0.16641   0.61594   0.00000  Uiso   1.00
C754   C     0.46426   0.15240   0.90730   0.00000  Uiso   1.00
C755   C     0.53573   0.18096   0.59270   0.00000  Uiso   1.00
C756   C     0.46459   0.15071   0.95386   0.00000  Uiso   1.00
C757   C     0.53539   0.18266   0.54614   0.00000  Uiso   1.00
C758   C     0.50024   0.16632   0.97654   0.00000  Uiso   1.00
C759   C     0.49975   0.16704   0.52346   0.00000  Uiso   1.00
C760   C     0.53619   0.18169   0.95251   0.00000  Uiso   1.00
C761   C     0.46380   0.15167   0.54749   0.00000  Uiso   1.00
C762   C     0.42971   0.13480   0.97835   0.00000  Uiso   1.00
C763   C     0.42963   0.13450   0.52422   0.00000  Uiso   1.00
C764   C     0.57026   0.19859   0.52165   0.00000  Uiso   1.00
C765   C     0.57491   0.19243   0.87898   0.00000  Uiso   1.00
C766   C     0.42510   0.14088   0.62103   0.00000  Uiso   1.00
C767   C     0.42604   0.14007   0.88276   0.00000  Uiso   1.00
C768   C     0.57395   0.19330   0.61724   0.00000  Uiso   1.00
C769   C     0.37294   0.08985   0.79060   0.00000  Uiso   1.00
C770   C     0.62706   0.24348   0.70939   0.00000  Uiso   1.00
C771   C     0.61942   0.10161   0.80589   0.00000  Uiso   1.00
C772   C     0.38058   0.23172   0.69411   0.00000  Uiso   1.00
C773   C     0.57035   0.19888   0.97578   0.00000  Uiso   1.00
C774   C     0.35294   0.12944   0.76999   0.00000  Uiso   1.00
C775   C     0.64706   0.20389   0.73001   0.00000  Uiso   1.00
C776   C     0.64380   0.13359   0.77577   0.00000  Uiso   1.00
C777   C     0.35620   0.19974   0.72423   0.00000  Uiso   1.00
C778   C     0.62435   0.16950   0.75388   0.00000  Uiso   1.00
H779   H     0.40192   0.12221   0.96263   0.00000  Uiso   1.00
H780   H     0.42695   0.12030   0.65095   0.00000  Uiso   1.00
H781   H     0.40907   0.10865   0.89040   0.00000  Uiso   1.00
H782   H     0.59088   0.22474   0.60962   0.00000  Uiso   1.00
H783   H     0.37206   0.08544   0.82642   0.00000  Uiso   1.00
H784   H     0.62795   0.24790   0.67358   0.00000  Uiso   1.00
H785   H     0.59365   0.11400   0.82544   0.00000  Uiso   1.00
H786   H     0.40635   0.21933   0.67456   0.00000  Uiso   1.00
H787   H     0.59805   0.21119   0.53737   0.00000  Uiso   1.00
H788   H     0.40242   0.12008   0.54091   0.00000  Uiso   1.00
H789   H     0.59756   0.21330   0.95909   0.00000  Uiso   1.00
H790   H     0.53817   0.04298   0.80640   0.00000  Uiso   1.00
H791   H     0.46183   0.29035   0.69360   0.00000  Uiso   1.00
H792   H     0.46161   0.04144   0.69375   0.00000  Uiso   1.00
H793   H     0.53839   0.29189   0.80625   0.00000  Uiso   1.00
H794   H     0.57307   0.21298   0.84903   0.00000  Uiso   1.00
N795   N     0.50000   0.28573   0.75000   0.00000  Uiso   1.00
N796   N     0.50000   0.04760   0.75000   0.00000  Uiso   1.00
O797   O     0.43892   0.20487   0.75000   0.00000  Uiso   1.00
O798   O     0.39164   0.15589   0.61116   0.00000  Uiso   1.00
O799   O     0.41284   0.16563   0.85454   0.00000  Uiso   1.00
O800   O     0.58717   0.16772   0.64542   0.00000  Uiso   1.00
O801   O     0.38744   0.06017   0.76738   0.00000  Uiso   1.00
O802   O     0.61256   0.27315   0.73262   0.00000  Uiso   1.00
O803   O     0.62650   0.06116   0.80768   0.00000  Uiso   1.00
O804   O     0.37350   0.27218   0.69232   0.00000  Uiso   1.00
O805   O     0.56108   0.12846   0.75001   0.00000  Uiso   1.00
O806   O     0.56108   0.20487   0.75001   0.00000  Uiso   1.00
O807   O     0.43892   0.12846   0.75000   0.00000  Uiso   1.00
O808   O     0.49999   0.20489   0.68393   0.00000  Uiso   1.00
O809   O     0.50001   0.12844   0.81608   0.00000  Uiso   1.00
O810   O     0.50001   0.20489   0.81608   0.00000  Uiso   1.00
O811   O     0.49999   0.12844   0.68393   0.00000  Uiso   1.00
O812   O     0.60837   0.17743   0.88887   0.00000  Uiso   1.00
Zn813  Zn    0.50000   0.21771   0.75000   0.00000  Uiso   1.00
Zn814  Zn    0.50000   0.11563   0.75000   0.00000  Uiso   1.00
C815   C     0.75331   0.16581   0.74861   0.00000  Uiso   1.00
C816   C     0.70899   0.16383   0.74611   0.00000  Uiso   1.00
C817   C     0.85459   0.02443   0.78133   0.00000  Uiso   1.00
C818   C     0.81207   0.30890   0.71867   0.00000  Uiso   1.00
C819   C     0.81203   0.02357   0.71870   0.00000  Uiso   1.00
C820   C     0.85464   0.30976   0.78130   0.00000  Uiso   1.00
C821   C     0.83288   0.16670   0.66363   0.00000  Uiso   1.00
C822   C     0.83378   0.16663   0.83637   0.00000  Uiso   1.00
C823   C     0.87005   0.18056   0.90581   0.00000  Uiso   1.00
C824   C     0.79661   0.15278   0.59419   0.00000  Uiso   1.00
C825   C     0.83370   0.16692   0.88406   0.00000  Uiso   1.00
C826   C     0.91335   0.16752   0.75139   0.00000  Uiso   1.00
C827   C     0.83296   0.16641   0.61594   0.00000  Uiso   1.00
C828   C     0.79760   0.15240   0.90730   0.00000  Uiso   1.00
C829   C     0.86906   0.18096   0.59270   0.00000  Uiso   1.00
C830   C     0.79793   0.15071   0.95386   0.00000  Uiso   1.00
C831   C     0.86872   0.18266   0.54614   0.00000  Uiso   1.00
C832   C     0.83357   0.16632   0.97654   0.00000  Uiso   1.00
C833   C     0.83308   0.16704   0.52346   0.00000  Uiso   1.00
C834   C     0.86952   0.18169   0.95251   0.00000  Uiso   1.00
C835   C     0.79713   0.15167   0.54749   0.00000  Uiso   1.00
C836   C     0.76305   0.13480   0.97835   0.00000  Uiso   1.00
C837   C     0.76296   0.13450   0.52422   0.00000  Uiso   1.00
C838   C     0.90360   0.19859   0.52165   0.00000  Uiso   1.00
C839   C     0.90824   0.19243   0.87898   0.00000  Uiso   1.00
C840   C     0.75843   0.14088   0.62103   0.00000  Uiso   1.00
C841   C     0.75937   0.14007   0.88276   0.00000  Uiso   1.00
C842   C     0.90728   0.19330   0.61724   0.00000  Uiso   1.00
C843   C     0.70628   0.08985   0.79060   0.00000  Uiso   1.00
C844   C     0.96039   0.24348   0.70939   0.00000  Uiso   1.00
C845   C     0.95276   0.10161   0.80589   0.00000  Uiso   1.00
C846   C     0.71391   0.23172   0.69411   0.00000  Uiso   1.00
C847   C     0.90368   0.19888   0.97578   0.00000  Uiso   1.00
C848   C     0.68627   0.12944   0.76999   0.00000  Uiso   1.00
C849   C     0.98039   0.20389   0.73001   0.00000  Uiso   1.00
C850   C     0.97714   0.13359   0.77577   0.00000  Uiso   1.00
C851   C     0.68953   0.19974   0.72423   0.00000  Uiso   1.00
C852   C     0.95768   0.16950   0.75388   0.00000  Uiso   1.00
H853   H     0.73525   0.12221   0.96263   0.00000  Uiso   1.00
H854   H     0.76028   0.12030   0.65095   0.00000  Uiso   1.00
H855   H     0.74241   0.10865   0.89040   0.00000  Uiso   1.00
H856   H     0.92421   0.22474   0.60962   0.00000  Uiso   1.00
H857   H     0.70539   0.08544   0.82642   0.00000  Uiso   1.00
H858   H     0.96128   0.24790   0.67358   0.00000  Uiso   1.00
H859   H     0.92699   0.11400   0.82544   0.00000  Uiso   1.00
H860   H     0.73968   0.21933   0.67456   0.00000  Uiso   1.00
H861   H     0.93139   0.21119   0.53737   0.00000  Uiso   1.00
H862   H     0.73575   0.12008   0.54091   0.00000  Uiso   1.00
H863   H     0.93089   0.21330   0.95909   0.00000  Uiso   1.00
H864   H     0.87151   0.04298   0.80640   0.00000  Uiso   1.00
H865   H     0.79516   0.29035   0.69360   0.00000  Uiso   1.00
H866   H     0.79494   0.04144   0.69375   0.00000  Uiso   1.00
H867   H     0.87173   0.29189   0.80625   0.00000  Uiso   1.00
H868   H     0.90640   0.21298   0.84903   0.00000  Uiso   1.00
N869   N     0.83333   0.28573   0.75000   0.00000  Uiso   1.00
N870   N     0.83333   0.04760   0.75000   0.00000  Uiso   1.00
O871   O     0.77226   0.20487   0.75000   0.00000  Uiso   1.00
O872   O     0.72497   0.15589   0.61116   0.00000  Uiso   1.00
O873   O     0.74618   0.16563   0.85454   0.00000  Uiso   1.00
O874   O     0.92050   0.16772   0.64542   0.00000  Uiso   1.00
O875   O     0.72077   0.06017   0.76738   0.00000  Uiso   1.00
O876   O     0.94589   0.27315   0.73262   0.00000  Uiso   1.00
O877   O     0.95984   0.06116   0.80768   0.00000  Uiso   1.00
O878   O     0.70683   0.27218   0.69232   0.00000  Uiso   1.00
O879   O     0.89441   0.12846   0.75001   0.00000  Uiso   1.00
O880   O     0.89441   0.20487   0.75001   0.00000  Uiso   1.00
O881   O     0.77226   0.12846   0.75000   0.00000  Uiso   1.00
O882   O     0.83333   0.20489   0.68393   0.00000  Uiso   1.00
O883   O     0.83334   0.12844   0.81608   0.00000  Uiso   1.00
O884   O     0.83334   0.20489   0.81608   0.00000  Uiso   1.00
O885   O     0.83333   0.12844   0.68393   0.00000  Uiso   1.00
O886   O     0.94170   0.17743   0.88887   0.00000  Uiso   1.00
Zn887  Zn    0.83333   0.21771   0.75000   0.00000  Uiso   1.00
Zn888  Zn    0.83333   0.11563   0.75000   0.00000  Uiso   1.00
C889   C     0.08665   0.49915   0.74861   0.00000  Uiso   1.00
C890   C     0.04232   0.49716   0.74611   0.00000  Uiso   1.00
C891   C     0.18793   0.35776   0.78133   0.00000  Uiso   1.00
C892   C     0.14541   0.64224   0.71867   0.00000  Uiso   1.00
C893   C     0.14536   0.35690   0.71870   0.00000  Uiso   1.00
C894   C     0.18797   0.64310   0.78130   0.00000  Uiso   1.00
C895   C     0.16622   0.50003   0.66363   0.00000  Uiso   1.00
C896   C     0.16712   0.49997   0.83637   0.00000  Uiso   1.00
C897   C     0.20339   0.51389   0.90581   0.00000  Uiso   1.00
C898   C     0.12994   0.48611   0.59419   0.00000  Uiso   1.00
C899   C     0.16703   0.50026   0.88406   0.00000  Uiso   1.00
C900   C     0.24669   0.50085   0.75139   0.00000  Uiso   1.00
C901   C     0.16630   0.49975   0.61594   0.00000  Uiso   1.00
C902   C     0.13093   0.48573   0.90730   0.00000  Uiso   1.00
C903   C     0.20239   0.51430   0.59270   0.00000  Uiso   1.00
C904   C     0.13126   0.48405   0.95386   0.00000  Uiso   1.00
C905   C     0.20206   0.51599   0.54614   0.00000  Uiso   1.00
C906   C     0.16690   0.49966   0.97654   0.00000  Uiso   1.00
C907   C     0.16642   0.50038   0.52346   0.00000  Uiso   1.00
C908   C     0.20285   0.51502   0.95251   0.00000  Uiso   1.00
C909   C     0.13047   0.48500   0.54749   0.00000  Uiso   1.00
C910   C     0.09638   0.46813   0.97835   0.00000  Uiso   1.00
C911   C     0.09630   0.46783   0.52422   0.00000  Uiso   1.00
C912   C     0.23693   0.53192   0.52165   0.00000  Uiso   1.00
C913   C     0.24157   0.52577   0.87898   0.00000  Uiso   1.00
C914   C     0.09177   0.47421   0.62103   0.00000  Uiso   1.00
C915   C     0.09270   0.47341   0.88276   0.00000  Uiso   1.00
C916   C     0.24062   0.52663   0.61724   0.00000  Uiso   1.00
C917   C     0.03961   0.42318   0.79060   0.00000  Uiso   1.00
C918   C     0.29372   0.57682   0.70939   0.00000  Uiso   1.00
C919   C     0.28609   0.43494   0.80589   0.00000  Uiso   1.00
C920   C     0.04724   0.56505   0.69411   0.00000  Uiso   1.00
C921   C     0.23702   0.53221   0.97578   0.00000  Uiso   1.00
C922   C     0.01961   0.46278   0.76999   0.00000  Uiso   1.00
C923   C     0.31373   0.53722   0.73001   0.00000  Uiso   1.00
C924   C     0.31047   0.46693   0.77577   0.00000  Uiso   1.00
C925   C     0.02287   0.53307   0.72423   0.00000  Uiso   1.00
C926   C     0.29101   0.50284   0.75388   0.00000  Uiso   1.00
H927   H     0.06858   0.45554   0.96263   0.00000  Uiso   1.00
H928   H     0.09362   0.45363   0.65095   0.00000  Uiso   1.00
H929   H     0.07574   0.44199   0.89040   0.00000  Uiso   1.00
H930   H     0.25755   0.55808   0.60962   0.00000  Uiso   1.00
H931   H     0.03873   0.41877   0.82642   0.00000  Uiso   1.00
H932   H     0.29461   0.58123   0.67358   0.00000  Uiso   1.00
H933   H     0.26032   0.44733   0.82544   0.00000  Uiso   1.00
H934   H     0.07302   0.55266   0.67456   0.00000  Uiso   1.00
H935   H     0.26472   0.54453   0.53737   0.00000  Uiso   1.00
H936   H     0.06908   0.45341   0.54091   0.00000  Uiso   1.00
H937   H     0.26423   0.54664   0.95909   0.00000  Uiso   1.00
H938   H     0.20484   0.37632   0.80640   0.00000  Uiso   1.00
H939   H     0.12849   0.62368   0.69360   0.00000  Uiso   1.00
H940   H     0.12827   0.37477   0.69375   0.00000  Uiso   1.00
H941   H     0.20506   0.62523   0.80625   0.00000  Uiso   1.00
H942   H     0.23974   0.54631   0.84903   0.00000  Uiso   1.00
N943   N     0.16667   0.61907   0.75000   0.00000  Uiso   1.00
N944   N     0.16667   0.38093   0.75000   0.00000  Uiso   1.00
O945   O     0.10559   0.53821   0.75000   0.00000  Uiso   1.00
O946   O     0.05830   0.48922   0.61116   0.00000  Uiso   1.00
O947   O     0.07951   0.49897   0.85454   0.00000  Uiso   1.00
O948   O     0.25384   0.50106   0.64542   0.00000  Uiso   1.00
O949   O     0.05410   0.39351   0.76738   0.00000  Uiso   1.00
O950   O     0.27922   0.60649   0.73262   0.00000  Uiso   1.00
O951   O     0.29317   0.39449   0.80768   0.00000  Uiso   1.00
O952   O     0.04016   0.60551   0.69232   0.00000  Uiso   1.00
O953   O     0.22774   0.46179   0.75001   0.00000  Uiso   1.00
O954   O     0.22774   0.53821   0.75001   0.00000  Uiso   1.00
O955   O     0.10559   0.46179   0.75000   0.00000  Uiso   1.00
O956   O     0.16666   0.53823   0.68393   0.00000  Uiso   1.00
O957   O     0.16667   0.46177   0.81608   0.00000  Uiso   1.00
O958   O     0.16667   0.53823   0.81608   0.00000  Uiso   1.00
O959   O     0.16666   0.46177   0.68393   0.00000  Uiso   1.00
O960   O     0.27503   0.51076   0.88887   0.00000  Uiso   1.00
Zn961  Zn    0.16667   0.55104   0.75000   0.00000  Uiso   1.00
Zn962  Zn    0.16667   0.44896   0.75000   0.00000  Uiso   1.00
C963   C     0.41998   0.49915   0.74861   0.00000  Uiso   1.00
C964   C     0.37565   0.49716   0.74611   0.00000  Uiso   1.00
C965   C     0.52126   0.35776   0.78133   0.00000  Uiso   1.00
C966   C     0.47874   0.64224   0.71867   0.00000  Uiso   1.00
C967   C     0.47869   0.35690   0.71870   0.00000  Uiso   1.00
C968   C     0.52131   0.64310   0.78130   0.00000  Uiso   1.00
C969   C     0.49955   0.50003   0.66363   0.00000  Uiso   1.00
C970   C     0.50045   0.49997   0.83637   0.00000  Uiso   1.00
C971   C     0.53672   0.51389   0.90581   0.00000  Uiso   1.00
C972   C     0.46328   0.48611   0.59419   0.00000  Uiso   1.00
C973   C     0.50037   0.50026   0.88406   0.00000  Uiso   1.00
C974   C     0.58002   0.50085   0.75139   0.00000  Uiso   1.00
C975   C     0.49963   0.49975   0.61594   0.00000  Uiso   1.00
C976   C     0.46426   0.48573   0.90730   0.00000  Uiso   1.00
C977   C     0.53573   0.51430   0.59270   0.00000  Uiso   1.00
C978   C     0.46459   0.48405   0.95386   0.00000  Uiso   1.00
C979   C     0.53539   0.51599   0.54614   0.00000  Uiso   1.00
C980   C     0.50024   0.49966   0.97654   0.00000  Uiso   1.00
C981   C     0.49975   0.50038   0.52346   0.00000  Uiso   1.00
C982   C     0.53619   0.51502   0.95251   0.00000  Uiso   1.00
C983   C     0.46380   0.48500   0.54749   0.00000  Uiso   1.00
C984   C     0.42971   0.46813   0.97835   0.00000  Uiso   1.00
C985   C     0.42963   0.46783   0.52422   0.00000  Uiso   1.00
C986   C     0.57026   0.53192   0.52165   0.00000  Uiso   1.00
C987   C     0.57491   0.52577   0.87898   0.00000  Uiso   1.00
C988   C     0.42510   0.47421   0.62103   0.00000  Uiso   1.00
C989   C     0.42604   0.47341   0.88276   0.00000  Uiso   1.00
C990   C     0.57395   0.52663   0.61724   0.00000  Uiso   1.00
C991   C     0.37294   0.42318   0.79060   0.00000  Uiso   1.00
C992   C     0.62706   0.57682   0.70939   0.00000  Uiso   1.00
C993   C     0.61942   0.43494   0.80589   0.00000  Uiso   1.00
C994   C     0.38058   0.56505   0.69411   0.00000  Uiso   1.00
C995   C     0.57035   0.53221   0.97578   0.00000  Uiso   1.00
C996   C     0.35294   0.46278   0.76999   0.00000  Uiso   1.00
C997   C     0.64706   0.53722   0.73001   0.00000  Uiso   1.00
C998   C     0.64380   0.46693   0.77577   0.00000  Uiso   1.00
C999   C     0.35620   0.53307   0.72423   0.00000  Uiso   1.00
C1000  C     0.62435   0.50284   0.75388   0.00000  Uiso   1.00
H1001  H     0.40192   0.45554   0.96263   0.00000  Uiso   1.00
H1002  H     0.42695   0.45363   0.65095   0.00000  Uiso   1.00
H1003  H     0.40907   0.44199   0.89040   0.00000  Uiso   1.00
H1004  H     0.59088   0.55808   0.60962   0.00000  Uiso   1.00
H1005  H     0.37206   0.41877   0.82642   0.00000  Uiso   1.00
H1006  H     0.62795   0.58123   0.67358   0.00000  Uiso   1.00
H1007  H     0.59365   0.44733   0.82544   0.00000  Uiso   1.00
H1008  H     0.40635   0.55266   0.67456   0.00000  Uiso   1.00
H1009  H     0.59805   0.54453   0.53737   0.00000  Uiso   1.00
H1010  H     0.40242   0.45341   0.54091   0.00000  Uiso   1.00
H1011  H     0.59756   0.54664   0.95909   0.00000  Uiso   1.00
H1012  H     0.53817   0.37632   0.80640   0.00000  Uiso   1.00
H1013  H     0.46183   0.62368   0.69360   0.00000  Uiso   1.00
H1014  H     0.46161   0.37477   0.69375   0.00000  Uiso   1.00
H1015  H     0.53839   0.62523   0.80625   0.00000  Uiso   1.00
H1016  H     0.57307   0.54631   0.84903   0.00000  Uiso   1.00
N1017  N     0.50000   0.61907   0.75000   0.00000  Uiso   1.00
N1018  N     0.50000   0.38093   0.75000   0.00000  Uiso   1.00
O1019  O     0.43892   0.53821   0.75000   0.00000  Uiso   1.00
O1020  O     0.39164   0.48922   0.61116   0.00000  Uiso   1.00
O1021  O     0.41284   0.49897   0.85454   0.00000  Uiso   1.00
O1022  O     0.58717   0.50106   0.64542   0.00000  Uiso   1.00
O1023  O     0.38744   0.39351   0.76738   0.00000  Uiso   1.00
O1024  O     0.61256   0.60649   0.73262   0.00000  Uiso   1.00
O1025  O     0.62650   0.39449   0.80768   0.00000  Uiso   1.00
O1026  O     0.37350   0.60551   0.69232   0.00000  Uiso   1.00
O1027  O     0.56108   0.46179   0.75001   0.00000  Uiso   1.00
O1028  O     0.56108   0.53821   0.75001   0.00000  Uiso   1.00
O1029  O     0.43892   0.46179   0.75000   0.00000  Uiso   1.00
O1030  O     0.49999   0.53823   0.68393   0.00000  Uiso   1.00
O1031  O     0.50001   0.46177   0.81608   0.00000  Uiso   1.00
O1032  O     0.50001   0.53823   0.81608   0.00000  Uiso   1.00
O1033  O     0.49999   0.46177   0.68393   0.00000  Uiso   1.00
O1034  O     0.60837   0.51076   0.88887   0.00000  Uiso   1.00
Zn1035 Zn    0.50000   0.55104   0.75000   0.00000  Uiso   1.00
Zn1036 Zn    0.50000   0.44896   0.75000   0.00000  Uiso   1.00
C1037  C     0.75331   0.49915   0.74861   0.00000  Uiso   1.00
C1038  C     0.70899   0.49716   0.74611   0.00000  Uiso   1.00
C1039  C     0.85459   0.35776   0.78133   0.00000  Uiso   1.00
C1040  C     0.81207   0.64224   0.71867   0.00000  Uiso   1.00
C1041  C     0.81203   0.35690   0.71870   0.00000  Uiso   1.00
C1042  C     0.85464   0.64310   0.78130   0.00000  Uiso   1.00
C1043  C     0.83288   0.50003   0.66363   0.00000  Uiso   1.00
C1044  C     0.83378   0.49997   0.83637   0.00000  Uiso   1.00
C1045  C     0.87005   0.51389   0.90581   0.00000  Uiso   1.00
C1046  C     0.79661   0.48611   0.59419   0.00000  Uiso   1.00
C1047  C     0.83370   0.50026   0.88406   0.00000  Uiso   1.00
C1048  C     0.91335   0.50085   0.75139   0.00000  Uiso   1.00
C1049  C     0.83296   0.49975   0.61594   0.00000  Uiso   1.00
C1050  C     0.79760   0.48573   0.90730   0.00000  Uiso   1.00
C1051  C     0.86906   0.51430   0.59270   0.00000  Uiso   1.00
C1052  C     0.79793   0.48405   0.95386   0.00000  Uiso   1.00
C1053  C     0.86872   0.51599   0.54614   0.00000  Uiso   1.00
C1054  C     0.83357   0.49966   0.97654   0.00000  Uiso   1.00
C1055  C     0.83308   0.50038   0.52346   0.00000  Uiso   1.00
C1056  C     0.86952   0.51502   0.95251   0.00000  Uiso   1.00
C1057  C     0.79713   0.48500   0.54749   0.00000  Uiso   1.00
C1058  C     0.76305   0.46813   0.97835   0.00000  Uiso   1.00
C1059  C     0.76296   0.46783   0.52422   0.00000  Uiso   1.00
C1060  C     0.90360   0.53192   0.52165   0.00000  Uiso   1.00
C1061  C     0.90824   0.52577   0.87898   0.00000  Uiso   1.00
C1062  C     0.75843   0.47421   0.62103   0.00000  Uiso   1.00
C1063  C     0.75937   0.47341   0.88276   0.00000  Uiso   1.00
C1064  C     0.90728   0.52663   0.61724   0.00000  Uiso   1.00
C1065  C     0.70628   0.42318   0.79060   0.00000  Uiso   1.00
C1066  C     0.96039   0.57682   0.70939   0.00000  Uiso   1.00
C1067  C     0.95276   0.43494   0.80589   0.00000  Uiso   1.00
C1068  C     0.71391   0.56505   0.69411   0.00000  Uiso   1.00
C1069  C     0.90368   0.53221   0.97578   0.00000  Uiso   1.00
C1070  C     0.68627   0.46278   0.76999   0.00000  Uiso   1.00
C1071  C     0.98039   0.53722   0.73001   0.00000  Uiso   1.00
C1072  C     0.97714   0.46693   0.77577   0.00000  Uiso   1.00
C1073  C     0.68953   0.53307   0.72423   0.00000  Uiso   1.00
C1074  C     0.95768   0.50284   0.75388   0.00000  Uiso   1.00
H1075  H     0.73525   0.45554   0.96263   0.00000  Uiso   1.00
H1076  H     0.76028   0.45363   0.65095   0.00000  Uiso   1.00
H1077  H     0.74241   0.44199   0.89040   0.00000  Uiso   1.00
H1078  H     0.92421   0.55808   0.60962   0.00000  Uiso   1.00
H1079  H     0.70539   0.41877   0.82642   0.00000  Uiso   1.00
H1080  H     0.96128   0.58123   0.67358   0.00000  Uiso   1.00
H1081  H     0.92699   0.44733   0.82544   0.00000  Uiso   1.00
H1082  H     0.73968   0.55266   0.67456   0.00000  Uiso   1.00
H1083  H     0.93139   0.54453   0.53737   0.00000  Uiso   1.00
H1084  H     0.73575   0.45341   0.54091   0.00000  Uiso   1.00
H1085  H     0.93089   0.54664   0.95909   0.00000  Uiso   1.00
H1086  H     0.87151   0.37632   0.80640   0.00000  Uiso   1.00
H1087  H     0.79516   0.62368   0.69360   0.00000  Uiso   1.00
H1088  H     0.79494   0.37477   0.69375   0.00000  Uiso   1.00
H1089  H     0.87173   0.62523   0.80625   0.00000  Uiso   1.00
H1090  H     0.90640   0.54631   0.84903   0.00000  Uiso   1.00
N1091  N     0.83333   0.61907   0.75000   0.00000  Uiso   1.00
N1092  N     0.83333   0.38093   0.75000   0.00000  Uiso   1.00
O1093  O     0.77226   0.53821   0.75000   0.00000  Uiso   1.00
O1094  O     0.72497   0.48922   0.61116   0.00000  Uiso   1.00
O1095  O     0.74618   0.49897   0.85454   0.00000  Uiso   1.00
O1096  O     0.92050   0.50106   0.64542   0.00000  Uiso   1.00
O1097  O     0.72077   0.39351   0.76738   0.00000  Uiso   1.00
O1098  O     0.94589   0.60649   0.73262   0.00000  Uiso   1.00
O1099  O     0.95984   0.39449   0.80768   0.00000  Uiso   1.00
O1100  O     0.70683   0.60551   0.69232   0.00000  Uiso   1.00
O1101  O     0.89441   0.46179   0.75001   0.00000  Uiso   1.00
O1102  O     0.89441   0.53821   0.75001   0.00000  Uiso   1.00
O1103  O     0.77226   0.46179   0.75000   0.00000  Uiso   1.00
O1104  O     0.83333   0.53823   0.68393   0.00000  Uiso   1.00
O1105  O     0.83334   0.46177   0.81608   0.00000  Uiso   1.00
O1106  O     0.83334   0.53823   0.81608   0.00000  Uiso   1.00
O1107  O     0.83333   0.46177   0.68393   0.00000  Uiso   1.00
O1108  O     0.94170   0.51076   0.88887   0.00000  Uiso   1.00
Zn1109 Zn    0.83333   0.55104   0.75000   0.00000  Uiso   1.00
Zn1110 Zn    0.83333   0.44896   0.75000   0.00000  Uiso   1.00
C1111  C     0.08665   0.83248   0.74861   0.00000  Uiso   1.00
C1112  C     0.04232   0.83050   0.74611   0.00000  Uiso   1.00
C1113  C     0.18793   0.69110   0.78133   0.00000  Uiso   1.00
C1114  C     0.14541   0.97557   0.71867   0.00000  Uiso   1.00
C1115  C     0.14536   0.69024   0.71870   0.00000  Uiso   1.00
C1116  C     0.18797   0.97643   0.78130   0.00000  Uiso   1.00
C1117  C     0.16622   0.83337   0.66363   0.00000  Uiso   1.00
C1118  C     0.16712   0.83330   0.83637   0.00000  Uiso   1.00
C1119  C     0.20339   0.84723   0.90581   0.00000  Uiso   1.00
C1120  C     0.12994   0.81944   0.59419   0.00000  Uiso   1.00
C1121  C     0.16703   0.83359   0.88406   0.00000  Uiso   1.00
C1122  C     0.24669   0.83418   0.75139   0.00000  Uiso   1.00
C1123  C     0.16630   0.83308   0.61594   0.00000  Uiso   1.00
C1124  C     0.13093   0.81907   0.90730   0.00000  Uiso   1.00
C1125  C     0.20239   0.84763   0.59270   0.00000  Uiso   1.00
C1126  C     0.13126   0.81738   0.95386   0.00000  Uiso   1.00
C1127  C     0.20206   0.84933   0.54614   0.00000  Uiso   1.00
C1128  C     0.16690   0.83299   0.97654   0.00000  Uiso   1.00
C1129  C     0.16642   0.83371   0.52346   0.00000  Uiso   1.00
C1130  C     0.20285   0.84836   0.95251   0.00000  Uiso   1.00
C1131  C     0.13047   0.81833   0.54749   0.00000  Uiso   1.00
C1132  C     0.09638   0.80146   0.97835   0.00000  Uiso   1.00
C1133  C     0.09630   0.80116   0.52422   0.00000  Uiso   1.00
C1134  C     0.23693   0.86526   0.52165   0.00000  Uiso   1.00
C1135  C     0.24157   0.85910   0.87898   0.00000  Uiso   1.00
C1136  C     0.09177   0.80754   0.62103   0.00000  Uiso   1.00
C1137  C     0.09270   0.80674   0.88276   0.00000  Uiso   1.00
C1138  C     0.24062   0.85996   0.61724   0.00000  Uiso   1.00
C1139  C     0.03961   0.75652   0.79060   0.00000  Uiso   1.00
C1140  C     0.29372   0.91015   0.70939   0.00000  Uiso   1.00
C1141  C     0.28609   0.76828   0.80589   0.00000  Uiso   1.00
C1142  C     0.04724   0.89839   0.69411   0.00000  Uiso   1.00
C1143  C     0.23702   0.86555   0.97578   0.00000  Uiso   1.00
C1144  C     0.01961   0.79611   0.76999   0.00000  Uiso   1.00
C1145  C     0.31373   0.87056   0.73001   0.00000  Uiso   1.00
C1146  C     0.31047   0.80026   0.77577   0.00000  Uiso   1.00
C1147  C     0.02287   0.86641   0.72423   0.00000  Uiso   1.00
C1148  C     0.29101   0.83617   0.75388   0.00000  Uiso   1.00
H1149  H     0.06858   0.78888   0.96263   0.00000  Uiso   1.00
H1150  H     0.09362   0.78697   0.65095   0.00000  Uiso   1.00
H1151  H     0.07574   0.77532   0.89040   0.00000  Uiso   1.00
H1152  H     0.25755   0.89141   0.60962   0.00000  Uiso   1.00
H1153  H     0.03873   0.75210   0.82642   0.00000  Uiso   1.00
H1154  H     0.29461   0.91456   0.67358   0.00000  Uiso   1.00
H1155  H     0.26032   0.78067   0.82544   0.00000  Uiso   1.00
H1156  H     0.07302   0.88600   0.67456   0.00000  Uiso   1.00
H1157  H     0.26472   0.87786   0.53737   0.00000  Uiso   1.00
H1158  H     0.06908   0.78675   0.54091   0.00000  Uiso   1.00
H1159  H     0.26423   0.87997   0.95909   0.00000  Uiso   1.00
H1160  H     0.20484   0.70965   0.80640   0.00000  Uiso   1.00
H1161  H     0.12849   0.95702   0.69360   0.00000  Uiso   1.00
H1162  H     0.12827   0.70811   0.69375   0.00000  Uiso   1.00
H1163  H     0.20506   0.95856   0.80625   0.00000  Uiso   1.00
H1164  H     0.23974   0.87964   0.84903   0.00000  Uiso   1.00
N1165  N     0.16667   0.95240   0.75000   0.00000  Uiso   1.00
N1166  N     0.16667   0.71427   0.75000   0.00000  Uiso   1.00
O1167  O     0.10559   0.87154   0.75000   0.00000  Uiso   1.00
O1168  O     0.05830   0.82255   0.61116   0.00000  Uiso   1.00
O1169  O     0.07951   0.83230   0.85454   0.00000  Uiso   1.00
O1170  O     0.25384   0.83439   0.64542   0.00000  Uiso   1.00
O1171  O     0.05410   0.72684   0.76738   0.00000  Uiso   1.00
O1172  O     0.27922   0.93982   0.73262   0.00000  Uiso   1.00
O1173  O     0.29317   0.72782   0.80768   0.00000  Uiso   1.00
O1174  O     0.04016   0.93884   0.69232   0.00000  Uiso   1.00
O1175  O     0.22774   0.79513   0.75001   0.00000  Uiso   1.00
O1176  O     0.22774   0.87154   0.75001   0.00000  Uiso   1.00
O1177  O     0.10559   0.79513   0.75000   0.00000  Uiso   1.00
O1178  O     0.16666   0.87156   0.68393   0.00000  Uiso   1.00
O1179  O     0.16667   0.79511   0.81608   0.00000  Uiso   1.00
O1180  O     0.16667   0.87156   0.81608   0.00000  Uiso   1.00
O1181  O     0.16666   0.79511   0.68393   0.00000  Uiso   1.00
O1182  O     0.27503   0.84409   0.88887   0.00000  Uiso   1.00
Zn1183 Zn    0.16667   0.88437   0.75000   0.00000  Uiso   1.00
Zn1184 Zn    0.16667   0.78229   0.75000   0.00000  Uiso   1.00
C1185  C     0.41998   0.83248   0.74861   0.00000  Uiso   1.00
C1186  C     0.37565   0.83050   0.74611   0.00000  Uiso   1.00
C1187  C     0.52126   0.69110   0.78133   0.00000  Uiso   1.00
C1188  C     0.47874   0.97557   0.71867   0.00000  Uiso   1.00
C1189  C     0.47869   0.69024   0.71870   0.00000  Uiso   1.00
C1190  C     0.52131   0.97643   0.78130   0.00000  Uiso   1.00
C1191  C     0.49955   0.83337   0.66363   0.00000  Uiso   1.00
C1192  C     0.50045   0.83330   0.83637   0.00000  Uiso   1.00
C1193  C     0.53672   0.84723   0.90581   0.00000  Uiso   1.00
C1194  C     0.46328   0.81944   0.59419   0.00000  Uiso   1.00
C1195  C     0.50037   0.83359   0.88406   0.00000  Uiso   1.00
C1196  C     0.58002   0.83418   0.75139   0.00000  Uiso   1.00
C1197  C     0.49963   0.83308   0.61594   0.00000  Uiso   1.00
C1198  C     0.46426   0.81907   0.90730   0.00000  Uiso   1.00
C1199  C     0.53573   0.84763   0.59270   0.00000  Uiso   1.00
C1200  C     0.46459   0.81738   0.95386   0.00000  Uiso   1.00
C1201  C     0.53539   0.84933   0.54614   0.00000  Uiso   1.00
C1202  C     0.50024   0.83299   0.97654   0.00000  Uiso   1.00
C1203  C     0.49975   0.83371   0.52346   0.00000  Uiso   1.00
C1204  C     0.53619   0.84836   0.95251   0.00000  Uiso   1.00
C1205  C     0.46380   0.81833   0.54749   0.00000  Uiso   1.00
C1206  C     0.42971   0.80146   0.97835   0.00000  Uiso   1.00
C1207  C     0.42963   0.80116   0.52422   0.00000  Uiso   1.00
C1208  C     0.57026   0.86526   0.52165   0.00000  Uiso   1.00
C1209  C     0.57491   0.85910   0.87898   0.00000  Uiso   1.00
C1210  C     0.42510   0.80754   0.62103   0.00000  Uiso   1.00
C1211  C     0.42604   0.80674   0.88276   0.00000  Uiso   1.00
C1212  C     0.57395   0.85996   0.61724   0.00000  Uiso   1.00
C1213  C     0.37294   0.75652   0.79060   0.00000  Uiso   1.00
C1214  C     0.62706   0.91015   0.70939   0.00000  Uiso   1.00
C1215  C     0.61942   0.76828   0.80589   0.00000  Uiso   1.00
C1216  C     0.38058   0.89839   0.69411   0.00000  Uiso   1.00
C1217  C     0.57035   0.86555   0.97578   0.00000  Uiso   1.00
C1218  C     0.35294   0.79611   0.76999   0.00000  Uiso   1.00
C1219  C     0.64706   0.87056   0.73001   0.00000  Uiso   1.00
C1220  C     0.64380   0.80026   0.77577   0.00000  Uiso   1.00
C1221  C     0.35620   0.86641   0.72423   0.00000  Uiso   1.00
C1222  C     0.62435   0.83617   0.75388   0.00000  Uiso   1.00
H1223  H     0.40192   0.78888   0.96263   0.00000  Uiso   1.00
H1224  H     0.42695   0.78697   0.65095   0.00000  Uiso   1.00
H1225  H     0.40907   0.77532   0.89040   0.00000  Uiso   1.00
H1226  H     0.59088   0.89141   0.60962   0.00000  Uiso   1.00
H1227  H     0.37206   0.75210   0.82642   0.00000  Uiso   1.00
H1228  H     0.62795   0.91456   0.67358   0.00000  Uiso   1.00
H1229  H     0.59365   0.78067   0.82544   0.00000  Uiso   1.00
H1230  H     0.40635   0.88600   0.67456   0.00000  Uiso   1.00
H1231  H     0.59805   0.87786   0.53737   0.00000  Uiso   1.00
H1232  H     0.40242   0.78675   0.54091   0.00000  Uiso   1.00
H1233  H     0.59756   0.87997   0.95909   0.00000  Uiso   1.00
H1234  H     0.53817   0.70965   0.80640   0.00000  Uiso   1.00
H1235  H     0.46183   0.95702   0.69360   0.00000  Uiso   1.00
H1236  H     0.46161   0.70811   0.69375   0.00000  Uiso   1.00
H1237  H     0.53839   0.95856   0.80625   0.00000  Uiso   1.00
H1238  H     0.57307   0.87964   0.84903   0.00000  Uiso   1.00
N1239  N     0.50000   0.95240   0.75000   0.00000  Uiso   1.00
N1240  N     0.50000   0.71427   0.75000   0.00000  Uiso   1.00
O1241  O     0.43892   0.87154   0.75000   0.00000  Uiso   1.00
O1242  O     0.39164   0.82255   0.61116   0.00000  Uiso   1.00
O1243  O     0.41284   0.83230   0.85454   0.00000  Uiso   1.00
O1244  O     0.58717   0.83439   0.64542   0.00000  Uiso   1.00
O1245  O     0.38744   0.72684   0.76738   0.00000  Uiso   1.00
O1246  O     0.61256   0.93982   0.73262   0.00000  Uiso   1.00
O1247  O     0.62650   0.72782   0.80768   0.00000  Uiso   1.00
O1248  O     0.37350   0.93884   0.69232   0.00000  Uiso   1.00
O1249  O     0.56108   0.79513   0.75001   0.00000  Uiso   1.00
O1250  O     0.56108   0.87154   0.75001   0.00000  Uiso   1.00
O1251  O     0.43892   0.79513   0.75000   0.00000  Uiso   1.00
O1252  O     0.49999   0.87156   0.68393   0.00000  Uiso   1.00
O1253  O     0.50001   0.79511   0.81608   0.00000  Uiso   1.00
O1254  O     0.50001   0.87156   0.81608   0.00000  Uiso   1.00
O1255  O     0.49999   0.79511   0.68393   0.00000  Uiso   1.00
O1256  O     0.60837   0.84409   0.88887   0.00000  Uiso   1.00
Zn1257 Zn    0.50000   0.88437   0.75000   0.00000  Uiso   1.00
Zn1258 Zn    0.50000   0.78229   0.75000   0.00000  Uiso   1.00
C1259  C     0.75331   0.83248   0.74861   0.00000  Uiso   1.00
C1260  C     0.70899   0.83050   0.74611   0.00000  Uiso   1.00
C1261  C     0.85459   0.69110   0.78133   0.00000  Uiso   1.00
C1262  C     0.81207   0.97557   0.71867   0.00000  Uiso   1.00
C1263  C     0.81203   0.69024   0.71870   0.00000  Uiso   1.00
C1264  C     0.85464   0.97643   0.78130   0.00000  Uiso   1.00
C1265  C     0.83288   0.83337   0.66363   0.00000  Uiso   1.00
C1266  C     0.83378   0.83330   0.83637   0.00000  Uiso   1.00
C1267  C     0.87005   0.84723   0.90581   0.00000  Uiso   1.00
C1268  C     0.79661   0.81944   0.59419   0.00000  Uiso   1.00
C1269  C     0.83370   0.83359   0.88406   0.00000  Uiso   1.00
C1270  C     0.91335   0.83418   0.75139   0.00000  Uiso   1.00
C1271  C     0.83296   0.83308   0.61594   0.00000  Uiso   1.00
C1272  C     0.79760   0.81907   0.90730   0.00000  Uiso   1.00
C1273  C     0.86906   0.84763   0.59270   0.00000  Uiso   1.00
C1274  C     0.79793   0.81738   0.95386   0.00000  Uiso   1.00
C1275  C     0.86872   0.84933   0.54614   0.00000  Uiso   1.00
C1276  C     0.83357   0.83299   0.97654   0.00000  Uiso   1.00
C1277  C     0.83308   0.83371   0.52346   0.00000  Uiso   1.00
C1278  C     0.86952   0.84836   0.95251   0.00000  Uiso   1.00
C1279  C     0.79713   0.81833   0.54749   0.00000  Uiso   1.00
C1280  C     0.76305   0.80146   0.97835   0.00000  Uiso   1.00
C1281  C     0.76296   0.80116   0.52422   0.00000  Uiso   1.00
C1282  C     0.90360   0.86526   0.52165   0.00000  Uiso   1.00
C1283  C     0.90824   0.85910   0.87898   0.00000  Uiso   1.00
C1284  C     0.75843   0.80754   0.62103   0.00000  Uiso   1.00
C1285  C     0.75937   0.80674   0.88276   0.00000  Uiso   1.00
C1286  C     0.90728   0.85996   0.61724   0.00000  Uiso   1.00
C1287  C     0.70628   0.75652   0.79060   0.00000  Uiso   1.00
C1288  C     0.96039   0.91015   0.70939   0.00000  Uiso   1.00
C1289  C     0.95276   0.76828   0.80589   0.00000  Uiso   1.00
C1290  C     0.71391   0.89839   0.69411   0.00000  Uiso   1.00
C1291  C     0.90368   0.86555   0.97578   0.00000  Uiso   1.00
C1292  C     0.68627   0.79611   0.76999   0.00000  Uiso   1.00
C1293  C     0.98039   0.87056   0.73001   0.00000  Uiso   1.00
C1294  C     0.97714   0.80026   0.77577   0.00000  Uiso   1.00
C1295  C     0.68953   0.86641   0.72423   0.00000  Uiso   1.00
C1296  C     0.95768   0.83617   0.75388   0.00000  Uiso   1.00
H1297  H     0.73525   0.78888   0.96263   0.00000  Uiso   1.00
H1298  H     0.76028   0.78697   0.65095   0.00000  Uiso   1.00
H1299  H     0.74241   0.77532   0.89040   0.00000  Uiso   1.00
H1300  H     0.92421   0.89141   0.60962   0.00000  Uiso   1.00
H1301  H     0.70539   0.75210   0.82642   0.00000  Uiso   1.00
H1302  H     0.96128   0.91456   0.67358   0.00000  Uiso   1.00
H1303  H     0.92699   0.78067   0.82544   0.00000  Uiso   1.00
H1304  H     0.73968   0.88600   0.67456   0.00000  Uiso   1.00
H1305  H     0.93139   0.87786   0.53737   0.00000  Uiso   1.00
H1306  H     0.73575   0.78675   0.54091   0.00000  Uiso   1.00
H1307  H     0.93089   0.87997   0.95909   0.00000  Uiso   1.00
H1308  H     0.87151   0.70965   0.80640   0.00000  Uiso   1.00
H1309  H     0.79516   0.95702   0.69360   0.00000  Uiso   1.00
H1310  H     0.79494   0.70811   0.69375   0.00000  Uiso   1.00
H1311  H     0.87173   0.95856   0.80625   0.00000  Uiso   1.00
H1312  H     0.90640   0.87964   0.84903   0.00000  Uiso   1.00
N1313  N     0.83333   0.95240   0.75000   0.00000  Uiso   1.00
N1314  N     0.83333   0.71427   0.75000   0.00000  Uiso   1.00
O1315  O     0.77226   0.87154   0.75000   0.00000  Uiso   1.00
O1316  O     0.72497   0.82255   0.61116   0.00000  Uiso   1.00
O1317  O     0.74618   0.83230   0.85454   0.00000  Uiso   1.00
O1318  O     0.92050   0.83439   0.64542   0.00000  Uiso   1.00
O1319  O     0.72077   0.72684   0.76738   0.00000  Uiso   1.00
O1320  O     0.94589   0.93982   0.73262   0.00000  Uiso   1.00
O1321  O     0.95984   0.72782   0.80768   0.00000  Uiso   1.00
O1322  O     0.70683   0.93884   0.69232   0.00000  Uiso   1.00
O1323  O     0.89441   0.79513   0.75001   0.00000  Uiso   1.00
O1324  O     0.89441   0.87154   0.75001   0.00000  Uiso   1.00
O1325  O     0.77226   0.79513   0.75000   0.00000  Uiso   1.00
O1326  O     0.83333   0.87156   0.68393   0.00000  Uiso   1.00
O1327  O     0.83334   0.79511   0.81608   0.00000  Uiso   1.00
O1328  O     0.83334   0.87156   0.81608   0.00000  Uiso   1.00
O1329  O     0.83333   0.79511   0.68393   0.00000  Uiso   1.00
O1330  O     0.94170   0.84409   0.88887   0.00000  Uiso   1.00
Zn1331 Zn    0.83333   0.88437   0.75000   0.00000  Uiso   1.00
Zn1332 Zn    0.83333   0.78229   0.75000   0.00000  Uiso   1.00
loop_
_geom_bond_atom_site_label_1
_geom_bond_atom_site_label_2
_geom_bond_distance
_geom_bond_site_symmetry_2
_ccdc_geom_bond_type
C1     O57     1.290   .     A
C1     C2      1.436   .     S
C1     O67     1.275   .     A
C2     C37     1.411   .     A
C2     C34     1.418   .     A
C3     H50     1.081   .     S
C3     N56     1.366   .     A
C3     C450    1.414   1_545 S
C4     H51     1.081   .     S
C4     N55     1.366   .     A
C4     C227    1.414   .     S
C5     H52     1.082   .     S
C5     N56     1.366   .     A
C5     C448    1.414   1_545 S
C6     N55     1.366   .     A
C6     H53     1.082   .     S
C6     C225    1.414   .     S
C7     O68     1.284   .     A
C7     O71     1.279   .     A
C7     C13     1.433   .     S
C8     O70     1.279   .     A
C8     O69     1.284   .     A
C8     C11     1.433   .     S
C9     C11     1.405   .     A
C9     C20     1.404   .     A
C9     C25     1.495   .     S
C10    C26     1.494   .     S
C10    C21     1.404   .     A
C10    C13     1.405   .     A
C11    C14     1.404   .     A
C12    O65     1.290   .     A
C12    C38     1.436   .     S
C12    O66     1.275   .     A
C13    C15     1.404   .     A
C14    C27     1.488   .     S
C14    C16     1.400   .     A
C15    C28     1.488   .     S
C15    C17     1.400   .     A
C16    C18     1.417   .     A
C16    C22     1.403   .     A
C17    C24     1.403   .     A
C17    C19     1.417   .     A
C18    C20     1.419   .     A
C18    C685    1.410   .     S
C19    C21     1.419   .     A
C19    C684    1.410   1_554 S
C20    C33     1.402   .     A
C21    C23     1.402   .     A
C22    H39     1.080   .     S
C22    C689    1.378   .     S
C23    H48     1.080   .     S
C23    C688    1.378   1_554 S
C24    H47     1.080   .     S
C24    C699    1.378   1_554 S
C25    O72     1.221   .     D
C25    H54     1.084   .     S
C26    H40     1.084   .     S
C26    O58     1.221   .     D
C27    H41     1.084   .     S
C27    O59     1.221   .     D
C28    O60     1.221   .     D
C28    H42     1.084   .     S
C29    O61     1.221   .     D
C29    H43     1.083   .     S
C29    C34     1.486   .     S
C30    H44     1.083   .     S
C30    C35     1.486   .     S
C30    O62     1.221   .     D
C31    H45     1.084   .     S
C31    O63     1.221   .     D
C31    C36     1.500   .     S
C32    C37     1.500   .     S
C32    H46     1.084   .     S
C32    O64     1.221   .     D
C33    H49     1.080   .     S
C33    C690    1.378   .     S
C34    C184    1.390   1_455 S
C35    C38     1.418   .     A
C35    C111    1.390   .     S
C36    C38     1.411   .     A
C36    C108    1.390   .     S
C37    C183    1.390   1_455 S
N55    Zn73    2.004   .     S
N56    Zn74    2.004   .     S
O57    Zn73    2.000   .     S
O65    Zn74    2.000   .     S
O66    Zn73    2.021   .     S
O67    Zn74    2.021   .     S
O68    Zn73    2.024   .     S
O69    Zn74    2.024   .     S
O70    Zn73    2.018   .     S
O71    Zn74    2.018   .     S
C75    O131    1.290   .     A
C75    C76     1.436   .     S
C75    O141    1.275   .     A
C76    C111    1.411   .     A
C76    C108    1.418   .     A
C77    H124    1.081   .     S
C77    N130    1.366   .     A
C77    C524    1.414   1_545 S
C78    H125    1.081   .     S
C78    N129    1.366   .     A
C78    C301    1.414   .     S
C79    H126    1.082   .     S
C79    N130    1.366   .     A
C79    C522    1.414   1_545 S
C80    N129    1.366   .     A
C80    H127    1.082   .     S
C80    C299    1.414   .     S
C81    O142    1.284   .     A
C81    O145    1.279   .     A
C81    C87     1.433   .     S
C82    O144    1.279   .     A
C82    O143    1.284   .     A
C82    C85     1.433   .     S
C83    C85     1.405   .     A
C83    C94     1.404   .     A
C83    C99     1.495   .     S
C84    C100    1.494   .     S
C84    C95     1.404   .     A
C84    C87     1.405   .     A
C85    C88     1.404   .     A
C86    O139    1.290   .     A
C86    C112    1.436   .     S
C86    O140    1.275   .     A
C87    C89     1.404   .     A
C88    C101    1.488   .     S
C88    C90     1.400   .     A
C89    C102    1.488   .     S
C89    C91     1.400   .     A
C90    C92     1.417   .     A
C90    C96     1.403   .     A
C91    C98     1.403   .     A
C91    C93     1.417   .     A
C92    C94     1.419   .     A
C92    C759    1.410   .     S
C93    C95     1.419   .     A
C93    C758    1.410   1_554 S
C94    C107    1.402   .     A
C95    C97     1.402   .     A
C96    H113    1.080   .     S
C96    C763    1.378   .     S
C97    H122    1.080   .     S
C97    C762    1.378   1_554 S
C98    H121    1.080   .     S
C98    C773    1.378   1_554 S
C99    O146    1.221   .     D
C99    H128    1.084   .     S
C100   H114    1.084   .     S
C100   O132    1.221   .     D
C101   H115    1.084   .     S
C101   O133    1.221   .     D
C102   O134    1.221   .     D
C102   H116    1.084   .     S
C103   O135    1.221   .     D
C103   H117    1.083   .     S
C103   C108    1.486   .     S
C104   H118    1.083   .     S
C104   C109    1.486   .     S
C104   O136    1.221   .     D
C105   H119    1.084   .     S
C105   O137    1.221   .     D
C105   C110    1.500   .     S
C106   C111    1.500   .     S
C106   H120    1.084   .     S
C106   O138    1.221   .     D
C107   H123    1.080   .     S
C107   C764    1.378   .     S
C109   C112    1.418   .     A
C109   C185    1.390   .     S
C110   C112    1.411   .     A
C110   C182    1.390   .     S
N129   Zn147   2.004   .     S
N130   Zn148   2.004   .     S
O131   Zn147   2.000   .     S
O139   Zn148   2.000   .     S
O140   Zn147   2.021   .     S
O141   Zn148   2.021   .     S
O142   Zn147   2.024   .     S
O143   Zn148   2.024   .     S
O144   Zn147   2.018   .     S
O145   Zn148   2.018   .     S
C149   O205    1.290   .     A
C149   C150    1.436   .     S
C149   O215    1.275   .     A
C150   C185    1.411   .     A
C150   C182    1.418   .     A
C151   H198    1.081   .     S
C151   N204    1.366   .     A
C151   C598    1.414   1_545 S
C152   H199    1.081   .     S
C152   N203    1.366   .     A
C152   C375    1.414   .     S
C153   H200    1.082   .     S
C153   N204    1.366   .     A
C153   C596    1.414   1_545 S
C154   N203    1.366   .     A
C154   H201    1.082   .     S
C154   C373    1.414   .     S
C155   O216    1.284   .     A
C155   O219    1.279   .     A
C155   C161    1.433   .     S
C156   O218    1.279   .     A
C156   O217    1.284   .     A
C156   C159    1.433   .     S
C157   C159    1.405   .     A
C157   C168    1.404   .     A
C157   C173    1.495   .     S
C158   C174    1.494   .     S
C158   C169    1.404   .     A
C158   C161    1.405   .     A
C159   C162    1.404   .     A
C160   O213    1.290   .     A
C160   C186    1.436   .     S
C160   O214    1.275   .     A
C161   C163    1.404   .     A
C162   C175    1.488   .     S
C162   C164    1.400   .     A
C163   C176    1.488   .     S
C163   C165    1.400   .     A
C164   C166    1.417   .     A
C164   C170    1.403   .     A
C165   C172    1.403   .     A
C165   C167    1.417   .     A
C166   C168    1.419   .     A
C166   C833    1.410   .     S
C167   C169    1.419   .     A
C167   C832    1.410   1_554 S
C168   C181    1.402   .     A
C169   C171    1.402   .     A
C170   H187    1.080   .     S
C170   C837    1.378   .     S
C171   H196    1.080   .     S
C171   C836    1.378   1_554 S
C172   H195    1.080   .     S
C172   C847    1.378   1_554 S
C173   O220    1.221   .     D
C173   H202    1.084   .     S
C174   H188    1.084   .     S
C174   O206    1.221   .     D
C175   H189    1.084   .     S
C175   O207    1.221   .     D
C176   O208    1.221   .     D
C176   H190    1.084   .     S
C177   O209    1.221   .     D
C177   H191    1.083   .     S
C177   C182    1.486   .     S
C178   H192    1.083   .     S
C178   C183    1.486   .     S
C178   O210    1.221   .     D
C179   H193    1.084   .     S
C179   O211    1.221   .     D
C179   C184    1.500   .     S
C180   C185    1.500   .     S
C180   H194    1.084   .     S
C180   O212    1.221   .     D
C181   H197    1.080   .     S
C181   C838    1.378   .     S
C183   C186    1.418   .     A
C183   C37     1.390   1_655 S
C184   C186    1.411   .     A
C184   C34     1.390   1_655 S
N203   Zn221   2.004   .     S
N204   Zn222   2.004   .     S
O205   Zn221   2.000   .     S
O213   Zn222   2.000   .     S
O214   Zn221   2.021   .     S
O215   Zn222   2.021   .     S
O216   Zn221   2.024   .     S
O217   Zn222   2.024   .     S
O218   Zn221   2.018   .     S
O219   Zn222   2.018   .     S
C223   O279    1.290   .     A
C223   C224    1.436   .     S
C223   O289    1.275   .     A
C224   C259    1.411   .     A
C224   C256    1.418   .     A
C225   H272    1.081   .     S
C225   N278    1.366   .     A
C226   H273    1.081   .     S
C226   N277    1.366   .     A
C226   C449    1.414   .     S
C227   H274    1.082   .     S
C227   N278    1.366   .     A
C228   N277    1.366   .     A
C228   H275    1.082   .     S
C228   C447    1.414   .     S
C229   O290    1.284   .     A
C229   O293    1.279   .     A
C229   C235    1.433   .     S
C230   O292    1.279   .     A
C230   O291    1.284   .     A
C230   C233    1.433   .     S
C231   C233    1.405   .     A
C231   C242    1.404   .     A
C231   C247    1.495   .     S
C232   C248    1.494   .     S
C232   C243    1.404   .     A
C232   C235    1.405   .     A
C233   C236    1.404   .     A
C234   O287    1.290   .     A
C234   C260    1.436   .     S
C234   O288    1.275   .     A
C235   C237    1.404   .     A
C236   C249    1.488   .     S
C236   C238    1.400   .     A
C237   C250    1.488   .     S
C237   C239    1.400   .     A
C238   C240    1.417   .     A
C238   C244    1.403   .     A
C239   C246    1.403   .     A
C239   C241    1.417   .     A
C240   C242    1.419   .     A
C240   C907    1.410   .     S
C241   C243    1.419   .     A
C241   C906    1.410   1_554 S
C242   C255    1.402   .     A
C243   C245    1.402   .     A
C244   H261    1.080   .     S
C244   C911    1.378   .     S
C245   H270    1.080   .     S
C245   C910    1.378   1_554 S
C246   H269    1.080   .     S
C246   C921    1.378   1_554 S
C247   O294    1.221   .     D
C247   H276    1.084   .     S
C248   H262    1.084   .     S
C248   O280    1.221   .     D
C249   H263    1.084   .     S
C249   O281    1.221   .     D
C250   O282    1.221   .     D
C250   H264    1.084   .     S
C251   O283    1.221   .     D
C251   H265    1.083   .     S
C251   C256    1.486   .     S
C252   H266    1.083   .     S
C252   C257    1.486   .     S
C252   O284    1.221   .     D
C253   H267    1.084   .     S
C253   O285    1.221   .     D
C253   C258    1.500   .     S
C254   C259    1.500   .     S
C254   H268    1.084   .     S
C254   O286    1.221   .     D
C255   H271    1.080   .     S
C255   C912    1.378   .     S
C256   C406    1.390   1_455 S
C257   C260    1.418   .     A
C257   C333    1.390   .     S
C258   C260    1.411   .     A
C258   C330    1.390   .     S
C259   C405    1.390   1_455 S
N277   Zn295   2.004   .     S
N278   Zn296   2.004   .     S
O279   Zn295   2.000   .     S
O287   Zn296   2.000   .     S
O288   Zn295   2.021   .     S
O289   Zn296   2.021   .     S
O290   Zn295   2.024   .     S
O291   Zn296   2.024   .     S
O292   Zn295   2.018   .     S
O293   Zn296   2.018   .     S
C297   O353    1.290   .     A
C297   C298    1.436   .     S
C297   O363    1.275   .     A
C298   C333    1.411   .     A
C298   C330    1.418   .     A
C299   H346    1.081   .     S
C299   N352    1.366   .     A
C300   H347    1.081   .     S
C300   N351    1.366   .     A
C300   C523    1.414   .     S
C301   H348    1.082   .     S
C301   N352    1.366   .     A
C302   N351    1.366   .     A
C302   H349    1.082   .     S
C302   C521    1.414   .     S
C303   O364    1.284   .     A
C303   O367    1.279   .     A
C303   C309    1.433   .     S
C304   O366    1.279   .     A
C304   O365    1.284   .     A
C304   C307    1.433   .     S
C305   C307    1.405   .     A
C305   C316    1.404   .     A
C305   C321    1.495   .     S
C306   C322    1.494   .     S
C306   C317    1.404   .     A
C306   C309    1.405   .     A
C307   C310    1.404   .     A
C308   O361    1.290   .     A
C308   C334    1.436   .     S
C308   O362    1.275   .     A
C309   C311    1.404   .     A
C310   C323    1.488   .     S
C310   C312    1.400   .     A
C311   C324    1.488   .     S
C311   C313    1.400   .     A
C312   C314    1.417   .     A
C312   C318    1.403   .     A
C313   C320    1.403   .     A
C313   C315    1.417   .     A
C314   C316    1.419   .     A
C314   C981    1.410   .     S
C315   C317    1.419   .     A
C315   C980    1.410   1_554 S
C316   C329    1.402   .     A
C317   C319    1.402   .     A
C318   H335    1.080   .     S
C318   C985    1.378   .     S
C319   H344    1.080   .     S
C319   C984    1.378   1_554 S
C320   H343    1.080   .     S
C320   C995    1.378   1_554 S
C321   O368    1.221   .     D
C321   H350    1.084   .     S
C322   H336    1.084   .     S
C322   O354    1.221   .     D
C323   H337    1.084   .     S
C323   O355    1.221   .     D
C324   O356    1.221   .     D
C324   H338    1.084   .     S
C325   O357    1.221   .     D
C325   H339    1.083   .     S
C325   C330    1.486   .     S
C326   H340    1.083   .     S
C326   C331    1.486   .     S
C326   O358    1.221   .     D
C327   H341    1.084   .     S
C327   O359    1.221   .     D
C327   C332    1.500   .     S
C328   C333    1.500   .     S
C328   H342    1.084   .     S
C328   O360    1.221   .     D
C329   H345    1.080   .     S
C329   C986    1.378   .     S
C331   C334    1.418   .     A
C331   C407    1.390   .     S
C332   C334    1.411   .     A
C332   C404    1.390   .     S
N351   Zn369   2.004   .     S
N352   Zn370   2.004   .     S
O353   Zn369   2.000   .     S
O361   Zn370   2.000   .     S
O362   Zn369   2.021   .     S
O363   Zn370   2.021   .     S
O364   Zn369   2.024   .     S
O365   Zn370   2.024   .     S
O366   Zn369   2.018   .     S
O367   Zn370   2.018   .     S
C371   O427    1.290   .     A
C371   C372    1.436   .     S
C371   O437    1.275   .     A
C372   C407    1.411   .     A
C372   C404    1.418   .     A
C373   H420    1.081   .     S
C373   N426    1.366   .     A
C374   H421    1.081   .     S
C374   N425    1.366   .     A
C374   C597    1.414   .     S
C375   H422    1.082   .     S
C375   N426    1.366   .     A
C376   N425    1.366   .     A
C376   H423    1.082   .     S
C376   C595    1.414   .     S
C377   O438    1.284   .     A
C377   O441    1.279   .     A
C377   C383    1.433   .     S
C378   O440    1.279   .     A
C378   O439    1.284   .     A
C378   C381    1.433   .     S
C379   C381    1.405   .     A
C379   C390    1.404   .     A
C379   C395    1.495   .     S
C380   C396    1.494   .     S
C380   C391    1.404   .     A
C380   C383    1.405   .     A
C381   C384    1.404   .     A
C382   O435    1.290   .     A
C382   C408    1.436   .     S
C382   O436    1.275   .     A
C383   C385    1.404   .     A
C384   C397    1.488   .     S
C384   C386    1.400   .     A
C385   C398    1.488   .     S
C385   C387    1.400   .     A
C386   C388    1.417   .     A
C386   C392    1.403   .     A
C387   C394    1.403   .     A
C387   C389    1.417   .     A
C388   C390    1.419   .     A
C388   C1055   1.410   .     S
C389   C391    1.419   .     A
C389   C1054   1.410   1_554 S
C390   C403    1.402   .     A
C391   C393    1.402   .     A
C392   H409    1.080   .     S
C392   C1059   1.378   .     S
C393   H418    1.080   .     S
C393   C1058   1.378   1_554 S
C394   H417    1.080   .     S
C394   C1069   1.378   1_554 S
C395   O442    1.221   .     D
C395   H424    1.084   .     S
C396   H410    1.084   .     S
C396   O428    1.221   .     D
C397   H411    1.084   .     S
C397   O429    1.221   .     D
C398   O430    1.221   .     D
C398   H412    1.084   .     S
C399   O431    1.221   .     D
C399   H413    1.083   .     S
C399   C404    1.486   .     S
C400   H414    1.083   .     S
C400   C405    1.486   .     S
C400   O432    1.221   .     D
C401   H415    1.084   .     S
C401   O433    1.221   .     D
C401   C406    1.500   .     S
C402   C407    1.500   .     S
C402   H416    1.084   .     S
C402   O434    1.221   .     D
C403   H419    1.080   .     S
C403   C1060   1.378   .     S
C405   C408    1.418   .     A
C405   C259    1.390   1_655 S
C406   C408    1.411   .     A
C406   C256    1.390   1_655 S
N425   Zn443   2.004   .     S
N426   Zn444   2.004   .     S
O427   Zn443   2.000   .     S
O435   Zn444   2.000   .     S
O436   Zn443   2.021   .     S
O437   Zn444   2.021   .     S
O438   Zn443   2.024   .     S
O439   Zn444   2.024   .     S
O440   Zn443   2.018   .     S
O441   Zn444   2.018   .     S
C445   O501    1.290   .     A
C445   C446    1.436   .     S
C445   O511    1.275   .     A
C446   C481    1.411   .     A
C446   C478    1.418   .     A
C447   H494    1.081   .     S
C447   N500    1.366   .     A
C448   H495    1.081   .     S
C448   N499    1.366   .     A
C448   C5      1.414   1_565 S
C449   H496    1.082   .     S
C449   N500    1.366   .     A
C450   N499    1.366   .     A
C450   H497    1.082   .     S
C450   C3      1.414   1_565 S
C451   O512    1.284   .     A
C451   O515    1.279   .     A
C451   C457    1.433   .     S
C452   O514    1.279   .     A
C452   O513    1.284   .     A
C452   C455    1.433   .     S
C453   C455    1.405   .     A
C453   C464    1.404   .     A
C453   C469    1.495   .     S
C454   C470    1.494   .     S
C454   C465    1.404   .     A
C454   C457    1.405   .     A
C455   C458    1.404   .     A
C456   O509    1.290   .     A
C456   C482    1.436   .     S
C456   O510    1.275   .     A
C457   C459    1.404   .     A
C458   C471    1.488   .     S
C458   C460    1.400   .     A
C459   C472    1.488   .     S
C459   C461    1.400   .     A
C460   C462    1.417   .     A
C460   C466    1.403   .     A
C461   C468    1.403   .     A
C461   C463    1.417   .     A
C462   C464    1.419   .     A
C462   C1129   1.410   .     S
C463   C465    1.419   .     A
C463   C1128   1.410   1_554 S
C464   C477    1.402   .     A
C465   C467    1.402   .     A
C466   H483    1.080   .     S
C466   C1133   1.378   .     S
C467   H492    1.080   .     S
C467   C1132   1.378   1_554 S
C468   H491    1.080   .     S
C468   C1143   1.378   1_554 S
C469   O516    1.221   .     D
C469   H498    1.084   .     S
C470   H484    1.084   .     S
C470   O502    1.221   .     D
C471   H485    1.084   .     S
C471   O503    1.221   .     D
C472   O504    1.221   .     D
C472   H486    1.084   .     S
C473   O505    1.221   .     D
C473   H487    1.083   .     S
C473   C478    1.486   .     S
C474   H488    1.083   .     S
C474   C479    1.486   .     S
C474   O506    1.221   .     D
C475   H489    1.084   .     S
C475   O507    1.221   .     D
C475   C480    1.500   .     S
C476   C481    1.500   .     S
C476   H490    1.084   .     S
C476   O508    1.221   .     D
C477   H493    1.080   .     S
C477   C1134   1.378   .     S
C478   C628    1.390   1_455 S
C479   C482    1.418   .     A
C479   C555    1.390   .     S
C480   C482    1.411   .     A
C480   C552    1.390   .     S
C481   C627    1.390   1_455 S
N499   Zn517   2.004   .     S
N500   Zn518   2.004   .     S
O501   Zn517   2.000   .     S
O509   Zn518   2.000   .     S
O510   Zn517   2.021   .     S
O511   Zn518   2.021   .     S
O512   Zn517   2.024   .     S
O513   Zn518   2.024   .     S
O514   Zn517   2.018   .     S
O515   Zn518   2.018   .     S
C519   O575    1.290   .     A
C519   C520    1.436   .     S
C519   O585    1.275   .     A
C520   C555    1.411   .     A
C520   C552    1.418   .     A
C521   H568    1.081   .     S
C521   N574    1.366   .     A
C522   H569    1.081   .     S
C522   N573    1.366   .     A
C522   C79     1.414   1_565 S
C523   H570    1.082   .     S
C523   N574    1.366   .     A
C524   N573    1.366   .     A
C524   H571    1.082   .     S
C524   C77     1.414   1_565 S
C525   O586    1.284   .     A
C525   O589    1.279   .     A
C525   C531    1.433   .     S
C526   O588    1.279   .     A
C526   O587    1.284   .     A
C526   C529    1.433   .     S
C527   C529    1.405   .     A
C527   C538    1.404   .     A
C527   C543    1.495   .     S
C528   C544    1.494   .     S
C528   C539    1.404   .     A
C528   C531    1.405   .     A
C529   C532    1.404   .     A
C530   O583    1.290   .     A
C530   C556    1.436   .     S
C530   O584    1.275   .     A
C531   C533    1.404   .     A
C532   C545    1.488   .     S
C532   C534    1.400   .     A
C533   C546    1.488   .     S
C533   C535    1.400   .     A
C534   C536    1.417   .     A
C534   C540    1.403   .     A
C535   C542    1.403   .     A
C535   C537    1.417   .     A
C536   C538    1.419   .     A
C536   C1203   1.410   .     S
C537   C539    1.419   .     A
C537   C1202   1.410   1_554 S
C538   C551    1.402   .     A
C539   C541    1.402   .     A
C540   H557    1.080   .     S
C540   C1207   1.378   .     S
C541   H566    1.080   .     S
C541   C1206   1.378   1_554 S
C542   H565    1.080   .     S
C542   C1217   1.378   1_554 S
C543   O590    1.221   .     D
C543   H572    1.084   .     S
C544   H558    1.084   .     S
C544   O576    1.221   .     D
C545   H559    1.084   .     S
C545   O577    1.221   .     D
C546   O578    1.221   .     D
C546   H560    1.084   .     S
C547   O579    1.221   .     D
C547   H561    1.083   .     S
C547   C552    1.486   .     S
C548   H562    1.083   .     S
C548   C553    1.486   .     S
C548   O580    1.221   .     D
C549   H563    1.084   .     S
C549   O581    1.221   .     D
C549   C554    1.500   .     S
C550   C555    1.500   .     S
C550   H564    1.084   .     S
C550   O582    1.221   .     D
C551   H567    1.080   .     S
C551   C1208   1.378   .     S
C553   C556    1.418   .     A
C553   C629    1.390   .     S
C554   C556    1.411   .     A
C554   C626    1.390   .     S
N573   Zn591   2.004   .     S
N574   Zn592   2.004   .     S
O575   Zn591   2.000   .     S
O583   Zn592   2.000   .     S
O584   Zn591   2.021   .     S
O585   Zn592   2.021   .     S
O586   Zn591   2.024   .     S
O587   Zn592   2.024   .     S
O588   Zn591   2.018   .     S
O589   Zn592   2.018   .     S
C593   O649    1.290   .     A
C593   C594    1.436   .     S
C593   O659    1.275   .     A
C594   C629    1.411   .     A
C594   C626    1.418   .     A
C595   H642    1.081   .     S
C595   N648    1.366   .     A
C596   H643    1.081   .     S
C596   N647    1.366   .     A
C596   C153    1.414   1_565 S
C597   H644    1.082   .     S
C597   N648    1.366   .     A
C598   N647    1.366   .     A
C598   H645    1.082   .     S
C598   C151    1.414   1_565 S
C599   O660    1.284   .     A
C599   O663    1.279   .     A
C599   C605    1.433   .     S
C600   O662    1.279   .     A
C600   O661    1.284   .     A
C600   C603    1.433   .     S
C601   C603    1.405   .     A
C601   C612    1.404   .     A
C601   C617    1.495   .     S
C602   C618    1.494   .     S
C602   C613    1.404   .     A
C602   C605    1.405   .     A
C603   C606    1.404   .     A
C604   O657    1.290   .     A
C604   C630    1.436   .     S
C604   O658    1.275   .     A
C605   C607    1.404   .     A
C606   C619    1.488   .     S
C606   C608    1.400   .     A
C607   C620    1.488   .     S
C607   C609    1.400   .     A
C608   C610    1.417   .     A
C608   C614    1.403   .     A
C609   C616    1.403   .     A
C609   C611    1.417   .     A
C610   C612    1.419   .     A
C610   C1277   1.410   .     S
C611   C613    1.419   .     A
C611   C1276   1.410   1_554 S
C612   C625    1.402   .     A
C613   C615    1.402   .     A
C614   H631    1.080   .     S
C614   C1281   1.378   .     S
C615   H640    1.080   .     S
C615   C1280   1.378   1_554 S
C616   H639    1.080   .     S
C616   C1291   1.378   1_554 S
C617   O664    1.221   .     D
C617   H646    1.084   .     S
C618   H632    1.084   .     S
C618   O650    1.221   .     D
C619   H633    1.084   .     S
C619   O651    1.221   .     D
C620   O652    1.221   .     D
C620   H634    1.084   .     S
C621   O653    1.221   .     D
C621   H635    1.083   .     S
C621   C626    1.486   .     S
C622   H636    1.083   .     S
C622   C627    1.486   .     S
C622   O654    1.221   .     D
C623   H637    1.084   .     S
C623   O655    1.221   .     D
C623   C628    1.500   .     S
C624   C629    1.500   .     S
C624   H638    1.084   .     S
C624   O656    1.221   .     D
C625   H641    1.080   .     S
C625   C1282   1.378   .     S
C627   C630    1.418   .     A
C627   C481    1.390   1_655 S
C628   C630    1.411   .     A
C628   C478    1.390   1_655 S
N647   Zn665   2.004   .     S
N648   Zn666   2.004   .     S
O649   Zn665   2.000   .     S
O657   Zn666   2.000   .     S
O658   Zn665   2.021   .     S
O659   Zn666   2.021   .     S
O660   Zn665   2.024   .     S
O661   Zn666   2.024   .     S
O662   Zn665   2.018   .     S
O663   Zn666   2.018   .     S
C667   O723    1.290   .     A
C667   C668    1.436   .     S
C667   O733    1.275   .     A
C668   C703    1.411   .     A
C668   C700    1.418   .     A
C669   H716    1.081   .     S
C669   N722    1.366   .     A
C669   C1116   1.414   1_545 S
C670   H717    1.081   .     S
C670   N721    1.366   .     A
C670   C893    1.414   .     S
C671   H718    1.082   .     S
C671   N722    1.366   .     A
C671   C1114   1.414   1_545 S
C672   N721    1.366   .     A
C672   H719    1.082   .     S
C672   C891    1.414   .     S
C673   O734    1.284   .     A
C673   O737    1.279   .     A
C673   C679    1.433   .     S
C674   O736    1.279   .     A
C674   O735    1.284   .     A
C674   C677    1.433   .     S
C675   C677    1.405   .     A
C675   C686    1.404   .     A
C675   C691    1.495   .     S
C676   C692    1.494   .     S
C676   C687    1.404   .     A
C676   C679    1.405   .     A
C677   C680    1.404   .     A
C678   O731    1.290   .     A
C678   C704    1.436   .     S
C678   O732    1.275   .     A
C679   C681    1.404   .     A
C680   C693    1.488   .     S
C680   C682    1.400   .     A
C681   C694    1.488   .     S
C681   C683    1.400   .     A
C682   C684    1.417   .     A
C682   C688    1.403   .     A
C683   C690    1.403   .     A
C683   C685    1.417   .     A
C684   C686    1.419   .     A
C684   C19     1.410   1_556 S
C685   C687    1.419   .     A
C686   C699    1.402   .     A
C687   C689    1.402   .     A
C688   H705    1.080   .     S
C688   C23     1.378   1_556 S
C689   H714    1.080   .     S
C690   H713    1.080   .     S
C691   O738    1.221   .     D
C691   H720    1.084   .     S
C692   H706    1.084   .     S
C692   O724    1.221   .     D
C693   H707    1.084   .     S
C693   O725    1.221   .     D
C694   O726    1.221   .     D
C694   H708    1.084   .     S
C695   O727    1.221   .     D
C695   H709    1.083   .     S
C695   C700    1.486   .     S
C696   H710    1.083   .     S
C696   C701    1.486   .     S
C696   O728    1.221   .     D
C697   H711    1.084   .     S
C697   O729    1.221   .     D
C697   C702    1.500   .     S
C698   C703    1.500   .     S
C698   H712    1.084   .     S
C698   O730    1.221   .     D
C699   H715    1.080   .     S
C699   C24     1.378   1_556 S
C700   C850    1.390   1_455 S
C701   C704    1.418   .     A
C701   C777    1.390   .     S
C702   C704    1.411   .     A
C702   C774    1.390   .     S
C703   C849    1.390   1_455 S
N721   Zn739   2.004   .     S
N722   Zn740   2.004   .     S
O723   Zn739   2.000   .     S
O731   Zn740   2.000   .     S
O732   Zn739   2.021   .     S
O733   Zn740   2.021   .     S
O734   Zn739   2.024   .     S
O735   Zn740   2.024   .     S
O736   Zn739   2.018   .     S
O737   Zn740   2.018   .     S
C741   O797    1.290   .     A
C741   C742    1.436   .     S
C741   O807    1.275   .     A
C742   C777    1.411   .     A
C742   C774    1.418   .     A
C743   H790    1.081   .     S
C743   N796    1.366   .     A
C743   C1190   1.414   1_545 S
C744   H791    1.081   .     S
C744   N795    1.366   .     A
C744   C967    1.414   .     S
C745   H792    1.082   .     S
C745   N796    1.366   .     A
C745   C1188   1.414   1_545 S
C746   N795    1.366   .     A
C746   H793    1.082   .     S
C746   C965    1.414   .     S
C747   O808    1.284   .     A
C747   O811    1.279   .     A
C747   C753    1.433   .     S
C748   O810    1.279   .     A
C748   O809    1.284   .     A
C748   C751    1.433   .     S
C749   C751    1.405   .     A
C749   C760    1.404   .     A
C749   C765    1.495   .     S
C750   C766    1.494   .     S
C750   C761    1.404   .     A
C750   C753    1.405   .     A
C751   C754    1.404   .     A
C752   O805    1.290   .     A
C752   C778    1.436   .     S
C752   O806    1.275   .     A
C753   C755    1.404   .     A
C754   C767    1.488   .     S
C754   C756    1.400   .     A
C755   C768    1.488   .     S
C755   C757    1.400   .     A
C756   C758    1.417   .     A
C756   C762    1.403   .     A
C757   C764    1.403   .     A
C757   C759    1.417   .     A
C758   C760    1.419   .     A
C758   C93     1.410   1_556 S
C759   C761    1.419   .     A
C760   C773    1.402   .     A
C761   C763    1.402   .     A
C762   H779    1.080   .     S
C762   C97     1.378   1_556 S
C763   H788    1.080   .     S
C764   H787    1.080   .     S
C765   O812    1.221   .     D
C765   H794    1.084   .     S
C766   H780    1.084   .     S
C766   O798    1.221   .     D
C767   H781    1.084   .     S
C767   O799    1.221   .     D
C768   O800    1.221   .     D
C768   H782    1.084   .     S
C769   O801    1.221   .     D
C769   H783    1.083   .     S
C769   C774    1.486   .     S
C770   H784    1.083   .     S
C770   C775    1.486   .     S
C770   O802    1.221   .     D
C771   H785    1.084   .     S
C771   O803    1.221   .     D
C771   C776    1.500   .     S
C772   C777    1.500   .     S
C772   H786    1.084   .     S
C772   O804    1.221   .     D
C773   H789    1.080   .     S
C773   C98     1.378   1_556 S
C775   C778    1.418   .     A
C775   C851    1.390   .     S
C776   C778    1.411   .     A
C776   C848    1.390   .     S
N795   Zn813   2.004   .     S
N796   Zn814   2.004   .     S
O797   Zn813   2.000   .     S
O805   Zn814   2.000   .     S
O806   Zn813   2.021   .     S
O807   Zn814   2.021   .     S
O808   Zn813   2.024   .     S
O809   Zn814   2.024   .     S
O810   Zn813   2.018   .     S
O811   Zn814   2.018   .     S
C815   O871    1.290   .     A
C815   C816    1.436   .     S
C815   O881    1.275   .     A
C816   C851    1.411   .     A
C816   C848    1.418   .     A
C817   H864    1.081   .     S
C817   N870    1.366   .     A
C817   C1264   1.414   1_545 S
C818   H865    1.081   .     S
C818   N869    1.366   .     A
C818   C1041   1.414   .     S
C819   H866    1.082   .     S
C819   N870    1.366   .     A
C819   C1262   1.414   1_545 S
C820   N869    1.366   .     A
C820   H867    1.082   .     S
C820   C1039   1.414   .     S
C821   O882    1.284   .     A
C821   O885    1.279   .     A
C821   C827    1.433   .     S
C822   O884    1.279   .     A
C822   O883    1.284   .     A
C822   C825    1.433   .     S
C823   C825    1.405   .     A
C823   C834    1.404   .     A
C823   C839    1.495   .     S
C824   C840    1.494   .     S
C824   C835    1.404   .     A
C824   C827    1.405   .     A
C825   C828    1.404   .     A
C826   O879    1.290   .     A
C826   C852    1.436   .     S
C826   O880    1.275   .     A
C827   C829    1.404   .     A
C828   C841    1.488   .     S
C828   C830    1.400   .     A
C829   C842    1.488   .     S
C829   C831    1.400   .     A
C830   C832    1.417   .     A
C830   C836    1.403   .     A
C831   C838    1.403   .     A
C831   C833    1.417   .     A
C832   C834    1.419   .     A
C832   C167    1.410   1_556 S
C833   C835    1.419   .     A
C834   C847    1.402   .     A
C835   C837    1.402   .     A
C836   H853    1.080   .     S
C836   C171    1.378   1_556 S
C837   H862    1.080   .     S
C838   H861    1.080   .     S
C839   O886    1.221   .     D
C839   H868    1.084   .     S
C840   H854    1.084   .     S
C840   O872    1.221   .     D
C841   H855    1.084   .     S
C841   O873    1.221   .     D
C842   O874    1.221   .     D
C842   H856    1.084   .     S
C843   O875    1.221   .     D
C843   H857    1.083   .     S
C843   C848    1.486   .     S
C844   H858    1.083   .     S
C844   C849    1.486   .     S
C844   O876    1.221   .     D
C845   H859    1.084   .     S
C845   O877    1.221   .     D
C845   C850    1.500   .     S
C846   C851    1.500   .     S
C846   H860    1.084   .     S
C846   O878    1.221   .     D
C847   H863    1.080   .     S
C847   C172    1.378   1_556 S
C849   C852    1.418   .     A
C849   C703    1.390   1_655 S
C850   C852    1.411   .     A
C850   C700    1.390   1_655 S
N869   Zn887   2.004   .     S
N870   Zn888   2.004   .     S
O871   Zn887   2.000   .     S
O879   Zn888   2.000   .     S
O880   Zn887   2.021   .     S
O881   Zn888   2.021   .     S
O882   Zn887   2.024   .     S
O883   Zn888   2.024   .     S
O884   Zn887   2.018   .     S
O885   Zn888   2.018   .     S
C889   O945    1.290   .     A
C889   C890    1.436   .     S
C889   O955    1.275   .     A
C890   C925    1.411   .     A
C890   C922    1.418   .     A
C891   H938    1.081   .     S
C891   N944    1.366   .     A
C892   H939    1.081   .     S
C892   N943    1.366   .     A
C892   C1115   1.414   .     S
C893   H940    1.082   .     S
C893   N944    1.366   .     A
C894   N943    1.366   .     A
C894   H941    1.082   .     S
C894   C1113   1.414   .     S
C895   O956    1.284   .     A
C895   O959    1.279   .     A
C895   C901    1.433   .     S
C896   O958    1.279   .     A
C896   O957    1.284   .     A
C896   C899    1.433   .     S
C897   C899    1.405   .     A
C897   C908    1.404   .     A
C897   C913    1.495   .     S
C898   C914    1.494   .     S
C898   C909    1.404   .     A
C898   C901    1.405   .     A
C899   C902    1.404   .     A
C900   O953    1.290   .     A
C900   C926    1.436   .     S
C900   O954    1.275   .     A
C901   C903    1.404   .     A
C902   C915    1.488   .     S
C902   C904    1.400   .     A
C903   C916    1.488   .     S
C903   C905    1.400   .     A
C904   C906    1.417   .     A
C904   C910    1.403   .     A
C905   C912    1.403   .     A
C905   C907    1.417   .     A
C906   C908    1.419   .     A
C906   C241    1.410   1_556 S
C907   C909    1.419   .     A
C908   C921    1.402   .     A
C909   C911    1.402   .     A
C910   H927    1.080   .     S
C910   C245    1.378   1_556 S
C911   H936    1.080   .     S
C912   H935    1.080   .     S
C913   O960    1.221   .     D
C913   H942    1.084   .     S
C914   H928    1.084   .     S
C914   O946    1.221   .     D
C915   H929    1.084   .     S
C915   O947    1.221   .     D
C916   O948    1.221   .     D
C916   H930    1.084   .     S
C917   O949    1.221   .     D
C917   H931    1.083   .     S
C917   C922    1.486   .     S
C918   H932    1.083   .     S
C918   C923    1.486   .     S
C918   O950    1.221   .     D
C919   H933    1.084   .     S
C919   O951    1.221   .     D
C919   C924    1.500   .     S
C920   C925    1.500   .     S
C920   H934    1.084   .     S
C920   O952    1.221   .     D
C921   H937    1.080   .     S
C921   C246    1.378   1_556 S
C922   C1072   1.390   1_455 S
C923   C926    1.418   .     A
C923   C999    1.390   .     S
C924   C926    1.411   .     A
C924   C996    1.390   .     S
C925   C1071   1.390   1_455 S
N943   Zn961   2.004   .     S
N944   Zn962   2.004   .     S
O945   Zn961   2.000   .     S
O953   Zn962   2.000   .     S
O954   Zn961   2.021   .     S
O955   Zn962   2.021   .     S
O956   Zn961   2.024   .     S
O957   Zn962   2.024   .     S
O958   Zn961   2.018   .     S
O959   Zn962   2.018   .     S
C963   O1019   1.290   .     A
C963   C964    1.436   .     S
C963   O1029   1.275   .     A
C964   C999    1.411   .     A
C964   C996    1.418   .     A
C965   H1012   1.081   .     S
C965   N1018   1.366   .     A
C966   H1013   1.081   .     S
C966   N1017   1.366   .     A
C966   C1189   1.414   .     S
C967   H1014   1.082   .     S
C967   N1018   1.366   .     A
C968   N1017   1.366   .     A
C968   H1015   1.082   .     S
C968   C1187   1.414   .     S
C969   O1030   1.284   .     A
C969   O1033   1.279   .     A
C969   C975    1.433   .     S
C970   O1032   1.279   .     A
C970   O1031   1.284   .     A
C970   C973    1.433   .     S
C971   C973    1.405   .     A
C971   C982    1.404   .     A
C971   C987    1.495   .     S
C972   C988    1.494   .     S
C972   C983    1.404   .     A
C972   C975    1.405   .     A
C973   C976    1.404   .     A
C974   O1027   1.290   .     A
C974   C1000   1.436   .     S
C974   O1028   1.275   .     A
C975   C977    1.404   .     A
C976   C989    1.488   .     S
C976   C978    1.400   .     A
C977   C990    1.488   .     S
C977   C979    1.400   .     A
C978   C980    1.417   .     A
C978   C984    1.403   .     A
C979   C986    1.403   .     A
C979   C981    1.417   .     A
C980   C982    1.419   .     A
C980   C315    1.410   1_556 S
C981   C983    1.419   .     A
C982   C995    1.402   .     A
C983   C985    1.402   .     A
C984   H1001   1.080   .     S
C984   C319    1.378   1_556 S
C985   H1010   1.080   .     S
C986   H1009   1.080   .     S
C987   O1034   1.221   .     D
C987   H1016   1.084   .     S
C988   H1002   1.084   .     S
C988   O1020   1.221   .     D
C989   H1003   1.084   .     S
C989   O1021   1.221   .     D
C990   O1022   1.221   .     D
C990   H1004   1.084   .     S
C991   O1023   1.221   .     D
C991   H1005   1.083   .     S
C991   C996    1.486   .     S
C992   H1006   1.083   .     S
C992   C997    1.486   .     S
C992   O1024   1.221   .     D
C993   H1007   1.084   .     S
C993   O1025   1.221   .     D
C993   C998    1.500   .     S
C994   C999    1.500   .     S
C994   H1008   1.084   .     S
C994   O1026   1.221   .     D
C995   H1011   1.080   .     S
C995   C320    1.378   1_556 S
C997   C1000   1.418   .     A
C997   C1073   1.390   .     S
C998   C1000   1.411   .     A
C998   C1070   1.390   .     S
N1017  Zn1035  2.004   .     S
N1018  Zn1036  2.004   .     S
O1019  Zn1035  2.000   .     S
O1027  Zn1036  2.000   .     S
O1028  Zn1035  2.021   .     S
O1029  Zn1036  2.021   .     S
O1030  Zn1035  2.024   .     S
O1031  Zn1036  2.024   .     S
O1032  Zn1035  2.018   .     S
O1033  Zn1036  2.018   .     S
C1037  O1093   1.290   .     A
C1037  C1038   1.436   .     S
C1037  O1103   1.275   .     A
C1038  C1073   1.411   .     A
C1038  C1070   1.418   .     A
C1039  H1086   1.081   .     S
C1039  N1092   1.366   .     A
C1040  H1087   1.081   .     S
C1040  N1091   1.366   .     A
C1040  C1263   1.414   .     S
C1041  H1088   1.082   .     S
C1041  N1092   1.366   .     A
C1042  N1091   1.366   .     A
C1042  H1089   1.082   .     S
C1042  C1261   1.414   .     S
C1043  O1104   1.284   .     A
C1043  O1107   1.279   .     A
C1043  C1049   1.433   .     S
C1044  O1106   1.279   .     A
C1044  O1105   1.284   .     A
C1044  C1047   1.433   .     S
C1045  C1047   1.405   .     A
C1045  C1056   1.404   .     A
C1045  C1061   1.495   .     S
C1046  C1062   1.494   .     S
C1046  C1057   1.404   .     A
C1046  C1049   1.405   .     A
C1047  C1050   1.404   .     A
C1048  O1101   1.290   .     A
C1048  C1074   1.436   .     S
C1048  O1102   1.275   .     A
C1049  C1051   1.404   .     A
C1050  C1063   1.488   .     S
C1050  C1052   1.400   .     A
C1051  C1064   1.488   .     S
C1051  C1053   1.400   .     A
C1052  C1054   1.417   .     A
C1052  C1058   1.403   .     A
C1053  C1060   1.403   .     A
C1053  C1055   1.417   .     A
C1054  C1056   1.419   .     A
C1054  C389    1.410   1_556 S
C1055  C1057   1.419   .     A
C1056  C1069   1.402   .     A
C1057  C1059   1.402   .     A
C1058  H1075   1.080   .     S
C1058  C393    1.378   1_556 S
C1059  H1084   1.080   .     S
C1060  H1083   1.080   .     S
C1061  O1108   1.221   .     D
C1061  H1090   1.084   .     S
C1062  H1076   1.084   .     S
C1062  O1094   1.221   .     D
C1063  H1077   1.084   .     S
C1063  O1095   1.221   .     D
C1064  O1096   1.221   .     D
C1064  H1078   1.084   .     S
C1065  O1097   1.221   .     D
C1065  H1079   1.083   .     S
C1065  C1070   1.486   .     S
C1066  H1080   1.083   .     S
C1066  C1071   1.486   .     S
C1066  O1098   1.221   .     D
C1067  H1081   1.084   .     S
C1067  O1099   1.221   .     D
C1067  C1072   1.500   .     S
C1068  C1073   1.500   .     S
C1068  H1082   1.084   .     S
C1068  O1100   1.221   .     D
C1069  H1085   1.080   .     S
C1069  C394    1.378   1_556 S
C1071  C1074   1.418   .     A
C1071  C925    1.390   1_655 S
C1072  C1074   1.411   .     A
C1072  C922    1.390   1_655 S
N1091  Zn1109  2.004   .     S
N1092  Zn1110  2.004   .     S
O1093  Zn1109  2.000   .     S
O1101  Zn1110  2.000   .     S
O1102  Zn1109  2.021   .     S
O1103  Zn1110  2.021   .     S
O1104  Zn1109  2.024   .     S
O1105  Zn1110  2.024   .     S
O1106  Zn1109  2.018   .     S
O1107  Zn1110  2.018   .     S
C1111  O1167   1.290   .     A
C1111  C1112   1.436   .     S
C1111  O1177   1.275   .     A
C1112  C1147   1.411   .     A
C1112  C1144   1.418   .     A
C1113  H1160   1.081   .     S
C1113  N1166   1.366   .     A
C1114  H1161   1.081   .     S
C1114  N1165   1.366   .     A
C1114  C671    1.414   1_565 S
C1115  H1162   1.082   .     S
C1115  N1166   1.366   .     A
C1116  N1165   1.366   .     A
C1116  H1163   1.082   .     S
C1116  C669    1.414   1_565 S
C1117  O1178   1.284   .     A
C1117  O1181   1.279   .     A
C1117  C1123   1.433   .     S
C1118  O1180   1.279   .     A
C1118  O1179   1.284   .     A
C1118  C1121   1.433   .     S
C1119  C1121   1.405   .     A
C1119  C1130   1.404   .     A
C1119  C1135   1.495   .     S
C1120  C1136   1.494   .     S
C1120  C1131   1.404   .     A
C1120  C1123   1.405   .     A
C1121  C1124   1.404   .     A
C1122  O1175   1.290   .     A
C1122  C1148   1.436   .     S
C1122  O1176   1.275   .     A
C1123  C1125   1.404   .     A
C1124  C1137   1.488   .     S
C1124  C1126   1.400   .     A
C1125  C1138   1.488   .     S
C1125  C1127   1.400   .     A
C1126  C1128   1.417   .     A
C1126  C1132   1.403   .     A
C1127  C1134   1.403   .     A
C1127  C1129   1.417   .     A
C1128  C1130   1.419   .     A
C1128  C463    1.410   1_556 S
C1129  C1131   1.419   .     A
C1130  C1143   1.402   .     A
C1131  C1133   1.402   .     A
C1132  H1149   1.080   .     S
C1132  C467    1.378   1_556 S
C1133  H1158   1.080   .     S
C1134  H1157   1.080   .     S
C1135  O1182   1.221   .     D
C1135  H1164   1.084   .     S
C1136  H1150   1.084   .     S
C1136  O1168   1.221   .     D
C1137  H1151   1.084   .     S
C1137  O1169   1.221   .     D
C1138  O1170   1.221   .     D
C1138  H1152   1.084   .     S
C1139  O1171   1.221   .     D
C1139  H1153   1.083   .     S
C1139  C1144   1.486   .     S
C1140  H1154   1.083   .     S
C1140  C1145   1.486   .     S
C1140  O1172   1.221   .     D
C1141  H1155   1.084   .     S
C1141  O1173   1.221   .     D
C1141  C1146   1.500   .     S
C1142  C1147   1.500   .     S
C1142  H1156   1.084   .     S
C1142  O1174   1.221   .     D
C1143  H1159   1.080   .     S
C1143  C468    1.378   1_556 S
C1144  C1294   1.390   1_455 S
C1145  C1148   1.418   .     A
C1145  C1221   1.390   .     S
C1146  C1148   1.411   .     A
C1146  C1218   1.390   .     S
C1147  C1293   1.390   1_455 S
N1165  Zn1183  2.004   .     S
N1166  Zn1184  2.004   .     S
O1167  Zn1183  2.000   .     S
O1175  Zn1184  2.000   .     S
O1176  Zn1183  2.021   .     S
O1177  Zn1184  2.021   .     S
O1178  Zn1183  2.024   .     S
O1179  Zn1184  2.024   .     S
O1180  Zn1183  2.018   .     S
O1181  Zn1184  2.018   .     S
C1185  O1241   1.290   .     A
C1185  C1186   1.436   .     S
C1185  O1251   1.275   .     A
C1186  C1221   1.411   .     A
C1186  C1218   1.418   .     A
C1187  H1234   1.081   .     S
C1187  N1240   1.366   .     A
C1188  H1235   1.081   .     S
C1188  N1239   1.366   .     A
C1188  C745    1.414   1_565 S
C1189  H1236   1.082   .     S
C1189  N1240   1.366   .     A
C1190  N1239   1.366   .     A
C1190  H1237   1.082   .     S
C1190  C743    1.414   1_565 S
C1191  O1252   1.284   .     A
C1191  O1255   1.279   .     A
C1191  C1197   1.433   .     S
C1192  O1254   1.279   .     A
C1192  O1253   1.284   .     A
C1192  C1195   1.433   .     S
C1193  C1195   1.405   .     A
C1193  C1204   1.404   .     A
C1193  C1209   1.495   .     S
C1194  C1210   1.494   .     S
C1194  C1205   1.404   .     A
C1194  C1197   1.405   .     A
C1195  C1198   1.404   .     A
C1196  O1249   1.290   .     A
C1196  C1222   1.436   .     S
C1196  O1250   1.275   .     A
C1197  C1199   1.404   .     A
C1198  C1211   1.488   .     S
C1198  C1200   1.400   .     A
C1199  C1212   1.488   .     S
C1199  C1201   1.400   .     A
C1200  C1202   1.417   .     A
C1200  C1206   1.403   .     A
C1201  C1208   1.403   .     A
C1201  C1203   1.417   .     A
C1202  C1204   1.419   .     A
C1202  C537    1.410   1_556 S
C1203  C1205   1.419   .     A
C1204  C1217   1.402   .     A
C1205  C1207   1.402   .     A
C1206  H1223   1.080   .     S
C1206  C541    1.378   1_556 S
C1207  H1232   1.080   .     S
C1208  H1231   1.080   .     S
C1209  O1256   1.221   .     D
C1209  H1238   1.084   .     S
C1210  H1224   1.084   .     S
C1210  O1242   1.221   .     D
C1211  H1225   1.084   .     S
C1211  O1243   1.221   .     D
C1212  O1244   1.221   .     D
C1212  H1226   1.084   .     S
C1213  O1245   1.221   .     D
C1213  H1227   1.083   .     S
C1213  C1218   1.486   .     S
C1214  H1228   1.083   .     S
C1214  C1219   1.486   .     S
C1214  O1246   1.221   .     D
C1215  H1229   1.084   .     S
C1215  O1247   1.221   .     D
C1215  C1220   1.500   .     S
C1216  C1221   1.500   .     S
C1216  H1230   1.084   .     S
C1216  O1248   1.221   .     D
C1217  H1233   1.080   .     S
C1217  C542    1.378   1_556 S
C1219  C1222   1.418   .     A
C1219  C1295   1.390   .     S
C1220  C1222   1.411   .     A
C1220  C1292   1.390   .     S
N1239  Zn1257  2.004   .     S
N1240  Zn1258  2.004   .     S
O1241  Zn1257  2.000   .     S
O1249  Zn1258  2.000   .     S
O1250  Zn1257  2.021   .     S
O1251  Zn1258  2.021   .     S
O1252  Zn1257  2.024   .     S
O1253  Zn1258  2.024   .     S
O1254  Zn1257  2.018   .     S
O1255  Zn1258  2.018   .     S
C1259  O1315   1.290   .     A
C1259  C1260   1.436   .     S
C1259  O1325   1.275   .     A
C1260  C1295   1.411   .     A
C1260  C1292   1.418   .     A
C1261  H1308   1.081   .     S
C1261  N1314   1.366   .     A
C1262  H1309   1.081   .     S
C1262  N1313   1.366   .     A
C1262  C819    1.414   1_565 S
C1263  H1310   1.082   .     S
C1263  N1314   1.366   .     A
C1264  N1313   1.366   .     A
C1264  H1311   1.082   .     S
C1264  C817    1.414   1_565 S
C1265  O1326   1.284   .     A
C1265  O1329   1.279   .     A
C1265  C1271   1.433   .     S
C1266  O1328   1.279   .     A
C1266  O1327   1.284   .     A
C1266  C1269   1.433   .     S
C1267  C1269   1.405   .     A
C1267  C1278   1.404   .     A
C1267  C1283   1.495   .     S
C1268  C1284   1.494   .     S
C1268  C1279   1.404   .     A
C1268  C1271   1.405   .     A
C1269  C1272   1.404   .     A
C1270  O1323   1.290   .     A
C1270  C1296   1.436   .     S
C1270  O1324   1.275   .     A
C1271  C1273   1.404   .     A
C1272  C1285   1.488   .     S
C1272  C1274   1.400   .     A
C1273  C1286   1.488   .     S
C1273  C1275   1.400   .     A
C1274  C1276   1.417   .     A
C1274  C1280   1.403   .     A
C1275  C1282   1.403   .     A
C1275  C1277   1.417   .     A
C1276  C1278   1.419   .     A
C1276  C611    1.410   1_556 S
C1277  C1279   1.419   .     A
C1278  C1291   1.402   .     A
C1279  C1281   1.402   .     A
C1280  H1297   1.080   .     S
C1280  C615    1.378   1_556 S
C1281  H1306   1.080   .     S
C1282  H1305   1.080   .     S
C1283  O1330   1.221   .     D
C1283  H1312   1.084   .     S
C1284  H1298   1.084   .     S
C1284  O1316   1.221   .     D
C1285  H1299   1.084   .     S
C1285  O1317   1.221   .     D
C1286  O1318   1.221   .     D
C1286  H1300   1.084   .     S
C1287  O1319   1.221   .     D
C1287  H1301   1.083   .     S
C1287  C1292   1.486   .     S
C1288  H1302   1.083   .     S
C1288  C1293   1.486   .     S
C1288  O1320   1.221   .     D
C1289  H1303   1.084   .     S
C1289  O1321   1.221   .     D
C1289  C1294   1.500   .     S
C1290  C1295   1.500   .     S
C1290  H1304   1.084   .     S
C1290  O1322   1.221   .     D
C1291  H1307   1.080   .     S
C1291  C616    1.378   1_556 S
C1293  C1296   1.418   .     A
C1293  C1147   1.390   1_655 S
C1294  C1296   1.411   .     A
C1294  C1144   1.390   1_655 S
N1313  Zn1331  2.004   .     S
N1314  Zn1332  2.004   .     S
O1315  Zn1331  2.000   .     S
O1323  Zn1332  2.000   .     S
O1324  Zn1331  2.021   .     S
O1325  Zn1332  2.021   .     S
O1326  Zn1331  2.024   .     S
O1327  Zn1332  2.024   .     S
O1328  Zn1331  2.018   .     S
O1329  Zn1332  2.018   .     S
