data_str_m3_o1_o18_pcu_sym.71
_audit_creation_date              2020-01-03
_audit_creation_method            'Materials Studio'
_symmetry_space_group_name_H-M    'P1'
_symmetry_Int_Tables_number       1
_symmetry_cell_setting            triclinic
loop_
_symmetry_equiv_pos_as_xyz
  x,y,z
_cell_length_a                    29.5537
_cell_length_b                    32.1642
_cell_length_c                    31.0683
_cell_angle_alpha                 90.1967
_cell_angle_beta                  67.5769
_cell_angle_gamma                 90.1755
loop_
_atom_site_label
_atom_site_type_symbol
_atom_site_fract_x
_atom_site_fract_y
_atom_site_fract_z
_atom_site_U_iso_or_equiv
_atom_site_adp_type
_atom_site_occupancy
C1     C     0.16675   0.24670   0.24994   0.00000  Uiso   1.00
C2     C     0.12827   0.31190   0.24386   0.00000  Uiso   1.00
C3     C     0.16678   0.04247   0.24961   0.00000  Uiso   1.00
C4     C     0.16688   0.29086   0.24966   0.00000  Uiso   1.00
C5     C     0.31917   0.13779   0.22501   0.00000  Uiso   1.00
C6     C     0.01420   0.19556   0.27507   0.00000  Uiso   1.00
C7     C     0.03441   0.13804   0.22414   0.00000  Uiso   1.00
C8     C     0.29867   0.19562   0.27578   0.00000  Uiso   1.00
C9     C     0.13605   0.16669   0.33800   0.00000  Uiso   1.00
C10    C     0.19730   0.16736   0.16202   0.00000  Uiso   1.00
C11    C     0.11719   0.17148   0.38839   0.00000  Uiso   1.00
C12    C     0.16667   0.08663   0.24985   0.00000  Uiso   1.00
C13    C     0.21680   0.16978   0.11138   0.00000  Uiso   1.00
C14    C     0.06067   0.20263   0.45918   0.00000  Uiso   1.00
C15    C     0.27997   0.15677   0.03589   0.00000  Uiso   1.00
C16    C     0.07213   0.19046   0.41311   0.00000  Uiso   1.00
C17    C     0.26497   0.15849   0.08414   0.00000  Uiso   1.00
C18    C     0.14926   0.16299   0.41031   0.00000  Uiso   1.00
C19    C     0.18499   0.18191   0.09030   0.00000  Uiso   1.00
C20    C     0.14105   0.17888   0.45447   0.00000  Uiso   1.00
C21    C     0.19877   0.17991   0.04212   0.00000  Uiso   1.00
C22    C     0.09511   0.19751   0.47982   0.00000  Uiso   1.00
C23    C     0.11855   0.20666   0.04548   0.00000  Uiso   1.00
C24    C     0.24679   0.16612   0.01484   0.00000  Uiso   1.00
C25    C     0.17744   0.17684   0.47373   0.00000  Uiso   1.00
C26    C     0.16480   0.18809   0.02097   0.00000  Uiso   1.00
C27    C     0.07515   0.10739   0.15278   0.00000  Uiso   1.00
C28    C     0.12038   0.08170   0.12600   0.00000  Uiso   1.00
C29    C     0.27038   0.24257   0.33850   0.00000  Uiso   1.00
C30    C     0.22356   0.26448   0.36915   0.00000  Uiso   1.00
C31    C     0.22636   0.16501   0.44696   0.00000  Uiso   1.00
C32    C     0.08459   0.21154   0.02498   0.00000  Uiso   1.00
C33    C     0.26057   0.16049   0.46717   0.00000  Uiso   1.00
C34    C     0.20556   0.31219   0.25516   0.00000  Uiso   1.00
C35    C     0.12825   0.02115   0.24379   0.00000  Uiso   1.00
C36    C     0.20548   0.02143   0.25521   0.00000  Uiso   1.00
H37    H     0.04983   0.22627   0.04466   0.00000  Uiso   1.00
H38    H     0.23975   0.15982   0.40992   0.00000  Uiso   1.00
H39    H     0.23564   0.29616   0.25965   0.00000  Uiso   1.00
H40    H     0.09828   0.03720   0.23911   0.00000  Uiso   1.00
H41    H     0.23548   0.03770   0.25983   0.00000  Uiso   1.00
H42    H     0.09827   0.29561   0.23926   0.00000  Uiso   1.00
H43    H     0.30789   0.11429   0.20620   0.00000  Uiso   1.00
H44    H     0.02604   0.21849   0.29403   0.00000  Uiso   1.00
H45    H     0.08088   0.13939   0.13797   0.00000  Uiso   1.00
H46    H     0.04354   0.09271   0.14755   0.00000  Uiso   1.00
H47    H     0.11472   0.04900   0.13835   0.00000  Uiso   1.00
H48    H     0.29747   0.15091   0.44564   0.00000  Uiso   1.00
H49    H     0.12744   0.08228   0.08824   0.00000  Uiso   1.00
H50    H     0.15279   0.09451   0.13127   0.00000  Uiso   1.00
H51    H     0.30014   0.26619   0.32694   0.00000  Uiso   1.00
H52    H     0.27869   0.21823   0.35980   0.00000  Uiso   1.00
H53    H     0.19240   0.24233   0.37999   0.00000  Uiso   1.00
H54    H     0.22778   0.27711   0.40072   0.00000  Uiso   1.00
H55    H     0.21549   0.29048   0.34976   0.00000  Uiso   1.00
H56    H     0.14836   0.19039   0.11265   0.00000  Uiso   1.00
H57    H     0.18154   0.14509   0.39126   0.00000  Uiso   1.00
H58    H     0.29022   0.14945   0.10013   0.00000  Uiso   1.00
H59    H     0.04684   0.19729   0.39641   0.00000  Uiso   1.00
H60    H     0.02582   0.21753   0.47801   0.00000  Uiso   1.00
H61    H     0.31675   0.14638   0.01524   0.00000  Uiso   1.00
H62    H     0.10803   0.21922   0.08012   0.00000  Uiso   1.00
N63    N     0.04759   0.16668   0.25001   0.00000  Uiso   1.00
N64    N     0.28574   0.16666   0.24999   0.00000  Uiso   1.00
O65    O     0.12846   0.22775   0.25001   0.00000  Uiso   1.00
O66    O     0.26361   0.22522   0.29956   0.00000  Uiso   1.00
O67    O     0.20488   0.10558   0.25000   0.00000  Uiso   1.00
O68    O     0.20490   0.22774   0.25000   0.00000  Uiso   1.00
O69    O     0.12843   0.10559   0.25000   0.00000  Uiso   1.00
O70    O     0.10661   0.16667   0.31613   0.00000  Uiso   1.00
O71    O     0.22672   0.16666   0.18388   0.00000  Uiso   1.00
O72    O     0.18305   0.16666   0.31612   0.00000  Uiso   1.00
O73    O     0.15028   0.16667   0.18388   0.00000  Uiso   1.00
O74    O     0.06787   0.10768   0.20046   0.00000  Uiso   1.00
Zn75   Zn    0.11562   0.16667   0.25000   0.00000  Uiso   1.00
Zn76   Zn    0.21771   0.16666   0.25000   0.00000  Uiso   1.00
C77    C     0.50008   0.24670   0.24994   0.00000  Uiso   1.00
C78    C     0.46161   0.31190   0.24386   0.00000  Uiso   1.00
C79    C     0.50011   0.04247   0.24961   0.00000  Uiso   1.00
C80    C     0.50021   0.29086   0.24966   0.00000  Uiso   1.00
C81    C     0.65250   0.13779   0.22501   0.00000  Uiso   1.00
C82    C     0.34753   0.19556   0.27507   0.00000  Uiso   1.00
C83    C     0.36775   0.13804   0.22414   0.00000  Uiso   1.00
C84    C     0.63200   0.19562   0.27578   0.00000  Uiso   1.00
C85    C     0.46938   0.16669   0.33800   0.00000  Uiso   1.00
C86    C     0.53064   0.16736   0.16202   0.00000  Uiso   1.00
C87    C     0.45052   0.17148   0.38839   0.00000  Uiso   1.00
C88    C     0.50000   0.08663   0.24985   0.00000  Uiso   1.00
C89    C     0.55014   0.16978   0.11138   0.00000  Uiso   1.00
C90    C     0.39400   0.20263   0.45918   0.00000  Uiso   1.00
C91    C     0.61330   0.15677   0.03589   0.00000  Uiso   1.00
C92    C     0.40546   0.19046   0.41311   0.00000  Uiso   1.00
C93    C     0.59830   0.15849   0.08414   0.00000  Uiso   1.00
C94    C     0.48260   0.16299   0.41031   0.00000  Uiso   1.00
C95    C     0.51832   0.18191   0.09030   0.00000  Uiso   1.00
C96    C     0.47438   0.17888   0.45447   0.00000  Uiso   1.00
C97    C     0.53210   0.17991   0.04212   0.00000  Uiso   1.00
C98    C     0.42844   0.19751   0.47982   0.00000  Uiso   1.00
C99    C     0.45189   0.20666   0.04548   0.00000  Uiso   1.00
C100   C     0.58013   0.16612   0.01484   0.00000  Uiso   1.00
C101   C     0.51077   0.17684   0.47373   0.00000  Uiso   1.00
C102   C     0.49814   0.18809   0.02097   0.00000  Uiso   1.00
C103   C     0.40849   0.10739   0.15278   0.00000  Uiso   1.00
C104   C     0.45371   0.08170   0.12600   0.00000  Uiso   1.00
C105   C     0.60371   0.24257   0.33850   0.00000  Uiso   1.00
C106   C     0.55689   0.26448   0.36915   0.00000  Uiso   1.00
C107   C     0.55969   0.16501   0.44696   0.00000  Uiso   1.00
C108   C     0.41792   0.21154   0.02498   0.00000  Uiso   1.00
C109   C     0.59390   0.16049   0.46717   0.00000  Uiso   1.00
C110   C     0.53889   0.31219   0.25516   0.00000  Uiso   1.00
C111   C     0.46159   0.02115   0.24379   0.00000  Uiso   1.00
C112   C     0.53881   0.02143   0.25521   0.00000  Uiso   1.00
H113   H     0.38316   0.22627   0.04466   0.00000  Uiso   1.00
H114   H     0.57308   0.15982   0.40992   0.00000  Uiso   1.00
H115   H     0.56898   0.29616   0.25965   0.00000  Uiso   1.00
H116   H     0.43161   0.03720   0.23911   0.00000  Uiso   1.00
H117   H     0.56881   0.03770   0.25983   0.00000  Uiso   1.00
H118   H     0.43160   0.29561   0.23926   0.00000  Uiso   1.00
H119   H     0.64122   0.11429   0.20620   0.00000  Uiso   1.00
H120   H     0.35938   0.21849   0.29403   0.00000  Uiso   1.00
H121   H     0.41422   0.13939   0.13797   0.00000  Uiso   1.00
H122   H     0.37688   0.09271   0.14755   0.00000  Uiso   1.00
H123   H     0.44805   0.04900   0.13835   0.00000  Uiso   1.00
H124   H     0.63080   0.15091   0.44564   0.00000  Uiso   1.00
H125   H     0.46077   0.08228   0.08824   0.00000  Uiso   1.00
H126   H     0.48612   0.09451   0.13127   0.00000  Uiso   1.00
H127   H     0.63348   0.26619   0.32694   0.00000  Uiso   1.00
H128   H     0.61202   0.21823   0.35980   0.00000  Uiso   1.00
H129   H     0.52574   0.24233   0.37999   0.00000  Uiso   1.00
H130   H     0.56112   0.27711   0.40072   0.00000  Uiso   1.00
H131   H     0.54882   0.29048   0.34976   0.00000  Uiso   1.00
H132   H     0.48169   0.19039   0.11265   0.00000  Uiso   1.00
H133   H     0.51488   0.14509   0.39126   0.00000  Uiso   1.00
H134   H     0.62355   0.14945   0.10013   0.00000  Uiso   1.00
H135   H     0.38017   0.19729   0.39641   0.00000  Uiso   1.00
H136   H     0.35915   0.21753   0.47801   0.00000  Uiso   1.00
H137   H     0.65008   0.14638   0.01524   0.00000  Uiso   1.00
H138   H     0.44137   0.21922   0.08012   0.00000  Uiso   1.00
N139   N     0.38093   0.16668   0.25001   0.00000  Uiso   1.00
N140   N     0.61907   0.16666   0.24999   0.00000  Uiso   1.00
O141   O     0.46179   0.22775   0.25001   0.00000  Uiso   1.00
O142   O     0.59694   0.22522   0.29956   0.00000  Uiso   1.00
O143   O     0.53821   0.10558   0.25000   0.00000  Uiso   1.00
O144   O     0.53823   0.22774   0.25000   0.00000  Uiso   1.00
O145   O     0.46177   0.10559   0.25000   0.00000  Uiso   1.00
O146   O     0.43994   0.16667   0.31613   0.00000  Uiso   1.00
O147   O     0.56006   0.16666   0.18388   0.00000  Uiso   1.00
O148   O     0.51639   0.16666   0.31612   0.00000  Uiso   1.00
O149   O     0.48361   0.16667   0.18388   0.00000  Uiso   1.00
O150   O     0.40120   0.10768   0.20046   0.00000  Uiso   1.00
Zn151  Zn    0.44896   0.16667   0.25000   0.00000  Uiso   1.00
Zn152  Zn    0.55104   0.16666   0.25000   0.00000  Uiso   1.00
C153   C     0.83341   0.24670   0.24994   0.00000  Uiso   1.00
C154   C     0.79494   0.31190   0.24386   0.00000  Uiso   1.00
C155   C     0.83344   0.04247   0.24961   0.00000  Uiso   1.00
C156   C     0.83354   0.29086   0.24966   0.00000  Uiso   1.00
C157   C     0.98583   0.13779   0.22501   0.00000  Uiso   1.00
C158   C     0.68086   0.19556   0.27507   0.00000  Uiso   1.00
C159   C     0.70108   0.13804   0.22414   0.00000  Uiso   1.00
C160   C     0.96533   0.19562   0.27578   0.00000  Uiso   1.00
C161   C     0.80271   0.16669   0.33800   0.00000  Uiso   1.00
C162   C     0.86397   0.16736   0.16202   0.00000  Uiso   1.00
C163   C     0.78386   0.17148   0.38839   0.00000  Uiso   1.00
C164   C     0.83334   0.08663   0.24985   0.00000  Uiso   1.00
C165   C     0.88347   0.16978   0.11138   0.00000  Uiso   1.00
C166   C     0.72734   0.20263   0.45918   0.00000  Uiso   1.00
C167   C     0.94664   0.15677   0.03589   0.00000  Uiso   1.00
C168   C     0.73879   0.19046   0.41311   0.00000  Uiso   1.00
C169   C     0.93163   0.15849   0.08414   0.00000  Uiso   1.00
C170   C     0.81593   0.16299   0.41031   0.00000  Uiso   1.00
C171   C     0.85166   0.18191   0.09030   0.00000  Uiso   1.00
C172   C     0.80772   0.17888   0.45447   0.00000  Uiso   1.00
C173   C     0.86544   0.17991   0.04212   0.00000  Uiso   1.00
C174   C     0.76178   0.19751   0.47982   0.00000  Uiso   1.00
C175   C     0.78522   0.20666   0.04548   0.00000  Uiso   1.00
C176   C     0.91346   0.16612   0.01484   0.00000  Uiso   1.00
C177   C     0.84411   0.17684   0.47373   0.00000  Uiso   1.00
C178   C     0.83147   0.18809   0.02097   0.00000  Uiso   1.00
C179   C     0.74182   0.10739   0.15278   0.00000  Uiso   1.00
C180   C     0.78705   0.08170   0.12600   0.00000  Uiso   1.00
C181   C     0.93704   0.24257   0.33850   0.00000  Uiso   1.00
C182   C     0.89022   0.26448   0.36915   0.00000  Uiso   1.00
C183   C     0.89303   0.16501   0.44696   0.00000  Uiso   1.00
C184   C     0.75125   0.21154   0.02498   0.00000  Uiso   1.00
C185   C     0.92724   0.16049   0.46717   0.00000  Uiso   1.00
C186   C     0.87223   0.31219   0.25516   0.00000  Uiso   1.00
C187   C     0.79492   0.02115   0.24379   0.00000  Uiso   1.00
C188   C     0.87215   0.02143   0.25521   0.00000  Uiso   1.00
H189   H     0.71649   0.22627   0.04466   0.00000  Uiso   1.00
H190   H     0.90642   0.15982   0.40992   0.00000  Uiso   1.00
H191   H     0.90231   0.29616   0.25965   0.00000  Uiso   1.00
H192   H     0.76495   0.03720   0.23911   0.00000  Uiso   1.00
H193   H     0.90214   0.03770   0.25983   0.00000  Uiso   1.00
H194   H     0.76494   0.29561   0.23926   0.00000  Uiso   1.00
H195   H     0.97455   0.11429   0.20620   0.00000  Uiso   1.00
H196   H     0.69271   0.21849   0.29403   0.00000  Uiso   1.00
H197   H     0.74755   0.13939   0.13797   0.00000  Uiso   1.00
H198   H     0.71021   0.09271   0.14755   0.00000  Uiso   1.00
H199   H     0.78139   0.04900   0.13835   0.00000  Uiso   1.00
H200   H     0.96413   0.15091   0.44564   0.00000  Uiso   1.00
H201   H     0.79411   0.08228   0.08824   0.00000  Uiso   1.00
H202   H     0.81945   0.09451   0.13127   0.00000  Uiso   1.00
H203   H     0.96681   0.26619   0.32694   0.00000  Uiso   1.00
H204   H     0.94535   0.21823   0.35980   0.00000  Uiso   1.00
H205   H     0.85907   0.24233   0.37999   0.00000  Uiso   1.00
H206   H     0.89445   0.27711   0.40072   0.00000  Uiso   1.00
H207   H     0.88215   0.29048   0.34976   0.00000  Uiso   1.00
H208   H     0.81502   0.19039   0.11265   0.00000  Uiso   1.00
H209   H     0.84821   0.14509   0.39126   0.00000  Uiso   1.00
H210   H     0.95689   0.14945   0.10013   0.00000  Uiso   1.00
H211   H     0.71350   0.19729   0.39641   0.00000  Uiso   1.00
H212   H     0.69249   0.21753   0.47801   0.00000  Uiso   1.00
H213   H     0.98342   0.14638   0.01524   0.00000  Uiso   1.00
H214   H     0.77470   0.21922   0.08012   0.00000  Uiso   1.00
N215   N     0.71426   0.16668   0.25001   0.00000  Uiso   1.00
N216   N     0.95241   0.16666   0.24999   0.00000  Uiso   1.00
O217   O     0.79512   0.22775   0.25001   0.00000  Uiso   1.00
O218   O     0.93028   0.22522   0.29956   0.00000  Uiso   1.00
O219   O     0.87154   0.10558   0.25000   0.00000  Uiso   1.00
O220   O     0.87157   0.22774   0.25000   0.00000  Uiso   1.00
O221   O     0.79510   0.10559   0.25000   0.00000  Uiso   1.00
O222   O     0.77328   0.16667   0.31613   0.00000  Uiso   1.00
O223   O     0.89339   0.16666   0.18388   0.00000  Uiso   1.00
O224   O     0.84972   0.16666   0.31612   0.00000  Uiso   1.00
O225   O     0.81695   0.16667   0.18388   0.00000  Uiso   1.00
O226   O     0.73453   0.10768   0.20046   0.00000  Uiso   1.00
Zn227  Zn    0.78229   0.16667   0.25000   0.00000  Uiso   1.00
Zn228  Zn    0.88438   0.16666   0.25000   0.00000  Uiso   1.00
C229   C     0.16675   0.58004   0.24994   0.00000  Uiso   1.00
C230   C     0.12827   0.64523   0.24386   0.00000  Uiso   1.00
C231   C     0.16678   0.37581   0.24961   0.00000  Uiso   1.00
C232   C     0.16688   0.62419   0.24966   0.00000  Uiso   1.00
C233   C     0.31917   0.47112   0.22501   0.00000  Uiso   1.00
C234   C     0.01420   0.52890   0.27507   0.00000  Uiso   1.00
C235   C     0.03441   0.47137   0.22414   0.00000  Uiso   1.00
C236   C     0.29867   0.52896   0.27578   0.00000  Uiso   1.00
C237   C     0.13605   0.50003   0.33800   0.00000  Uiso   1.00
C238   C     0.19730   0.50069   0.16202   0.00000  Uiso   1.00
C239   C     0.11719   0.50481   0.38839   0.00000  Uiso   1.00
C240   C     0.16667   0.41996   0.24985   0.00000  Uiso   1.00
C241   C     0.21680   0.50311   0.11138   0.00000  Uiso   1.00
C242   C     0.06067   0.53596   0.45918   0.00000  Uiso   1.00
C243   C     0.27997   0.49011   0.03589   0.00000  Uiso   1.00
C244   C     0.07213   0.52379   0.41311   0.00000  Uiso   1.00
C245   C     0.26497   0.49183   0.08414   0.00000  Uiso   1.00
C246   C     0.14926   0.49632   0.41031   0.00000  Uiso   1.00
C247   C     0.18499   0.51525   0.09030   0.00000  Uiso   1.00
C248   C     0.14105   0.51221   0.45447   0.00000  Uiso   1.00
C249   C     0.19877   0.51325   0.04212   0.00000  Uiso   1.00
C250   C     0.09511   0.53084   0.47982   0.00000  Uiso   1.00
C251   C     0.11855   0.53999   0.04548   0.00000  Uiso   1.00
C252   C     0.24679   0.49946   0.01484   0.00000  Uiso   1.00
C253   C     0.17744   0.51018   0.47373   0.00000  Uiso   1.00
C254   C     0.16480   0.52142   0.02097   0.00000  Uiso   1.00
C255   C     0.07515   0.44072   0.15278   0.00000  Uiso   1.00
C256   C     0.12038   0.41503   0.12600   0.00000  Uiso   1.00
C257   C     0.27038   0.57591   0.33850   0.00000  Uiso   1.00
C258   C     0.22356   0.59782   0.36915   0.00000  Uiso   1.00
C259   C     0.22636   0.49834   0.44696   0.00000  Uiso   1.00
C260   C     0.08459   0.54487   0.02498   0.00000  Uiso   1.00
C261   C     0.26057   0.49382   0.46717   0.00000  Uiso   1.00
C262   C     0.20556   0.64552   0.25516   0.00000  Uiso   1.00
C263   C     0.12825   0.35448   0.24379   0.00000  Uiso   1.00
C264   C     0.20548   0.35476   0.25521   0.00000  Uiso   1.00
H265   H     0.04983   0.55960   0.04466   0.00000  Uiso   1.00
H266   H     0.23975   0.49315   0.40992   0.00000  Uiso   1.00
H267   H     0.23564   0.62949   0.25965   0.00000  Uiso   1.00
H268   H     0.09828   0.37053   0.23911   0.00000  Uiso   1.00
H269   H     0.23548   0.37103   0.25983   0.00000  Uiso   1.00
H270   H     0.09827   0.62894   0.23926   0.00000  Uiso   1.00
H271   H     0.30789   0.44762   0.20620   0.00000  Uiso   1.00
H272   H     0.02604   0.55182   0.29403   0.00000  Uiso   1.00
H273   H     0.08088   0.47273   0.13797   0.00000  Uiso   1.00
H274   H     0.04354   0.42604   0.14755   0.00000  Uiso   1.00
H275   H     0.11472   0.38234   0.13835   0.00000  Uiso   1.00
H276   H     0.29747   0.48424   0.44564   0.00000  Uiso   1.00
H277   H     0.12744   0.41562   0.08824   0.00000  Uiso   1.00
H278   H     0.15279   0.42785   0.13127   0.00000  Uiso   1.00
H279   H     0.30014   0.59952   0.32694   0.00000  Uiso   1.00
H280   H     0.27869   0.55156   0.35980   0.00000  Uiso   1.00
H281   H     0.19240   0.57567   0.37999   0.00000  Uiso   1.00
H282   H     0.22778   0.61044   0.40072   0.00000  Uiso   1.00
H283   H     0.21549   0.62381   0.34976   0.00000  Uiso   1.00
H284   H     0.14836   0.52372   0.11265   0.00000  Uiso   1.00
H285   H     0.18154   0.47843   0.39126   0.00000  Uiso   1.00
H286   H     0.29022   0.48278   0.10013   0.00000  Uiso   1.00
H287   H     0.04684   0.53062   0.39641   0.00000  Uiso   1.00
H288   H     0.02582   0.55087   0.47801   0.00000  Uiso   1.00
H289   H     0.31675   0.47971   0.01524   0.00000  Uiso   1.00
H290   H     0.10803   0.55256   0.08012   0.00000  Uiso   1.00
N291   N     0.04759   0.50001   0.25001   0.00000  Uiso   1.00
N292   N     0.28574   0.49999   0.24999   0.00000  Uiso   1.00
O293   O     0.12846   0.56108   0.25001   0.00000  Uiso   1.00
O294   O     0.26361   0.55855   0.29956   0.00000  Uiso   1.00
O295   O     0.20488   0.43892   0.25000   0.00000  Uiso   1.00
O296   O     0.20490   0.56107   0.25000   0.00000  Uiso   1.00
O297   O     0.12843   0.43893   0.25000   0.00000  Uiso   1.00
O298   O     0.10661   0.50001   0.31613   0.00000  Uiso   1.00
O299   O     0.22672   0.49999   0.18388   0.00000  Uiso   1.00
O300   O     0.18305   0.50000   0.31612   0.00000  Uiso   1.00
O301   O     0.15028   0.50000   0.18388   0.00000  Uiso   1.00
O302   O     0.06787   0.44101   0.20046   0.00000  Uiso   1.00
Zn303  Zn    0.11562   0.50001   0.25000   0.00000  Uiso   1.00
Zn304  Zn    0.21771   0.49999   0.25000   0.00000  Uiso   1.00
C305   C     0.50008   0.58004   0.24994   0.00000  Uiso   1.00
C306   C     0.46161   0.64523   0.24386   0.00000  Uiso   1.00
C307   C     0.50011   0.37581   0.24961   0.00000  Uiso   1.00
C308   C     0.50021   0.62419   0.24966   0.00000  Uiso   1.00
C309   C     0.65250   0.47112   0.22501   0.00000  Uiso   1.00
C310   C     0.34753   0.52890   0.27507   0.00000  Uiso   1.00
C311   C     0.36775   0.47137   0.22414   0.00000  Uiso   1.00
C312   C     0.63200   0.52896   0.27578   0.00000  Uiso   1.00
C313   C     0.46938   0.50003   0.33800   0.00000  Uiso   1.00
C314   C     0.53064   0.50069   0.16202   0.00000  Uiso   1.00
C315   C     0.45052   0.50481   0.38839   0.00000  Uiso   1.00
C316   C     0.50000   0.41996   0.24985   0.00000  Uiso   1.00
C317   C     0.55014   0.50311   0.11138   0.00000  Uiso   1.00
C318   C     0.39400   0.53596   0.45918   0.00000  Uiso   1.00
C319   C     0.61330   0.49011   0.03589   0.00000  Uiso   1.00
C320   C     0.40546   0.52379   0.41311   0.00000  Uiso   1.00
C321   C     0.59830   0.49183   0.08414   0.00000  Uiso   1.00
C322   C     0.48260   0.49632   0.41031   0.00000  Uiso   1.00
C323   C     0.51832   0.51525   0.09030   0.00000  Uiso   1.00
C324   C     0.47438   0.51221   0.45447   0.00000  Uiso   1.00
C325   C     0.53210   0.51325   0.04212   0.00000  Uiso   1.00
C326   C     0.42844   0.53084   0.47982   0.00000  Uiso   1.00
C327   C     0.45189   0.53999   0.04548   0.00000  Uiso   1.00
C328   C     0.58013   0.49946   0.01484   0.00000  Uiso   1.00
C329   C     0.51077   0.51018   0.47373   0.00000  Uiso   1.00
C330   C     0.49814   0.52142   0.02097   0.00000  Uiso   1.00
C331   C     0.40849   0.44072   0.15278   0.00000  Uiso   1.00
C332   C     0.45371   0.41503   0.12600   0.00000  Uiso   1.00
C333   C     0.60371   0.57591   0.33850   0.00000  Uiso   1.00
C334   C     0.55689   0.59782   0.36915   0.00000  Uiso   1.00
C335   C     0.55969   0.49834   0.44696   0.00000  Uiso   1.00
C336   C     0.41792   0.54487   0.02498   0.00000  Uiso   1.00
C337   C     0.59390   0.49382   0.46717   0.00000  Uiso   1.00
C338   C     0.53889   0.64552   0.25516   0.00000  Uiso   1.00
C339   C     0.46159   0.35448   0.24379   0.00000  Uiso   1.00
C340   C     0.53881   0.35476   0.25521   0.00000  Uiso   1.00
H341   H     0.38316   0.55960   0.04466   0.00000  Uiso   1.00
H342   H     0.57308   0.49315   0.40992   0.00000  Uiso   1.00
H343   H     0.56898   0.62949   0.25965   0.00000  Uiso   1.00
H344   H     0.43161   0.37053   0.23911   0.00000  Uiso   1.00
H345   H     0.56881   0.37103   0.25983   0.00000  Uiso   1.00
H346   H     0.43160   0.62894   0.23926   0.00000  Uiso   1.00
H347   H     0.64122   0.44762   0.20620   0.00000  Uiso   1.00
H348   H     0.35938   0.55182   0.29403   0.00000  Uiso   1.00
H349   H     0.41422   0.47273   0.13797   0.00000  Uiso   1.00
H350   H     0.37688   0.42604   0.14755   0.00000  Uiso   1.00
H351   H     0.44805   0.38234   0.13835   0.00000  Uiso   1.00
H352   H     0.63080   0.48424   0.44564   0.00000  Uiso   1.00
H353   H     0.46077   0.41562   0.08824   0.00000  Uiso   1.00
H354   H     0.48612   0.42785   0.13127   0.00000  Uiso   1.00
H355   H     0.63348   0.59952   0.32694   0.00000  Uiso   1.00
H356   H     0.61202   0.55156   0.35980   0.00000  Uiso   1.00
H357   H     0.52574   0.57567   0.37999   0.00000  Uiso   1.00
H358   H     0.56112   0.61044   0.40072   0.00000  Uiso   1.00
H359   H     0.54882   0.62381   0.34976   0.00000  Uiso   1.00
H360   H     0.48169   0.52372   0.11265   0.00000  Uiso   1.00
H361   H     0.51488   0.47843   0.39126   0.00000  Uiso   1.00
H362   H     0.62355   0.48278   0.10013   0.00000  Uiso   1.00
H363   H     0.38017   0.53062   0.39641   0.00000  Uiso   1.00
H364   H     0.35915   0.55087   0.47801   0.00000  Uiso   1.00
H365   H     0.65008   0.47971   0.01524   0.00000  Uiso   1.00
H366   H     0.44137   0.55256   0.08012   0.00000  Uiso   1.00
N367   N     0.38093   0.50001   0.25001   0.00000  Uiso   1.00
N368   N     0.61907   0.49999   0.24999   0.00000  Uiso   1.00
O369   O     0.46179   0.56108   0.25001   0.00000  Uiso   1.00
O370   O     0.59694   0.55855   0.29956   0.00000  Uiso   1.00
O371   O     0.53821   0.43892   0.25000   0.00000  Uiso   1.00
O372   O     0.53823   0.56107   0.25000   0.00000  Uiso   1.00
O373   O     0.46177   0.43893   0.25000   0.00000  Uiso   1.00
O374   O     0.43994   0.50001   0.31613   0.00000  Uiso   1.00
O375   O     0.56006   0.49999   0.18388   0.00000  Uiso   1.00
O376   O     0.51639   0.50000   0.31612   0.00000  Uiso   1.00
O377   O     0.48361   0.50000   0.18388   0.00000  Uiso   1.00
O378   O     0.40120   0.44101   0.20046   0.00000  Uiso   1.00
Zn379  Zn    0.44896   0.50001   0.25000   0.00000  Uiso   1.00
Zn380  Zn    0.55104   0.49999   0.25000   0.00000  Uiso   1.00
C381   C     0.83341   0.58004   0.24994   0.00000  Uiso   1.00
C382   C     0.79494   0.64523   0.24386   0.00000  Uiso   1.00
C383   C     0.83344   0.37581   0.24961   0.00000  Uiso   1.00
C384   C     0.83354   0.62419   0.24966   0.00000  Uiso   1.00
C385   C     0.98583   0.47112   0.22501   0.00000  Uiso   1.00
C386   C     0.68086   0.52890   0.27507   0.00000  Uiso   1.00
C387   C     0.70108   0.47137   0.22414   0.00000  Uiso   1.00
C388   C     0.96533   0.52896   0.27578   0.00000  Uiso   1.00
C389   C     0.80271   0.50003   0.33800   0.00000  Uiso   1.00
C390   C     0.86397   0.50069   0.16202   0.00000  Uiso   1.00
C391   C     0.78386   0.50481   0.38839   0.00000  Uiso   1.00
C392   C     0.83334   0.41996   0.24985   0.00000  Uiso   1.00
C393   C     0.88347   0.50311   0.11138   0.00000  Uiso   1.00
C394   C     0.72734   0.53596   0.45918   0.00000  Uiso   1.00
C395   C     0.94664   0.49011   0.03589   0.00000  Uiso   1.00
C396   C     0.73879   0.52379   0.41311   0.00000  Uiso   1.00
C397   C     0.93163   0.49183   0.08414   0.00000  Uiso   1.00
C398   C     0.81593   0.49632   0.41031   0.00000  Uiso   1.00
C399   C     0.85166   0.51525   0.09030   0.00000  Uiso   1.00
C400   C     0.80772   0.51221   0.45447   0.00000  Uiso   1.00
C401   C     0.86544   0.51325   0.04212   0.00000  Uiso   1.00
C402   C     0.76178   0.53084   0.47982   0.00000  Uiso   1.00
C403   C     0.78522   0.53999   0.04548   0.00000  Uiso   1.00
C404   C     0.91346   0.49946   0.01484   0.00000  Uiso   1.00
C405   C     0.84411   0.51018   0.47373   0.00000  Uiso   1.00
C406   C     0.83147   0.52142   0.02097   0.00000  Uiso   1.00
C407   C     0.74182   0.44072   0.15278   0.00000  Uiso   1.00
C408   C     0.78705   0.41503   0.12600   0.00000  Uiso   1.00
C409   C     0.93704   0.57591   0.33850   0.00000  Uiso   1.00
C410   C     0.89022   0.59782   0.36915   0.00000  Uiso   1.00
C411   C     0.89303   0.49834   0.44696   0.00000  Uiso   1.00
C412   C     0.75125   0.54487   0.02498   0.00000  Uiso   1.00
C413   C     0.92724   0.49382   0.46717   0.00000  Uiso   1.00
C414   C     0.87223   0.64552   0.25516   0.00000  Uiso   1.00
C415   C     0.79492   0.35448   0.24379   0.00000  Uiso   1.00
C416   C     0.87215   0.35476   0.25521   0.00000  Uiso   1.00
H417   H     0.71649   0.55960   0.04466   0.00000  Uiso   1.00
H418   H     0.90642   0.49315   0.40992   0.00000  Uiso   1.00
H419   H     0.90231   0.62949   0.25965   0.00000  Uiso   1.00
H420   H     0.76495   0.37053   0.23911   0.00000  Uiso   1.00
H421   H     0.90214   0.37103   0.25983   0.00000  Uiso   1.00
H422   H     0.76494   0.62894   0.23926   0.00000  Uiso   1.00
H423   H     0.97455   0.44762   0.20620   0.00000  Uiso   1.00
H424   H     0.69271   0.55182   0.29403   0.00000  Uiso   1.00
H425   H     0.74755   0.47273   0.13797   0.00000  Uiso   1.00
H426   H     0.71021   0.42604   0.14755   0.00000  Uiso   1.00
H427   H     0.78139   0.38234   0.13835   0.00000  Uiso   1.00
H428   H     0.96413   0.48424   0.44564   0.00000  Uiso   1.00
H429   H     0.79411   0.41562   0.08824   0.00000  Uiso   1.00
H430   H     0.81945   0.42785   0.13127   0.00000  Uiso   1.00
H431   H     0.96681   0.59952   0.32694   0.00000  Uiso   1.00
H432   H     0.94535   0.55156   0.35980   0.00000  Uiso   1.00
H433   H     0.85907   0.57567   0.37999   0.00000  Uiso   1.00
H434   H     0.89445   0.61044   0.40072   0.00000  Uiso   1.00
H435   H     0.88215   0.62381   0.34976   0.00000  Uiso   1.00
H436   H     0.81502   0.52372   0.11265   0.00000  Uiso   1.00
H437   H     0.84821   0.47843   0.39126   0.00000  Uiso   1.00
H438   H     0.95689   0.48278   0.10013   0.00000  Uiso   1.00
H439   H     0.71350   0.53062   0.39641   0.00000  Uiso   1.00
H440   H     0.69249   0.55087   0.47801   0.00000  Uiso   1.00
H441   H     0.98342   0.47971   0.01524   0.00000  Uiso   1.00
H442   H     0.77470   0.55256   0.08012   0.00000  Uiso   1.00
N443   N     0.71426   0.50001   0.25001   0.00000  Uiso   1.00
N444   N     0.95241   0.49999   0.24999   0.00000  Uiso   1.00
O445   O     0.79512   0.56108   0.25001   0.00000  Uiso   1.00
O446   O     0.93028   0.55855   0.29956   0.00000  Uiso   1.00
O447   O     0.87154   0.43892   0.25000   0.00000  Uiso   1.00
O448   O     0.87157   0.56107   0.25000   0.00000  Uiso   1.00
O449   O     0.79510   0.43893   0.25000   0.00000  Uiso   1.00
O450   O     0.77328   0.50001   0.31613   0.00000  Uiso   1.00
O451   O     0.89339   0.49999   0.18388   0.00000  Uiso   1.00
O452   O     0.84972   0.50000   0.31612   0.00000  Uiso   1.00
O453   O     0.81695   0.50000   0.18388   0.00000  Uiso   1.00
O454   O     0.73453   0.44101   0.20046   0.00000  Uiso   1.00
Zn455  Zn    0.78229   0.50001   0.25000   0.00000  Uiso   1.00
Zn456  Zn    0.88438   0.49999   0.25000   0.00000  Uiso   1.00
C457   C     0.16675   0.91337   0.24994   0.00000  Uiso   1.00
C458   C     0.12827   0.97856   0.24386   0.00000  Uiso   1.00
C459   C     0.16678   0.70914   0.24961   0.00000  Uiso   1.00
C460   C     0.16688   0.95752   0.24966   0.00000  Uiso   1.00
C461   C     0.31917   0.80445   0.22501   0.00000  Uiso   1.00
C462   C     0.01420   0.86223   0.27507   0.00000  Uiso   1.00
C463   C     0.03441   0.80470   0.22414   0.00000  Uiso   1.00
C464   C     0.29867   0.86229   0.27578   0.00000  Uiso   1.00
C465   C     0.13605   0.83336   0.33800   0.00000  Uiso   1.00
C466   C     0.19730   0.83402   0.16202   0.00000  Uiso   1.00
C467   C     0.11719   0.83814   0.38839   0.00000  Uiso   1.00
C468   C     0.16667   0.75330   0.24985   0.00000  Uiso   1.00
C469   C     0.21680   0.83645   0.11138   0.00000  Uiso   1.00
C470   C     0.06067   0.86929   0.45918   0.00000  Uiso   1.00
C471   C     0.27997   0.82344   0.03589   0.00000  Uiso   1.00
C472   C     0.07213   0.85712   0.41311   0.00000  Uiso   1.00
C473   C     0.26497   0.82516   0.08414   0.00000  Uiso   1.00
C474   C     0.14926   0.82966   0.41031   0.00000  Uiso   1.00
C475   C     0.18499   0.84858   0.09030   0.00000  Uiso   1.00
C476   C     0.14105   0.84554   0.45447   0.00000  Uiso   1.00
C477   C     0.19877   0.84658   0.04212   0.00000  Uiso   1.00
C478   C     0.09511   0.86417   0.47982   0.00000  Uiso   1.00
C479   C     0.11855   0.87333   0.04548   0.00000  Uiso   1.00
C480   C     0.24679   0.83279   0.01484   0.00000  Uiso   1.00
C481   C     0.17744   0.84351   0.47373   0.00000  Uiso   1.00
C482   C     0.16480   0.85475   0.02097   0.00000  Uiso   1.00
C483   C     0.07515   0.77406   0.15278   0.00000  Uiso   1.00
C484   C     0.12038   0.74837   0.12600   0.00000  Uiso   1.00
C485   C     0.27038   0.90924   0.33850   0.00000  Uiso   1.00
C486   C     0.22356   0.93115   0.36915   0.00000  Uiso   1.00
C487   C     0.22636   0.83168   0.44696   0.00000  Uiso   1.00
C488   C     0.08459   0.87821   0.02498   0.00000  Uiso   1.00
C489   C     0.26057   0.82716   0.46717   0.00000  Uiso   1.00
C490   C     0.20556   0.97886   0.25516   0.00000  Uiso   1.00
C491   C     0.12825   0.68781   0.24379   0.00000  Uiso   1.00
C492   C     0.20548   0.68809   0.25521   0.00000  Uiso   1.00
H493   H     0.04983   0.89294   0.04466   0.00000  Uiso   1.00
H494   H     0.23975   0.82648   0.40992   0.00000  Uiso   1.00
H495   H     0.23564   0.96282   0.25965   0.00000  Uiso   1.00
H496   H     0.09828   0.70386   0.23911   0.00000  Uiso   1.00
H497   H     0.23548   0.70437   0.25983   0.00000  Uiso   1.00
H498   H     0.09827   0.96228   0.23926   0.00000  Uiso   1.00
H499   H     0.30789   0.78096   0.20620   0.00000  Uiso   1.00
H500   H     0.02604   0.88515   0.29403   0.00000  Uiso   1.00
H501   H     0.08088   0.80606   0.13797   0.00000  Uiso   1.00
H502   H     0.04354   0.75938   0.14755   0.00000  Uiso   1.00
H503   H     0.11472   0.71567   0.13835   0.00000  Uiso   1.00
H504   H     0.29747   0.81758   0.44564   0.00000  Uiso   1.00
H505   H     0.12744   0.74895   0.08824   0.00000  Uiso   1.00
H506   H     0.15279   0.76118   0.13127   0.00000  Uiso   1.00
H507   H     0.30014   0.93285   0.32694   0.00000  Uiso   1.00
H508   H     0.27869   0.88490   0.35980   0.00000  Uiso   1.00
H509   H     0.19240   0.90900   0.37999   0.00000  Uiso   1.00
H510   H     0.22778   0.94377   0.40072   0.00000  Uiso   1.00
H511   H     0.21549   0.95715   0.34976   0.00000  Uiso   1.00
H512   H     0.14836   0.85705   0.11265   0.00000  Uiso   1.00
H513   H     0.18154   0.81176   0.39126   0.00000  Uiso   1.00
H514   H     0.29022   0.81612   0.10013   0.00000  Uiso   1.00
H515   H     0.04684   0.86396   0.39641   0.00000  Uiso   1.00
H516   H     0.02582   0.88420   0.47801   0.00000  Uiso   1.00
H517   H     0.31675   0.81305   0.01524   0.00000  Uiso   1.00
H518   H     0.10803   0.88589   0.08012   0.00000  Uiso   1.00
N519   N     0.04759   0.83334   0.25001   0.00000  Uiso   1.00
N520   N     0.28574   0.83332   0.24999   0.00000  Uiso   1.00
O521   O     0.12846   0.89442   0.25001   0.00000  Uiso   1.00
O522   O     0.26361   0.89188   0.29956   0.00000  Uiso   1.00
O523   O     0.20488   0.77225   0.25000   0.00000  Uiso   1.00
O524   O     0.20490   0.89441   0.25000   0.00000  Uiso   1.00
O525   O     0.12843   0.77226   0.25000   0.00000  Uiso   1.00
O526   O     0.10661   0.83334   0.31613   0.00000  Uiso   1.00
O527   O     0.22672   0.83333   0.18388   0.00000  Uiso   1.00
O528   O     0.18305   0.83333   0.31612   0.00000  Uiso   1.00
O529   O     0.15028   0.83334   0.18388   0.00000  Uiso   1.00
O530   O     0.06787   0.77434   0.20046   0.00000  Uiso   1.00
Zn531  Zn    0.11562   0.83334   0.25000   0.00000  Uiso   1.00
Zn532  Zn    0.21771   0.83333   0.25000   0.00000  Uiso   1.00
C533   C     0.50008   0.91337   0.24994   0.00000  Uiso   1.00
C534   C     0.46161   0.97856   0.24386   0.00000  Uiso   1.00
C535   C     0.50011   0.70914   0.24961   0.00000  Uiso   1.00
C536   C     0.50021   0.95752   0.24966   0.00000  Uiso   1.00
C537   C     0.65250   0.80445   0.22501   0.00000  Uiso   1.00
C538   C     0.34753   0.86223   0.27507   0.00000  Uiso   1.00
C539   C     0.36775   0.80470   0.22414   0.00000  Uiso   1.00
C540   C     0.63200   0.86229   0.27578   0.00000  Uiso   1.00
C541   C     0.46938   0.83336   0.33800   0.00000  Uiso   1.00
C542   C     0.53064   0.83402   0.16202   0.00000  Uiso   1.00
C543   C     0.45052   0.83814   0.38839   0.00000  Uiso   1.00
C544   C     0.50000   0.75330   0.24985   0.00000  Uiso   1.00
C545   C     0.55014   0.83645   0.11138   0.00000  Uiso   1.00
C546   C     0.39400   0.86929   0.45918   0.00000  Uiso   1.00
C547   C     0.61330   0.82344   0.03589   0.00000  Uiso   1.00
C548   C     0.40546   0.85712   0.41311   0.00000  Uiso   1.00
C549   C     0.59830   0.82516   0.08414   0.00000  Uiso   1.00
C550   C     0.48260   0.82966   0.41031   0.00000  Uiso   1.00
C551   C     0.51832   0.84858   0.09030   0.00000  Uiso   1.00
C552   C     0.47438   0.84554   0.45447   0.00000  Uiso   1.00
C553   C     0.53210   0.84658   0.04212   0.00000  Uiso   1.00
C554   C     0.42844   0.86417   0.47982   0.00000  Uiso   1.00
C555   C     0.45189   0.87333   0.04548   0.00000  Uiso   1.00
C556   C     0.58013   0.83279   0.01484   0.00000  Uiso   1.00
C557   C     0.51077   0.84351   0.47373   0.00000  Uiso   1.00
C558   C     0.49814   0.85475   0.02097   0.00000  Uiso   1.00
C559   C     0.40849   0.77406   0.15278   0.00000  Uiso   1.00
C560   C     0.45371   0.74837   0.12600   0.00000  Uiso   1.00
C561   C     0.60371   0.90924   0.33850   0.00000  Uiso   1.00
C562   C     0.55689   0.93115   0.36915   0.00000  Uiso   1.00
C563   C     0.55969   0.83168   0.44696   0.00000  Uiso   1.00
C564   C     0.41792   0.87821   0.02498   0.00000  Uiso   1.00
C565   C     0.59390   0.82716   0.46717   0.00000  Uiso   1.00
C566   C     0.53889   0.97886   0.25516   0.00000  Uiso   1.00
C567   C     0.46159   0.68781   0.24379   0.00000  Uiso   1.00
C568   C     0.53881   0.68809   0.25521   0.00000  Uiso   1.00
H569   H     0.38316   0.89294   0.04466   0.00000  Uiso   1.00
H570   H     0.57308   0.82648   0.40992   0.00000  Uiso   1.00
H571   H     0.56898   0.96282   0.25965   0.00000  Uiso   1.00
H572   H     0.43161   0.70386   0.23911   0.00000  Uiso   1.00
H573   H     0.56881   0.70437   0.25983   0.00000  Uiso   1.00
H574   H     0.43160   0.96228   0.23926   0.00000  Uiso   1.00
H575   H     0.64122   0.78096   0.20620   0.00000  Uiso   1.00
H576   H     0.35938   0.88515   0.29403   0.00000  Uiso   1.00
H577   H     0.41422   0.80606   0.13797   0.00000  Uiso   1.00
H578   H     0.37688   0.75938   0.14755   0.00000  Uiso   1.00
H579   H     0.44805   0.71567   0.13835   0.00000  Uiso   1.00
H580   H     0.63080   0.81758   0.44564   0.00000  Uiso   1.00
H581   H     0.46077   0.74895   0.08824   0.00000  Uiso   1.00
H582   H     0.48612   0.76118   0.13127   0.00000  Uiso   1.00
H583   H     0.63348   0.93285   0.32694   0.00000  Uiso   1.00
H584   H     0.61202   0.88490   0.35980   0.00000  Uiso   1.00
H585   H     0.52574   0.90900   0.37999   0.00000  Uiso   1.00
H586   H     0.56112   0.94377   0.40072   0.00000  Uiso   1.00
H587   H     0.54882   0.95715   0.34976   0.00000  Uiso   1.00
H588   H     0.48169   0.85705   0.11265   0.00000  Uiso   1.00
H589   H     0.51488   0.81176   0.39126   0.00000  Uiso   1.00
H590   H     0.62355   0.81612   0.10013   0.00000  Uiso   1.00
H591   H     0.38017   0.86396   0.39641   0.00000  Uiso   1.00
H592   H     0.35915   0.88420   0.47801   0.00000  Uiso   1.00
H593   H     0.65008   0.81305   0.01524   0.00000  Uiso   1.00
H594   H     0.44137   0.88589   0.08012   0.00000  Uiso   1.00
N595   N     0.38093   0.83334   0.25001   0.00000  Uiso   1.00
N596   N     0.61907   0.83332   0.24999   0.00000  Uiso   1.00
O597   O     0.46179   0.89442   0.25001   0.00000  Uiso   1.00
O598   O     0.59694   0.89188   0.29956   0.00000  Uiso   1.00
O599   O     0.53821   0.77225   0.25000   0.00000  Uiso   1.00
O600   O     0.53823   0.89441   0.25000   0.00000  Uiso   1.00
O601   O     0.46177   0.77226   0.25000   0.00000  Uiso   1.00
O602   O     0.43994   0.83334   0.31613   0.00000  Uiso   1.00
O603   O     0.56006   0.83333   0.18388   0.00000  Uiso   1.00
O604   O     0.51639   0.83333   0.31612   0.00000  Uiso   1.00
O605   O     0.48361   0.83334   0.18388   0.00000  Uiso   1.00
O606   O     0.40120   0.77434   0.20046   0.00000  Uiso   1.00
Zn607  Zn    0.44896   0.83334   0.25000   0.00000  Uiso   1.00
Zn608  Zn    0.55104   0.83333   0.25000   0.00000  Uiso   1.00
C609   C     0.83341   0.91337   0.24994   0.00000  Uiso   1.00
C610   C     0.79494   0.97856   0.24386   0.00000  Uiso   1.00
C611   C     0.83344   0.70914   0.24961   0.00000  Uiso   1.00
C612   C     0.83354   0.95752   0.24966   0.00000  Uiso   1.00
C613   C     0.98583   0.80445   0.22501   0.00000  Uiso   1.00
C614   C     0.68086   0.86223   0.27507   0.00000  Uiso   1.00
C615   C     0.70108   0.80470   0.22414   0.00000  Uiso   1.00
C616   C     0.96533   0.86229   0.27578   0.00000  Uiso   1.00
C617   C     0.80271   0.83336   0.33800   0.00000  Uiso   1.00
C618   C     0.86397   0.83402   0.16202   0.00000  Uiso   1.00
C619   C     0.78386   0.83814   0.38839   0.00000  Uiso   1.00
C620   C     0.83334   0.75330   0.24985   0.00000  Uiso   1.00
C621   C     0.88347   0.83645   0.11138   0.00000  Uiso   1.00
C622   C     0.72734   0.86929   0.45918   0.00000  Uiso   1.00
C623   C     0.94664   0.82344   0.03589   0.00000  Uiso   1.00
C624   C     0.73879   0.85712   0.41311   0.00000  Uiso   1.00
C625   C     0.93163   0.82516   0.08414   0.00000  Uiso   1.00
C626   C     0.81593   0.82966   0.41031   0.00000  Uiso   1.00
C627   C     0.85166   0.84858   0.09030   0.00000  Uiso   1.00
C628   C     0.80772   0.84554   0.45447   0.00000  Uiso   1.00
C629   C     0.86544   0.84658   0.04212   0.00000  Uiso   1.00
C630   C     0.76178   0.86417   0.47982   0.00000  Uiso   1.00
C631   C     0.78522   0.87333   0.04548   0.00000  Uiso   1.00
C632   C     0.91346   0.83279   0.01484   0.00000  Uiso   1.00
C633   C     0.84411   0.84351   0.47373   0.00000  Uiso   1.00
C634   C     0.83147   0.85475   0.02097   0.00000  Uiso   1.00
C635   C     0.74182   0.77406   0.15278   0.00000  Uiso   1.00
C636   C     0.78705   0.74837   0.12600   0.00000  Uiso   1.00
C637   C     0.93704   0.90924   0.33850   0.00000  Uiso   1.00
C638   C     0.89022   0.93115   0.36915   0.00000  Uiso   1.00
C639   C     0.89303   0.83168   0.44696   0.00000  Uiso   1.00
C640   C     0.75125   0.87821   0.02498   0.00000  Uiso   1.00
C641   C     0.92724   0.82716   0.46717   0.00000  Uiso   1.00
C642   C     0.87223   0.97886   0.25516   0.00000  Uiso   1.00
C643   C     0.79492   0.68781   0.24379   0.00000  Uiso   1.00
C644   C     0.87215   0.68809   0.25521   0.00000  Uiso   1.00
H645   H     0.71649   0.89294   0.04466   0.00000  Uiso   1.00
H646   H     0.90642   0.82648   0.40992   0.00000  Uiso   1.00
H647   H     0.90231   0.96282   0.25965   0.00000  Uiso   1.00
H648   H     0.76495   0.70386   0.23911   0.00000  Uiso   1.00
H649   H     0.90214   0.70437   0.25983   0.00000  Uiso   1.00
H650   H     0.76494   0.96228   0.23926   0.00000  Uiso   1.00
H651   H     0.97455   0.78096   0.20620   0.00000  Uiso   1.00
H652   H     0.69271   0.88515   0.29403   0.00000  Uiso   1.00
H653   H     0.74755   0.80606   0.13797   0.00000  Uiso   1.00
H654   H     0.71021   0.75938   0.14755   0.00000  Uiso   1.00
H655   H     0.78139   0.71567   0.13835   0.00000  Uiso   1.00
H656   H     0.96413   0.81758   0.44564   0.00000  Uiso   1.00
H657   H     0.79411   0.74895   0.08824   0.00000  Uiso   1.00
H658   H     0.81945   0.76118   0.13127   0.00000  Uiso   1.00
H659   H     0.96681   0.93285   0.32694   0.00000  Uiso   1.00
H660   H     0.94535   0.88490   0.35980   0.00000  Uiso   1.00
H661   H     0.85907   0.90900   0.37999   0.00000  Uiso   1.00
H662   H     0.89445   0.94377   0.40072   0.00000  Uiso   1.00
H663   H     0.88215   0.95715   0.34976   0.00000  Uiso   1.00
H664   H     0.81502   0.85705   0.11265   0.00000  Uiso   1.00
H665   H     0.84821   0.81176   0.39126   0.00000  Uiso   1.00
H666   H     0.95689   0.81612   0.10013   0.00000  Uiso   1.00
H667   H     0.71350   0.86396   0.39641   0.00000  Uiso   1.00
H668   H     0.69249   0.88420   0.47801   0.00000  Uiso   1.00
H669   H     0.98342   0.81305   0.01524   0.00000  Uiso   1.00
H670   H     0.77470   0.88589   0.08012   0.00000  Uiso   1.00
N671   N     0.71426   0.83334   0.25001   0.00000  Uiso   1.00
N672   N     0.95241   0.83332   0.24999   0.00000  Uiso   1.00
O673   O     0.79512   0.89442   0.25001   0.00000  Uiso   1.00
O674   O     0.93028   0.89188   0.29956   0.00000  Uiso   1.00
O675   O     0.87154   0.77225   0.25000   0.00000  Uiso   1.00
O676   O     0.87157   0.89441   0.25000   0.00000  Uiso   1.00
O677   O     0.79510   0.77226   0.25000   0.00000  Uiso   1.00
O678   O     0.77328   0.83334   0.31613   0.00000  Uiso   1.00
O679   O     0.89339   0.83333   0.18388   0.00000  Uiso   1.00
O680   O     0.84972   0.83333   0.31612   0.00000  Uiso   1.00
O681   O     0.81695   0.83334   0.18388   0.00000  Uiso   1.00
O682   O     0.73453   0.77434   0.20046   0.00000  Uiso   1.00
Zn683  Zn    0.78229   0.83334   0.25000   0.00000  Uiso   1.00
Zn684  Zn    0.88438   0.83333   0.25000   0.00000  Uiso   1.00
C685   C     0.16675   0.24670   0.74994   0.00000  Uiso   1.00
C686   C     0.12827   0.31190   0.74386   0.00000  Uiso   1.00
C687   C     0.16678   0.04247   0.74961   0.00000  Uiso   1.00
C688   C     0.16688   0.29086   0.74966   0.00000  Uiso   1.00
C689   C     0.31917   0.13779   0.72501   0.00000  Uiso   1.00
C690   C     0.01420   0.19556   0.77507   0.00000  Uiso   1.00
C691   C     0.03441   0.13804   0.72414   0.00000  Uiso   1.00
C692   C     0.29867   0.19562   0.77578   0.00000  Uiso   1.00
C693   C     0.13605   0.16669   0.83800   0.00000  Uiso   1.00
C694   C     0.19730   0.16736   0.66202   0.00000  Uiso   1.00
C695   C     0.11719   0.17148   0.88839   0.00000  Uiso   1.00
C696   C     0.16667   0.08663   0.74985   0.00000  Uiso   1.00
C697   C     0.21680   0.16978   0.61138   0.00000  Uiso   1.00
C698   C     0.06067   0.20263   0.95918   0.00000  Uiso   1.00
C699   C     0.27997   0.15677   0.53589   0.00000  Uiso   1.00
C700   C     0.07213   0.19046   0.91311   0.00000  Uiso   1.00
C701   C     0.26497   0.15849   0.58414   0.00000  Uiso   1.00
C702   C     0.14926   0.16299   0.91031   0.00000  Uiso   1.00
C703   C     0.18499   0.18191   0.59030   0.00000  Uiso   1.00
C704   C     0.14105   0.17888   0.95447   0.00000  Uiso   1.00
C705   C     0.19877   0.17991   0.54212   0.00000  Uiso   1.00
C706   C     0.09511   0.19751   0.97982   0.00000  Uiso   1.00
C707   C     0.11855   0.20666   0.54548   0.00000  Uiso   1.00
C708   C     0.24679   0.16612   0.51484   0.00000  Uiso   1.00
C709   C     0.17744   0.17684   0.97373   0.00000  Uiso   1.00
C710   C     0.16480   0.18809   0.52097   0.00000  Uiso   1.00
C711   C     0.07515   0.10739   0.65278   0.00000  Uiso   1.00
C712   C     0.12038   0.08170   0.62600   0.00000  Uiso   1.00
C713   C     0.27038   0.24257   0.83850   0.00000  Uiso   1.00
C714   C     0.22356   0.26448   0.86915   0.00000  Uiso   1.00
C715   C     0.22636   0.16501   0.94696   0.00000  Uiso   1.00
C716   C     0.08459   0.21154   0.52498   0.00000  Uiso   1.00
C717   C     0.26057   0.16049   0.96717   0.00000  Uiso   1.00
C718   C     0.20556   0.31219   0.75516   0.00000  Uiso   1.00
C719   C     0.12825   0.02115   0.74379   0.00000  Uiso   1.00
C720   C     0.20548   0.02143   0.75521   0.00000  Uiso   1.00
H721   H     0.04983   0.22627   0.54466   0.00000  Uiso   1.00
H722   H     0.23975   0.15982   0.90992   0.00000  Uiso   1.00
H723   H     0.23564   0.29616   0.75965   0.00000  Uiso   1.00
H724   H     0.09828   0.03720   0.73911   0.00000  Uiso   1.00
H725   H     0.23548   0.03770   0.75983   0.00000  Uiso   1.00
H726   H     0.09827   0.29561   0.73926   0.00000  Uiso   1.00
H727   H     0.30789   0.11429   0.70620   0.00000  Uiso   1.00
H728   H     0.02604   0.21849   0.79403   0.00000  Uiso   1.00
H729   H     0.08088   0.13939   0.63797   0.00000  Uiso   1.00
H730   H     0.04354   0.09271   0.64755   0.00000  Uiso   1.00
H731   H     0.11472   0.04900   0.63835   0.00000  Uiso   1.00
H732   H     0.29747   0.15091   0.94564   0.00000  Uiso   1.00
H733   H     0.12744   0.08228   0.58824   0.00000  Uiso   1.00
H734   H     0.15279   0.09451   0.63127   0.00000  Uiso   1.00
H735   H     0.30014   0.26619   0.82694   0.00000  Uiso   1.00
H736   H     0.27869   0.21823   0.85980   0.00000  Uiso   1.00
H737   H     0.19240   0.24233   0.87999   0.00000  Uiso   1.00
H738   H     0.22778   0.27711   0.90072   0.00000  Uiso   1.00
H739   H     0.21549   0.29048   0.84976   0.00000  Uiso   1.00
H740   H     0.14836   0.19039   0.61265   0.00000  Uiso   1.00
H741   H     0.18154   0.14509   0.89126   0.00000  Uiso   1.00
H742   H     0.29022   0.14945   0.60013   0.00000  Uiso   1.00
H743   H     0.04684   0.19729   0.89641   0.00000  Uiso   1.00
H744   H     0.02582   0.21753   0.97801   0.00000  Uiso   1.00
H745   H     0.31675   0.14638   0.51524   0.00000  Uiso   1.00
H746   H     0.10803   0.21922   0.58012   0.00000  Uiso   1.00
N747   N     0.04759   0.16668   0.75001   0.00000  Uiso   1.00
N748   N     0.28574   0.16666   0.74999   0.00000  Uiso   1.00
O749   O     0.12846   0.22775   0.75001   0.00000  Uiso   1.00
O750   O     0.26361   0.22522   0.79956   0.00000  Uiso   1.00
O751   O     0.20488   0.10558   0.75000   0.00000  Uiso   1.00
O752   O     0.20490   0.22774   0.75000   0.00000  Uiso   1.00
O753   O     0.12843   0.10559   0.75000   0.00000  Uiso   1.00
O754   O     0.10661   0.16667   0.81613   0.00000  Uiso   1.00
O755   O     0.22672   0.16666   0.68388   0.00000  Uiso   1.00
O756   O     0.18305   0.16666   0.81612   0.00000  Uiso   1.00
O757   O     0.15028   0.16667   0.68388   0.00000  Uiso   1.00
O758   O     0.06787   0.10768   0.70046   0.00000  Uiso   1.00
Zn759  Zn    0.11562   0.16667   0.75000   0.00000  Uiso   1.00
Zn760  Zn    0.21771   0.16666   0.75000   0.00000  Uiso   1.00
C761   C     0.50008   0.24670   0.74994   0.00000  Uiso   1.00
C762   C     0.46161   0.31190   0.74386   0.00000  Uiso   1.00
C763   C     0.50011   0.04247   0.74961   0.00000  Uiso   1.00
C764   C     0.50021   0.29086   0.74966   0.00000  Uiso   1.00
C765   C     0.65250   0.13779   0.72501   0.00000  Uiso   1.00
C766   C     0.34753   0.19556   0.77507   0.00000  Uiso   1.00
C767   C     0.36775   0.13804   0.72414   0.00000  Uiso   1.00
C768   C     0.63200   0.19562   0.77578   0.00000  Uiso   1.00
C769   C     0.46938   0.16669   0.83800   0.00000  Uiso   1.00
C770   C     0.53064   0.16736   0.66202   0.00000  Uiso   1.00
C771   C     0.45052   0.17148   0.88839   0.00000  Uiso   1.00
C772   C     0.50000   0.08663   0.74985   0.00000  Uiso   1.00
C773   C     0.55014   0.16978   0.61138   0.00000  Uiso   1.00
C774   C     0.39400   0.20263   0.95918   0.00000  Uiso   1.00
C775   C     0.61330   0.15677   0.53589   0.00000  Uiso   1.00
C776   C     0.40546   0.19046   0.91311   0.00000  Uiso   1.00
C777   C     0.59830   0.15849   0.58414   0.00000  Uiso   1.00
C778   C     0.48260   0.16299   0.91031   0.00000  Uiso   1.00
C779   C     0.51832   0.18191   0.59030   0.00000  Uiso   1.00
C780   C     0.47438   0.17888   0.95447   0.00000  Uiso   1.00
C781   C     0.53210   0.17991   0.54212   0.00000  Uiso   1.00
C782   C     0.42844   0.19751   0.97982   0.00000  Uiso   1.00
C783   C     0.45189   0.20666   0.54548   0.00000  Uiso   1.00
C784   C     0.58013   0.16612   0.51484   0.00000  Uiso   1.00
C785   C     0.51077   0.17684   0.97373   0.00000  Uiso   1.00
C786   C     0.49814   0.18809   0.52097   0.00000  Uiso   1.00
C787   C     0.40849   0.10739   0.65278   0.00000  Uiso   1.00
C788   C     0.45371   0.08170   0.62600   0.00000  Uiso   1.00
C789   C     0.60371   0.24257   0.83850   0.00000  Uiso   1.00
C790   C     0.55689   0.26448   0.86915   0.00000  Uiso   1.00
C791   C     0.55969   0.16501   0.94696   0.00000  Uiso   1.00
C792   C     0.41792   0.21154   0.52498   0.00000  Uiso   1.00
C793   C     0.59390   0.16049   0.96717   0.00000  Uiso   1.00
C794   C     0.53889   0.31219   0.75516   0.00000  Uiso   1.00
C795   C     0.46159   0.02115   0.74379   0.00000  Uiso   1.00
C796   C     0.53881   0.02143   0.75521   0.00000  Uiso   1.00
H797   H     0.38316   0.22627   0.54466   0.00000  Uiso   1.00
H798   H     0.57308   0.15982   0.90992   0.00000  Uiso   1.00
H799   H     0.56898   0.29616   0.75965   0.00000  Uiso   1.00
H800   H     0.43161   0.03720   0.73911   0.00000  Uiso   1.00
H801   H     0.56881   0.03770   0.75983   0.00000  Uiso   1.00
H802   H     0.43160   0.29561   0.73926   0.00000  Uiso   1.00
H803   H     0.64122   0.11429   0.70620   0.00000  Uiso   1.00
H804   H     0.35938   0.21849   0.79403   0.00000  Uiso   1.00
H805   H     0.41422   0.13939   0.63797   0.00000  Uiso   1.00
H806   H     0.37688   0.09271   0.64755   0.00000  Uiso   1.00
H807   H     0.44805   0.04900   0.63835   0.00000  Uiso   1.00
H808   H     0.63080   0.15091   0.94564   0.00000  Uiso   1.00
H809   H     0.46077   0.08228   0.58824   0.00000  Uiso   1.00
H810   H     0.48612   0.09451   0.63127   0.00000  Uiso   1.00
H811   H     0.63348   0.26619   0.82694   0.00000  Uiso   1.00
H812   H     0.61202   0.21823   0.85980   0.00000  Uiso   1.00
H813   H     0.52574   0.24233   0.87999   0.00000  Uiso   1.00
H814   H     0.56112   0.27711   0.90072   0.00000  Uiso   1.00
H815   H     0.54882   0.29048   0.84976   0.00000  Uiso   1.00
H816   H     0.48169   0.19039   0.61265   0.00000  Uiso   1.00
H817   H     0.51488   0.14509   0.89126   0.00000  Uiso   1.00
H818   H     0.62355   0.14945   0.60013   0.00000  Uiso   1.00
H819   H     0.38017   0.19729   0.89641   0.00000  Uiso   1.00
H820   H     0.35915   0.21753   0.97801   0.00000  Uiso   1.00
H821   H     0.65008   0.14638   0.51524   0.00000  Uiso   1.00
H822   H     0.44137   0.21922   0.58012   0.00000  Uiso   1.00
N823   N     0.38093   0.16668   0.75001   0.00000  Uiso   1.00
N824   N     0.61907   0.16666   0.74999   0.00000  Uiso   1.00
O825   O     0.46179   0.22775   0.75001   0.00000  Uiso   1.00
O826   O     0.59694   0.22522   0.79956   0.00000  Uiso   1.00
O827   O     0.53821   0.10558   0.75000   0.00000  Uiso   1.00
O828   O     0.53823   0.22774   0.75000   0.00000  Uiso   1.00
O829   O     0.46177   0.10559   0.75000   0.00000  Uiso   1.00
O830   O     0.43994   0.16667   0.81613   0.00000  Uiso   1.00
O831   O     0.56006   0.16666   0.68388   0.00000  Uiso   1.00
O832   O     0.51639   0.16666   0.81612   0.00000  Uiso   1.00
O833   O     0.48361   0.16667   0.68388   0.00000  Uiso   1.00
O834   O     0.40120   0.10768   0.70046   0.00000  Uiso   1.00
Zn835  Zn    0.44896   0.16667   0.75000   0.00000  Uiso   1.00
Zn836  Zn    0.55104   0.16666   0.75000   0.00000  Uiso   1.00
C837   C     0.83341   0.24670   0.74994   0.00000  Uiso   1.00
C838   C     0.79494   0.31190   0.74386   0.00000  Uiso   1.00
C839   C     0.83344   0.04247   0.74961   0.00000  Uiso   1.00
C840   C     0.83354   0.29086   0.74966   0.00000  Uiso   1.00
C841   C     0.98583   0.13779   0.72501   0.00000  Uiso   1.00
C842   C     0.68086   0.19556   0.77507   0.00000  Uiso   1.00
C843   C     0.70108   0.13804   0.72414   0.00000  Uiso   1.00
C844   C     0.96533   0.19562   0.77578   0.00000  Uiso   1.00
C845   C     0.80271   0.16669   0.83800   0.00000  Uiso   1.00
C846   C     0.86397   0.16736   0.66202   0.00000  Uiso   1.00
C847   C     0.78386   0.17148   0.88839   0.00000  Uiso   1.00
C848   C     0.83334   0.08663   0.74985   0.00000  Uiso   1.00
C849   C     0.88347   0.16978   0.61138   0.00000  Uiso   1.00
C850   C     0.72734   0.20263   0.95918   0.00000  Uiso   1.00
C851   C     0.94664   0.15677   0.53589   0.00000  Uiso   1.00
C852   C     0.73879   0.19046   0.91311   0.00000  Uiso   1.00
C853   C     0.93163   0.15849   0.58414   0.00000  Uiso   1.00
C854   C     0.81593   0.16299   0.91031   0.00000  Uiso   1.00
C855   C     0.85166   0.18191   0.59030   0.00000  Uiso   1.00
C856   C     0.80772   0.17888   0.95447   0.00000  Uiso   1.00
C857   C     0.86544   0.17991   0.54212   0.00000  Uiso   1.00
C858   C     0.76178   0.19751   0.97982   0.00000  Uiso   1.00
C859   C     0.78522   0.20666   0.54548   0.00000  Uiso   1.00
C860   C     0.91346   0.16612   0.51484   0.00000  Uiso   1.00
C861   C     0.84411   0.17684   0.97373   0.00000  Uiso   1.00
C862   C     0.83147   0.18809   0.52097   0.00000  Uiso   1.00
C863   C     0.74182   0.10739   0.65278   0.00000  Uiso   1.00
C864   C     0.78705   0.08170   0.62600   0.00000  Uiso   1.00
C865   C     0.93704   0.24257   0.83850   0.00000  Uiso   1.00
C866   C     0.89022   0.26448   0.86915   0.00000  Uiso   1.00
C867   C     0.89303   0.16501   0.94696   0.00000  Uiso   1.00
C868   C     0.75125   0.21154   0.52498   0.00000  Uiso   1.00
C869   C     0.92724   0.16049   0.96717   0.00000  Uiso   1.00
C870   C     0.87223   0.31219   0.75516   0.00000  Uiso   1.00
C871   C     0.79492   0.02115   0.74379   0.00000  Uiso   1.00
C872   C     0.87215   0.02143   0.75521   0.00000  Uiso   1.00
H873   H     0.71649   0.22627   0.54466   0.00000  Uiso   1.00
H874   H     0.90642   0.15982   0.90992   0.00000  Uiso   1.00
H875   H     0.90231   0.29616   0.75965   0.00000  Uiso   1.00
H876   H     0.76495   0.03720   0.73911   0.00000  Uiso   1.00
H877   H     0.90214   0.03770   0.75983   0.00000  Uiso   1.00
H878   H     0.76494   0.29561   0.73926   0.00000  Uiso   1.00
H879   H     0.97455   0.11429   0.70620   0.00000  Uiso   1.00
H880   H     0.69271   0.21849   0.79403   0.00000  Uiso   1.00
H881   H     0.74755   0.13939   0.63797   0.00000  Uiso   1.00
H882   H     0.71021   0.09271   0.64755   0.00000  Uiso   1.00
H883   H     0.78139   0.04900   0.63835   0.00000  Uiso   1.00
H884   H     0.96413   0.15091   0.94564   0.00000  Uiso   1.00
H885   H     0.79411   0.08228   0.58824   0.00000  Uiso   1.00
H886   H     0.81945   0.09451   0.63127   0.00000  Uiso   1.00
H887   H     0.96681   0.26619   0.82694   0.00000  Uiso   1.00
H888   H     0.94535   0.21823   0.85980   0.00000  Uiso   1.00
H889   H     0.85907   0.24233   0.87999   0.00000  Uiso   1.00
H890   H     0.89445   0.27711   0.90072   0.00000  Uiso   1.00
H891   H     0.88215   0.29048   0.84976   0.00000  Uiso   1.00
H892   H     0.81502   0.19039   0.61265   0.00000  Uiso   1.00
H893   H     0.84821   0.14509   0.89126   0.00000  Uiso   1.00
H894   H     0.95689   0.14945   0.60013   0.00000  Uiso   1.00
H895   H     0.71350   0.19729   0.89641   0.00000  Uiso   1.00
H896   H     0.69249   0.21753   0.97801   0.00000  Uiso   1.00
H897   H     0.98342   0.14638   0.51524   0.00000  Uiso   1.00
H898   H     0.77470   0.21922   0.58012   0.00000  Uiso   1.00
N899   N     0.71426   0.16668   0.75001   0.00000  Uiso   1.00
N900   N     0.95241   0.16666   0.74999   0.00000  Uiso   1.00
O901   O     0.79512   0.22775   0.75001   0.00000  Uiso   1.00
O902   O     0.93028   0.22522   0.79956   0.00000  Uiso   1.00
O903   O     0.87154   0.10558   0.75000   0.00000  Uiso   1.00
O904   O     0.87157   0.22774   0.75000   0.00000  Uiso   1.00
O905   O     0.79510   0.10559   0.75000   0.00000  Uiso   1.00
O906   O     0.77328   0.16667   0.81613   0.00000  Uiso   1.00
O907   O     0.89339   0.16666   0.68388   0.00000  Uiso   1.00
O908   O     0.84972   0.16666   0.81612   0.00000  Uiso   1.00
O909   O     0.81695   0.16667   0.68388   0.00000  Uiso   1.00
O910   O     0.73453   0.10768   0.70046   0.00000  Uiso   1.00
Zn911  Zn    0.78229   0.16667   0.75000   0.00000  Uiso   1.00
Zn912  Zn    0.88438   0.16666   0.75000   0.00000  Uiso   1.00
C913   C     0.16675   0.58004   0.74994   0.00000  Uiso   1.00
C914   C     0.12827   0.64523   0.74386   0.00000  Uiso   1.00
C915   C     0.16678   0.37581   0.74961   0.00000  Uiso   1.00
C916   C     0.16688   0.62419   0.74966   0.00000  Uiso   1.00
C917   C     0.31917   0.47112   0.72501   0.00000  Uiso   1.00
C918   C     0.01420   0.52890   0.77507   0.00000  Uiso   1.00
C919   C     0.03441   0.47137   0.72414   0.00000  Uiso   1.00
C920   C     0.29867   0.52896   0.77578   0.00000  Uiso   1.00
C921   C     0.13605   0.50003   0.83800   0.00000  Uiso   1.00
C922   C     0.19730   0.50069   0.66202   0.00000  Uiso   1.00
C923   C     0.11719   0.50481   0.88839   0.00000  Uiso   1.00
C924   C     0.16667   0.41996   0.74985   0.00000  Uiso   1.00
C925   C     0.21680   0.50311   0.61138   0.00000  Uiso   1.00
C926   C     0.06067   0.53596   0.95918   0.00000  Uiso   1.00
C927   C     0.27997   0.49011   0.53589   0.00000  Uiso   1.00
C928   C     0.07213   0.52379   0.91311   0.00000  Uiso   1.00
C929   C     0.26497   0.49183   0.58414   0.00000  Uiso   1.00
C930   C     0.14926   0.49632   0.91031   0.00000  Uiso   1.00
C931   C     0.18499   0.51525   0.59030   0.00000  Uiso   1.00
C932   C     0.14105   0.51221   0.95447   0.00000  Uiso   1.00
C933   C     0.19877   0.51325   0.54212   0.00000  Uiso   1.00
C934   C     0.09511   0.53084   0.97982   0.00000  Uiso   1.00
C935   C     0.11855   0.53999   0.54548   0.00000  Uiso   1.00
C936   C     0.24679   0.49946   0.51484   0.00000  Uiso   1.00
C937   C     0.17744   0.51018   0.97373   0.00000  Uiso   1.00
C938   C     0.16480   0.52142   0.52097   0.00000  Uiso   1.00
C939   C     0.07515   0.44072   0.65278   0.00000  Uiso   1.00
C940   C     0.12038   0.41503   0.62600   0.00000  Uiso   1.00
C941   C     0.27038   0.57591   0.83850   0.00000  Uiso   1.00
C942   C     0.22356   0.59782   0.86915   0.00000  Uiso   1.00
C943   C     0.22636   0.49834   0.94696   0.00000  Uiso   1.00
C944   C     0.08459   0.54487   0.52498   0.00000  Uiso   1.00
C945   C     0.26057   0.49382   0.96717   0.00000  Uiso   1.00
C946   C     0.20556   0.64552   0.75516   0.00000  Uiso   1.00
C947   C     0.12825   0.35448   0.74379   0.00000  Uiso   1.00
C948   C     0.20548   0.35476   0.75521   0.00000  Uiso   1.00
H949   H     0.04983   0.55960   0.54466   0.00000  Uiso   1.00
H950   H     0.23975   0.49315   0.90992   0.00000  Uiso   1.00
H951   H     0.23564   0.62949   0.75965   0.00000  Uiso   1.00
H952   H     0.09828   0.37053   0.73911   0.00000  Uiso   1.00
H953   H     0.23548   0.37103   0.75983   0.00000  Uiso   1.00
H954   H     0.09827   0.62894   0.73926   0.00000  Uiso   1.00
H955   H     0.30789   0.44762   0.70620   0.00000  Uiso   1.00
H956   H     0.02604   0.55182   0.79403   0.00000  Uiso   1.00
H957   H     0.08088   0.47273   0.63797   0.00000  Uiso   1.00
H958   H     0.04354   0.42604   0.64755   0.00000  Uiso   1.00
H959   H     0.11472   0.38234   0.63835   0.00000  Uiso   1.00
H960   H     0.29747   0.48424   0.94564   0.00000  Uiso   1.00
H961   H     0.12744   0.41562   0.58824   0.00000  Uiso   1.00
H962   H     0.15279   0.42785   0.63127   0.00000  Uiso   1.00
H963   H     0.30014   0.59952   0.82694   0.00000  Uiso   1.00
H964   H     0.27869   0.55156   0.85980   0.00000  Uiso   1.00
H965   H     0.19240   0.57567   0.87999   0.00000  Uiso   1.00
H966   H     0.22778   0.61044   0.90072   0.00000  Uiso   1.00
H967   H     0.21549   0.62381   0.84976   0.00000  Uiso   1.00
H968   H     0.14836   0.52372   0.61265   0.00000  Uiso   1.00
H969   H     0.18154   0.47843   0.89126   0.00000  Uiso   1.00
H970   H     0.29022   0.48278   0.60013   0.00000  Uiso   1.00
H971   H     0.04684   0.53062   0.89641   0.00000  Uiso   1.00
H972   H     0.02582   0.55087   0.97801   0.00000  Uiso   1.00
H973   H     0.31675   0.47971   0.51524   0.00000  Uiso   1.00
H974   H     0.10803   0.55256   0.58012   0.00000  Uiso   1.00
N975   N     0.04759   0.50001   0.75001   0.00000  Uiso   1.00
N976   N     0.28574   0.49999   0.74999   0.00000  Uiso   1.00
O977   O     0.12846   0.56108   0.75001   0.00000  Uiso   1.00
O978   O     0.26361   0.55855   0.79956   0.00000  Uiso   1.00
O979   O     0.20488   0.43892   0.75000   0.00000  Uiso   1.00
O980   O     0.20490   0.56107   0.75000   0.00000  Uiso   1.00
O981   O     0.12843   0.43893   0.75000   0.00000  Uiso   1.00
O982   O     0.10661   0.50001   0.81613   0.00000  Uiso   1.00
O983   O     0.22672   0.49999   0.68388   0.00000  Uiso   1.00
O984   O     0.18305   0.50000   0.81612   0.00000  Uiso   1.00
O985   O     0.15028   0.50000   0.68388   0.00000  Uiso   1.00
O986   O     0.06787   0.44101   0.70046   0.00000  Uiso   1.00
Zn987  Zn    0.11562   0.50001   0.75000   0.00000  Uiso   1.00
Zn988  Zn    0.21771   0.49999   0.75000   0.00000  Uiso   1.00
C989   C     0.50008   0.58004   0.74994   0.00000  Uiso   1.00
C990   C     0.46161   0.64523   0.74386   0.00000  Uiso   1.00
C991   C     0.50011   0.37581   0.74961   0.00000  Uiso   1.00
C992   C     0.50021   0.62419   0.74966   0.00000  Uiso   1.00
C993   C     0.65250   0.47112   0.72501   0.00000  Uiso   1.00
C994   C     0.34753   0.52890   0.77507   0.00000  Uiso   1.00
C995   C     0.36775   0.47137   0.72414   0.00000  Uiso   1.00
C996   C     0.63200   0.52896   0.77578   0.00000  Uiso   1.00
C997   C     0.46938   0.50003   0.83800   0.00000  Uiso   1.00
C998   C     0.53064   0.50069   0.66202   0.00000  Uiso   1.00
C999   C     0.45052   0.50481   0.88839   0.00000  Uiso   1.00
C1000  C     0.50000   0.41996   0.74985   0.00000  Uiso   1.00
C1001  C     0.55014   0.50311   0.61138   0.00000  Uiso   1.00
C1002  C     0.39400   0.53596   0.95918   0.00000  Uiso   1.00
C1003  C     0.61330   0.49011   0.53589   0.00000  Uiso   1.00
C1004  C     0.40546   0.52379   0.91311   0.00000  Uiso   1.00
C1005  C     0.59830   0.49183   0.58414   0.00000  Uiso   1.00
C1006  C     0.48260   0.49632   0.91031   0.00000  Uiso   1.00
C1007  C     0.51832   0.51525   0.59030   0.00000  Uiso   1.00
C1008  C     0.47438   0.51221   0.95447   0.00000  Uiso   1.00
C1009  C     0.53210   0.51325   0.54212   0.00000  Uiso   1.00
C1010  C     0.42844   0.53084   0.97982   0.00000  Uiso   1.00
C1011  C     0.45189   0.53999   0.54548   0.00000  Uiso   1.00
C1012  C     0.58013   0.49946   0.51484   0.00000  Uiso   1.00
C1013  C     0.51077   0.51018   0.97373   0.00000  Uiso   1.00
C1014  C     0.49814   0.52142   0.52097   0.00000  Uiso   1.00
C1015  C     0.40849   0.44072   0.65278   0.00000  Uiso   1.00
C1016  C     0.45371   0.41503   0.62600   0.00000  Uiso   1.00
C1017  C     0.60371   0.57591   0.83850   0.00000  Uiso   1.00
C1018  C     0.55689   0.59782   0.86915   0.00000  Uiso   1.00
C1019  C     0.55969   0.49834   0.94696   0.00000  Uiso   1.00
C1020  C     0.41792   0.54487   0.52498   0.00000  Uiso   1.00
C1021  C     0.59390   0.49382   0.96717   0.00000  Uiso   1.00
C1022  C     0.53889   0.64552   0.75516   0.00000  Uiso   1.00
C1023  C     0.46159   0.35448   0.74379   0.00000  Uiso   1.00
C1024  C     0.53881   0.35476   0.75521   0.00000  Uiso   1.00
H1025  H     0.38316   0.55960   0.54466   0.00000  Uiso   1.00
H1026  H     0.57308   0.49315   0.90992   0.00000  Uiso   1.00
H1027  H     0.56898   0.62949   0.75965   0.00000  Uiso   1.00
H1028  H     0.43161   0.37053   0.73911   0.00000  Uiso   1.00
H1029  H     0.56881   0.37103   0.75983   0.00000  Uiso   1.00
H1030  H     0.43160   0.62894   0.73926   0.00000  Uiso   1.00
H1031  H     0.64122   0.44762   0.70620   0.00000  Uiso   1.00
H1032  H     0.35938   0.55182   0.79403   0.00000  Uiso   1.00
H1033  H     0.41422   0.47273   0.63797   0.00000  Uiso   1.00
H1034  H     0.37688   0.42604   0.64755   0.00000  Uiso   1.00
H1035  H     0.44805   0.38234   0.63835   0.00000  Uiso   1.00
H1036  H     0.63080   0.48424   0.94564   0.00000  Uiso   1.00
H1037  H     0.46077   0.41562   0.58824   0.00000  Uiso   1.00
H1038  H     0.48612   0.42785   0.63127   0.00000  Uiso   1.00
H1039  H     0.63348   0.59952   0.82694   0.00000  Uiso   1.00
H1040  H     0.61202   0.55156   0.85980   0.00000  Uiso   1.00
H1041  H     0.52574   0.57567   0.87999   0.00000  Uiso   1.00
H1042  H     0.56112   0.61044   0.90072   0.00000  Uiso   1.00
H1043  H     0.54882   0.62381   0.84976   0.00000  Uiso   1.00
H1044  H     0.48169   0.52372   0.61265   0.00000  Uiso   1.00
H1045  H     0.51488   0.47843   0.89126   0.00000  Uiso   1.00
H1046  H     0.62355   0.48278   0.60013   0.00000  Uiso   1.00
H1047  H     0.38017   0.53062   0.89641   0.00000  Uiso   1.00
H1048  H     0.35915   0.55087   0.97801   0.00000  Uiso   1.00
H1049  H     0.65008   0.47971   0.51524   0.00000  Uiso   1.00
H1050  H     0.44137   0.55256   0.58012   0.00000  Uiso   1.00
N1051  N     0.38093   0.50001   0.75001   0.00000  Uiso   1.00
N1052  N     0.61907   0.49999   0.74999   0.00000  Uiso   1.00
O1053  O     0.46179   0.56108   0.75001   0.00000  Uiso   1.00
O1054  O     0.59694   0.55855   0.79956   0.00000  Uiso   1.00
O1055  O     0.53821   0.43892   0.75000   0.00000  Uiso   1.00
O1056  O     0.53823   0.56107   0.75000   0.00000  Uiso   1.00
O1057  O     0.46177   0.43893   0.75000   0.00000  Uiso   1.00
O1058  O     0.43994   0.50001   0.81613   0.00000  Uiso   1.00
O1059  O     0.56006   0.49999   0.68388   0.00000  Uiso   1.00
O1060  O     0.51639   0.50000   0.81612   0.00000  Uiso   1.00
O1061  O     0.48361   0.50000   0.68388   0.00000  Uiso   1.00
O1062  O     0.40120   0.44101   0.70046   0.00000  Uiso   1.00
Zn1063 Zn    0.44896   0.50001   0.75000   0.00000  Uiso   1.00
Zn1064 Zn    0.55104   0.49999   0.75000   0.00000  Uiso   1.00
C1065  C     0.83341   0.58004   0.74994   0.00000  Uiso   1.00
C1066  C     0.79494   0.64523   0.74386   0.00000  Uiso   1.00
C1067  C     0.83344   0.37581   0.74961   0.00000  Uiso   1.00
C1068  C     0.83354   0.62419   0.74966   0.00000  Uiso   1.00
C1069  C     0.98583   0.47112   0.72501   0.00000  Uiso   1.00
C1070  C     0.68086   0.52890   0.77507   0.00000  Uiso   1.00
C1071  C     0.70108   0.47137   0.72414   0.00000  Uiso   1.00
C1072  C     0.96533   0.52896   0.77578   0.00000  Uiso   1.00
C1073  C     0.80271   0.50003   0.83800   0.00000  Uiso   1.00
C1074  C     0.86397   0.50069   0.66202   0.00000  Uiso   1.00
C1075  C     0.78386   0.50481   0.88839   0.00000  Uiso   1.00
C1076  C     0.83334   0.41996   0.74985   0.00000  Uiso   1.00
C1077  C     0.88347   0.50311   0.61138   0.00000  Uiso   1.00
C1078  C     0.72734   0.53596   0.95918   0.00000  Uiso   1.00
C1079  C     0.94664   0.49011   0.53589   0.00000  Uiso   1.00
C1080  C     0.73879   0.52379   0.91311   0.00000  Uiso   1.00
C1081  C     0.93163   0.49183   0.58414   0.00000  Uiso   1.00
C1082  C     0.81593   0.49632   0.91031   0.00000  Uiso   1.00
C1083  C     0.85166   0.51525   0.59030   0.00000  Uiso   1.00
C1084  C     0.80772   0.51221   0.95447   0.00000  Uiso   1.00
C1085  C     0.86544   0.51325   0.54212   0.00000  Uiso   1.00
C1086  C     0.76178   0.53084   0.97982   0.00000  Uiso   1.00
C1087  C     0.78522   0.53999   0.54548   0.00000  Uiso   1.00
C1088  C     0.91346   0.49946   0.51484   0.00000  Uiso   1.00
C1089  C     0.84411   0.51018   0.97373   0.00000  Uiso   1.00
C1090  C     0.83147   0.52142   0.52097   0.00000  Uiso   1.00
C1091  C     0.74182   0.44072   0.65278   0.00000  Uiso   1.00
C1092  C     0.78705   0.41503   0.62600   0.00000  Uiso   1.00
C1093  C     0.93704   0.57591   0.83850   0.00000  Uiso   1.00
C1094  C     0.89022   0.59782   0.86915   0.00000  Uiso   1.00
C1095  C     0.89303   0.49834   0.94696   0.00000  Uiso   1.00
C1096  C     0.75125   0.54487   0.52498   0.00000  Uiso   1.00
C1097  C     0.92724   0.49382   0.96717   0.00000  Uiso   1.00
C1098  C     0.87223   0.64552   0.75516   0.00000  Uiso   1.00
C1099  C     0.79492   0.35448   0.74379   0.00000  Uiso   1.00
C1100  C     0.87215   0.35476   0.75521   0.00000  Uiso   1.00
H1101  H     0.71649   0.55960   0.54466   0.00000  Uiso   1.00
H1102  H     0.90642   0.49315   0.90992   0.00000  Uiso   1.00
H1103  H     0.90231   0.62949   0.75965   0.00000  Uiso   1.00
H1104  H     0.76495   0.37053   0.73911   0.00000  Uiso   1.00
H1105  H     0.90214   0.37103   0.75983   0.00000  Uiso   1.00
H1106  H     0.76494   0.62894   0.73926   0.00000  Uiso   1.00
H1107  H     0.97455   0.44762   0.70620   0.00000  Uiso   1.00
H1108  H     0.69271   0.55182   0.79403   0.00000  Uiso   1.00
H1109  H     0.74755   0.47273   0.63797   0.00000  Uiso   1.00
H1110  H     0.71021   0.42604   0.64755   0.00000  Uiso   1.00
H1111  H     0.78139   0.38234   0.63835   0.00000  Uiso   1.00
H1112  H     0.96413   0.48424   0.94564   0.00000  Uiso   1.00
H1113  H     0.79411   0.41562   0.58824   0.00000  Uiso   1.00
H1114  H     0.81945   0.42785   0.63127   0.00000  Uiso   1.00
H1115  H     0.96681   0.59952   0.82694   0.00000  Uiso   1.00
H1116  H     0.94535   0.55156   0.85980   0.00000  Uiso   1.00
H1117  H     0.85907   0.57567   0.87999   0.00000  Uiso   1.00
H1118  H     0.89445   0.61044   0.90072   0.00000  Uiso   1.00
H1119  H     0.88215   0.62381   0.84976   0.00000  Uiso   1.00
H1120  H     0.81502   0.52372   0.61265   0.00000  Uiso   1.00
H1121  H     0.84821   0.47843   0.89126   0.00000  Uiso   1.00
H1122  H     0.95689   0.48278   0.60013   0.00000  Uiso   1.00
H1123  H     0.71350   0.53062   0.89641   0.00000  Uiso   1.00
H1124  H     0.69249   0.55087   0.97801   0.00000  Uiso   1.00
H1125  H     0.98342   0.47971   0.51524   0.00000  Uiso   1.00
H1126  H     0.77470   0.55256   0.58012   0.00000  Uiso   1.00
N1127  N     0.71426   0.50001   0.75001   0.00000  Uiso   1.00
N1128  N     0.95241   0.49999   0.74999   0.00000  Uiso   1.00
O1129  O     0.79512   0.56108   0.75001   0.00000  Uiso   1.00
O1130  O     0.93028   0.55855   0.79956   0.00000  Uiso   1.00
O1131  O     0.87154   0.43892   0.75000   0.00000  Uiso   1.00
O1132  O     0.87157   0.56107   0.75000   0.00000  Uiso   1.00
O1133  O     0.79510   0.43893   0.75000   0.00000  Uiso   1.00
O1134  O     0.77328   0.50001   0.81613   0.00000  Uiso   1.00
O1135  O     0.89339   0.49999   0.68388   0.00000  Uiso   1.00
O1136  O     0.84972   0.50000   0.81612   0.00000  Uiso   1.00
O1137  O     0.81695   0.50000   0.68388   0.00000  Uiso   1.00
O1138  O     0.73453   0.44101   0.70046   0.00000  Uiso   1.00
Zn1139 Zn    0.78229   0.50001   0.75000   0.00000  Uiso   1.00
Zn1140 Zn    0.88438   0.49999   0.75000   0.00000  Uiso   1.00
C1141  C     0.16675   0.91337   0.74994   0.00000  Uiso   1.00
C1142  C     0.12827   0.97856   0.74386   0.00000  Uiso   1.00
C1143  C     0.16678   0.70914   0.74961   0.00000  Uiso   1.00
C1144  C     0.16688   0.95752   0.74966   0.00000  Uiso   1.00
C1145  C     0.31917   0.80445   0.72501   0.00000  Uiso   1.00
C1146  C     0.01420   0.86223   0.77507   0.00000  Uiso   1.00
C1147  C     0.03441   0.80470   0.72414   0.00000  Uiso   1.00
C1148  C     0.29867   0.86229   0.77578   0.00000  Uiso   1.00
C1149  C     0.13605   0.83336   0.83800   0.00000  Uiso   1.00
C1150  C     0.19730   0.83402   0.66202   0.00000  Uiso   1.00
C1151  C     0.11719   0.83814   0.88839   0.00000  Uiso   1.00
C1152  C     0.16667   0.75330   0.74985   0.00000  Uiso   1.00
C1153  C     0.21680   0.83645   0.61138   0.00000  Uiso   1.00
C1154  C     0.06067   0.86929   0.95918   0.00000  Uiso   1.00
C1155  C     0.27997   0.82344   0.53589   0.00000  Uiso   1.00
C1156  C     0.07213   0.85712   0.91311   0.00000  Uiso   1.00
C1157  C     0.26497   0.82516   0.58414   0.00000  Uiso   1.00
C1158  C     0.14926   0.82966   0.91031   0.00000  Uiso   1.00
C1159  C     0.18499   0.84858   0.59030   0.00000  Uiso   1.00
C1160  C     0.14105   0.84554   0.95447   0.00000  Uiso   1.00
C1161  C     0.19877   0.84658   0.54212   0.00000  Uiso   1.00
C1162  C     0.09511   0.86417   0.97982   0.00000  Uiso   1.00
C1163  C     0.11855   0.87333   0.54548   0.00000  Uiso   1.00
C1164  C     0.24679   0.83279   0.51484   0.00000  Uiso   1.00
C1165  C     0.17744   0.84351   0.97373   0.00000  Uiso   1.00
C1166  C     0.16480   0.85475   0.52097   0.00000  Uiso   1.00
C1167  C     0.07515   0.77406   0.65278   0.00000  Uiso   1.00
C1168  C     0.12038   0.74837   0.62600   0.00000  Uiso   1.00
C1169  C     0.27038   0.90924   0.83850   0.00000  Uiso   1.00
C1170  C     0.22356   0.93115   0.86915   0.00000  Uiso   1.00
C1171  C     0.22636   0.83168   0.94696   0.00000  Uiso   1.00
C1172  C     0.08459   0.87821   0.52498   0.00000  Uiso   1.00
C1173  C     0.26057   0.82716   0.96717   0.00000  Uiso   1.00
C1174  C     0.20556   0.97886   0.75516   0.00000  Uiso   1.00
C1175  C     0.12825   0.68781   0.74379   0.00000  Uiso   1.00
C1176  C     0.20548   0.68809   0.75521   0.00000  Uiso   1.00
H1177  H     0.04983   0.89294   0.54466   0.00000  Uiso   1.00
H1178  H     0.23975   0.82648   0.90992   0.00000  Uiso   1.00
H1179  H     0.23564   0.96282   0.75965   0.00000  Uiso   1.00
H1180  H     0.09828   0.70386   0.73911   0.00000  Uiso   1.00
H1181  H     0.23548   0.70437   0.75983   0.00000  Uiso   1.00
H1182  H     0.09827   0.96228   0.73926   0.00000  Uiso   1.00
H1183  H     0.30789   0.78096   0.70620   0.00000  Uiso   1.00
H1184  H     0.02604   0.88515   0.79403   0.00000  Uiso   1.00
H1185  H     0.08088   0.80606   0.63797   0.00000  Uiso   1.00
H1186  H     0.04354   0.75938   0.64755   0.00000  Uiso   1.00
H1187  H     0.11472   0.71567   0.63835   0.00000  Uiso   1.00
H1188  H     0.29747   0.81758   0.94564   0.00000  Uiso   1.00
H1189  H     0.12744   0.74895   0.58824   0.00000  Uiso   1.00
H1190  H     0.15279   0.76118   0.63127   0.00000  Uiso   1.00
H1191  H     0.30014   0.93285   0.82694   0.00000  Uiso   1.00
H1192  H     0.27869   0.88490   0.85980   0.00000  Uiso   1.00
H1193  H     0.19240   0.90900   0.87999   0.00000  Uiso   1.00
H1194  H     0.22778   0.94377   0.90072   0.00000  Uiso   1.00
H1195  H     0.21549   0.95715   0.84976   0.00000  Uiso   1.00
H1196  H     0.14836   0.85705   0.61265   0.00000  Uiso   1.00
H1197  H     0.18154   0.81176   0.89126   0.00000  Uiso   1.00
H1198  H     0.29022   0.81612   0.60013   0.00000  Uiso   1.00
H1199  H     0.04684   0.86396   0.89641   0.00000  Uiso   1.00
H1200  H     0.02582   0.88420   0.97801   0.00000  Uiso   1.00
H1201  H     0.31675   0.81305   0.51524   0.00000  Uiso   1.00
H1202  H     0.10803   0.88589   0.58012   0.00000  Uiso   1.00
N1203  N     0.04759   0.83334   0.75001   0.00000  Uiso   1.00
N1204  N     0.28574   0.83332   0.74999   0.00000  Uiso   1.00
O1205  O     0.12846   0.89442   0.75001   0.00000  Uiso   1.00
O1206  O     0.26361   0.89188   0.79956   0.00000  Uiso   1.00
O1207  O     0.20488   0.77225   0.75000   0.00000  Uiso   1.00
O1208  O     0.20490   0.89441   0.75000   0.00000  Uiso   1.00
O1209  O     0.12843   0.77226   0.75000   0.00000  Uiso   1.00
O1210  O     0.10661   0.83334   0.81613   0.00000  Uiso   1.00
O1211  O     0.22672   0.83333   0.68388   0.00000  Uiso   1.00
O1212  O     0.18305   0.83333   0.81612   0.00000  Uiso   1.00
O1213  O     0.15028   0.83334   0.68388   0.00000  Uiso   1.00
O1214  O     0.06787   0.77434   0.70046   0.00000  Uiso   1.00
Zn1215 Zn    0.11562   0.83334   0.75000   0.00000  Uiso   1.00
Zn1216 Zn    0.21771   0.83333   0.75000   0.00000  Uiso   1.00
C1217  C     0.50008   0.91337   0.74994   0.00000  Uiso   1.00
C1218  C     0.46161   0.97856   0.74386   0.00000  Uiso   1.00
C1219  C     0.50011   0.70914   0.74961   0.00000  Uiso   1.00
C1220  C     0.50021   0.95752   0.74966   0.00000  Uiso   1.00
C1221  C     0.65250   0.80445   0.72501   0.00000  Uiso   1.00
C1222  C     0.34753   0.86223   0.77507   0.00000  Uiso   1.00
C1223  C     0.36775   0.80470   0.72414   0.00000  Uiso   1.00
C1224  C     0.63200   0.86229   0.77578   0.00000  Uiso   1.00
C1225  C     0.46938   0.83336   0.83800   0.00000  Uiso   1.00
C1226  C     0.53064   0.83402   0.66202   0.00000  Uiso   1.00
C1227  C     0.45052   0.83814   0.88839   0.00000  Uiso   1.00
C1228  C     0.50000   0.75330   0.74985   0.00000  Uiso   1.00
C1229  C     0.55014   0.83645   0.61138   0.00000  Uiso   1.00
C1230  C     0.39400   0.86929   0.95918   0.00000  Uiso   1.00
C1231  C     0.61330   0.82344   0.53589   0.00000  Uiso   1.00
C1232  C     0.40546   0.85712   0.91311   0.00000  Uiso   1.00
C1233  C     0.59830   0.82516   0.58414   0.00000  Uiso   1.00
C1234  C     0.48260   0.82966   0.91031   0.00000  Uiso   1.00
C1235  C     0.51832   0.84858   0.59030   0.00000  Uiso   1.00
C1236  C     0.47438   0.84554   0.95447   0.00000  Uiso   1.00
C1237  C     0.53210   0.84658   0.54212   0.00000  Uiso   1.00
C1238  C     0.42844   0.86417   0.97982   0.00000  Uiso   1.00
C1239  C     0.45189   0.87333   0.54548   0.00000  Uiso   1.00
C1240  C     0.58013   0.83279   0.51484   0.00000  Uiso   1.00
C1241  C     0.51077   0.84351   0.97373   0.00000  Uiso   1.00
C1242  C     0.49814   0.85475   0.52097   0.00000  Uiso   1.00
C1243  C     0.40849   0.77406   0.65278   0.00000  Uiso   1.00
C1244  C     0.45371   0.74837   0.62600   0.00000  Uiso   1.00
C1245  C     0.60371   0.90924   0.83850   0.00000  Uiso   1.00
C1246  C     0.55689   0.93115   0.86915   0.00000  Uiso   1.00
C1247  C     0.55969   0.83168   0.94696   0.00000  Uiso   1.00
C1248  C     0.41792   0.87821   0.52498   0.00000  Uiso   1.00
C1249  C     0.59390   0.82716   0.96717   0.00000  Uiso   1.00
C1250  C     0.53889   0.97886   0.75516   0.00000  Uiso   1.00
C1251  C     0.46159   0.68781   0.74379   0.00000  Uiso   1.00
C1252  C     0.53881   0.68809   0.75521   0.00000  Uiso   1.00
H1253  H     0.38316   0.89294   0.54466   0.00000  Uiso   1.00
H1254  H     0.57308   0.82648   0.90992   0.00000  Uiso   1.00
H1255  H     0.56898   0.96282   0.75965   0.00000  Uiso   1.00
H1256  H     0.43161   0.70386   0.73911   0.00000  Uiso   1.00
H1257  H     0.56881   0.70437   0.75983   0.00000  Uiso   1.00
H1258  H     0.43160   0.96228   0.73926   0.00000  Uiso   1.00
H1259  H     0.64122   0.78096   0.70620   0.00000  Uiso   1.00
H1260  H     0.35938   0.88515   0.79403   0.00000  Uiso   1.00
H1261  H     0.41422   0.80606   0.63797   0.00000  Uiso   1.00
H1262  H     0.37688   0.75938   0.64755   0.00000  Uiso   1.00
H1263  H     0.44805   0.71567   0.63835   0.00000  Uiso   1.00
H1264  H     0.63080   0.81758   0.94564   0.00000  Uiso   1.00
H1265  H     0.46077   0.74895   0.58824   0.00000  Uiso   1.00
H1266  H     0.48612   0.76118   0.63127   0.00000  Uiso   1.00
H1267  H     0.63348   0.93285   0.82694   0.00000  Uiso   1.00
H1268  H     0.61202   0.88490   0.85980   0.00000  Uiso   1.00
H1269  H     0.52574   0.90900   0.87999   0.00000  Uiso   1.00
H1270  H     0.56112   0.94377   0.90072   0.00000  Uiso   1.00
H1271  H     0.54882   0.95715   0.84976   0.00000  Uiso   1.00
H1272  H     0.48169   0.85705   0.61265   0.00000  Uiso   1.00
H1273  H     0.51488   0.81176   0.89126   0.00000  Uiso   1.00
H1274  H     0.62355   0.81612   0.60013   0.00000  Uiso   1.00
H1275  H     0.38017   0.86396   0.89641   0.00000  Uiso   1.00
H1276  H     0.35915   0.88420   0.97801   0.00000  Uiso   1.00
H1277  H     0.65008   0.81305   0.51524   0.00000  Uiso   1.00
H1278  H     0.44137   0.88589   0.58012   0.00000  Uiso   1.00
N1279  N     0.38093   0.83334   0.75001   0.00000  Uiso   1.00
N1280  N     0.61907   0.83332   0.74999   0.00000  Uiso   1.00
O1281  O     0.46179   0.89442   0.75001   0.00000  Uiso   1.00
O1282  O     0.59694   0.89188   0.79956   0.00000  Uiso   1.00
O1283  O     0.53821   0.77225   0.75000   0.00000  Uiso   1.00
O1284  O     0.53823   0.89441   0.75000   0.00000  Uiso   1.00
O1285  O     0.46177   0.77226   0.75000   0.00000  Uiso   1.00
O1286  O     0.43994   0.83334   0.81613   0.00000  Uiso   1.00
O1287  O     0.56006   0.83333   0.68388   0.00000  Uiso   1.00
O1288  O     0.51639   0.83333   0.81612   0.00000  Uiso   1.00
O1289  O     0.48361   0.83334   0.68388   0.00000  Uiso   1.00
O1290  O     0.40120   0.77434   0.70046   0.00000  Uiso   1.00
Zn1291 Zn    0.44896   0.83334   0.75000   0.00000  Uiso   1.00
Zn1292 Zn    0.55104   0.83333   0.75000   0.00000  Uiso   1.00
C1293  C     0.83341   0.91337   0.74994   0.00000  Uiso   1.00
C1294  C     0.79494   0.97856   0.74386   0.00000  Uiso   1.00
C1295  C     0.83344   0.70914   0.74961   0.00000  Uiso   1.00
C1296  C     0.83354   0.95752   0.74966   0.00000  Uiso   1.00
C1297  C     0.98583   0.80445   0.72501   0.00000  Uiso   1.00
C1298  C     0.68086   0.86223   0.77507   0.00000  Uiso   1.00
C1299  C     0.70108   0.80470   0.72414   0.00000  Uiso   1.00
C1300  C     0.96533   0.86229   0.77578   0.00000  Uiso   1.00
C1301  C     0.80271   0.83336   0.83800   0.00000  Uiso   1.00
C1302  C     0.86397   0.83402   0.66202   0.00000  Uiso   1.00
C1303  C     0.78386   0.83814   0.88839   0.00000  Uiso   1.00
C1304  C     0.83334   0.75330   0.74985   0.00000  Uiso   1.00
C1305  C     0.88347   0.83645   0.61138   0.00000  Uiso   1.00
C1306  C     0.72734   0.86929   0.95918   0.00000  Uiso   1.00
C1307  C     0.94664   0.82344   0.53589   0.00000  Uiso   1.00
C1308  C     0.73879   0.85712   0.91311   0.00000  Uiso   1.00
C1309  C     0.93163   0.82516   0.58414   0.00000  Uiso   1.00
C1310  C     0.81593   0.82966   0.91031   0.00000  Uiso   1.00
C1311  C     0.85166   0.84858   0.59030   0.00000  Uiso   1.00
C1312  C     0.80772   0.84554   0.95447   0.00000  Uiso   1.00
C1313  C     0.86544   0.84658   0.54212   0.00000  Uiso   1.00
C1314  C     0.76178   0.86417   0.97982   0.00000  Uiso   1.00
C1315  C     0.78522   0.87333   0.54548   0.00000  Uiso   1.00
C1316  C     0.91346   0.83279   0.51484   0.00000  Uiso   1.00
C1317  C     0.84411   0.84351   0.97373   0.00000  Uiso   1.00
C1318  C     0.83147   0.85475   0.52097   0.00000  Uiso   1.00
C1319  C     0.74182   0.77406   0.65278   0.00000  Uiso   1.00
C1320  C     0.78705   0.74837   0.62600   0.00000  Uiso   1.00
C1321  C     0.93704   0.90924   0.83850   0.00000  Uiso   1.00
C1322  C     0.89022   0.93115   0.86915   0.00000  Uiso   1.00
C1323  C     0.89303   0.83168   0.94696   0.00000  Uiso   1.00
C1324  C     0.75125   0.87821   0.52498   0.00000  Uiso   1.00
C1325  C     0.92724   0.82716   0.96717   0.00000  Uiso   1.00
C1326  C     0.87223   0.97886   0.75516   0.00000  Uiso   1.00
C1327  C     0.79492   0.68781   0.74379   0.00000  Uiso   1.00
C1328  C     0.87215   0.68809   0.75521   0.00000  Uiso   1.00
H1329  H     0.71649   0.89294   0.54466   0.00000  Uiso   1.00
H1330  H     0.90642   0.82648   0.90992   0.00000  Uiso   1.00
H1331  H     0.90231   0.96282   0.75965   0.00000  Uiso   1.00
H1332  H     0.76495   0.70386   0.73911   0.00000  Uiso   1.00
H1333  H     0.90214   0.70437   0.75983   0.00000  Uiso   1.00
H1334  H     0.76494   0.96228   0.73926   0.00000  Uiso   1.00
H1335  H     0.97455   0.78096   0.70620   0.00000  Uiso   1.00
H1336  H     0.69271   0.88515   0.79403   0.00000  Uiso   1.00
H1337  H     0.74755   0.80606   0.63797   0.00000  Uiso   1.00
H1338  H     0.71021   0.75938   0.64755   0.00000  Uiso   1.00
H1339  H     0.78139   0.71567   0.63835   0.00000  Uiso   1.00
H1340  H     0.96413   0.81758   0.94564   0.00000  Uiso   1.00
H1341  H     0.79411   0.74895   0.58824   0.00000  Uiso   1.00
H1342  H     0.81945   0.76118   0.63127   0.00000  Uiso   1.00
H1343  H     0.96681   0.93285   0.82694   0.00000  Uiso   1.00
H1344  H     0.94535   0.88490   0.85980   0.00000  Uiso   1.00
H1345  H     0.85907   0.90900   0.87999   0.00000  Uiso   1.00
H1346  H     0.89445   0.94377   0.90072   0.00000  Uiso   1.00
H1347  H     0.88215   0.95715   0.84976   0.00000  Uiso   1.00
H1348  H     0.81502   0.85705   0.61265   0.00000  Uiso   1.00
H1349  H     0.84821   0.81176   0.89126   0.00000  Uiso   1.00
H1350  H     0.95689   0.81612   0.60013   0.00000  Uiso   1.00
H1351  H     0.71350   0.86396   0.89641   0.00000  Uiso   1.00
H1352  H     0.69249   0.88420   0.97801   0.00000  Uiso   1.00
H1353  H     0.98342   0.81305   0.51524   0.00000  Uiso   1.00
H1354  H     0.77470   0.88589   0.58012   0.00000  Uiso   1.00
N1355  N     0.71426   0.83334   0.75001   0.00000  Uiso   1.00
N1356  N     0.95241   0.83332   0.74999   0.00000  Uiso   1.00
O1357  O     0.79512   0.89442   0.75001   0.00000  Uiso   1.00
O1358  O     0.93028   0.89188   0.79956   0.00000  Uiso   1.00
O1359  O     0.87154   0.77225   0.75000   0.00000  Uiso   1.00
O1360  O     0.87157   0.89441   0.75000   0.00000  Uiso   1.00
O1361  O     0.79510   0.77226   0.75000   0.00000  Uiso   1.00
O1362  O     0.77328   0.83334   0.81613   0.00000  Uiso   1.00
O1363  O     0.89339   0.83333   0.68388   0.00000  Uiso   1.00
O1364  O     0.84972   0.83333   0.81612   0.00000  Uiso   1.00
O1365  O     0.81695   0.83334   0.68388   0.00000  Uiso   1.00
O1366  O     0.73453   0.77434   0.70046   0.00000  Uiso   1.00
Zn1367 Zn    0.78229   0.83334   0.75000   0.00000  Uiso   1.00
Zn1368 Zn    0.88438   0.83333   0.75000   0.00000  Uiso   1.00
loop_
_geom_bond_atom_site_label_1
_geom_bond_atom_site_label_2
_geom_bond_distance
_geom_bond_site_symmetry_2
_ccdc_geom_bond_type
C1     O68     1.284   .     A
C1     O65     1.283   .     A
C1     C4      1.420   .     S
C2     C4      1.398   .     A
C2     H42     1.084   .     S
C2     C263    1.370   .     S
C3     C12     1.420   .     S
C3     C35     1.397   .     A
C3     C36     1.398   .     A
C4     C34     1.397   .     A
C5     H43     1.081   .     S
C5     N64     1.362   .     A
C5     C83     1.426   .     S
C6     H44     1.080   .     S
C6     N63     1.363   .     A
C6     C160    1.436   1_455 S
C7     O74     1.385   .     S
C7     N63     1.370   .     A
C7     C157    1.426   1_455 S
C8     O66     1.394   .     S
C8     N64     1.372   .     A
C8     C82     1.436   .     S
C9     O72     1.293   .     A
C9     O70     1.292   .     A
C9     C11     1.455   .     S
C10    O73     1.293   .     A
C10    O71     1.292   .     A
C10    C13     1.457   .     S
C11    C18     1.390   .     A
C11    C16     1.399   .     A
C12    O67     1.283   .     A
C12    O69     1.284   .     A
C13    C19     1.392   .     A
C13    C17     1.399   .     A
C14    C16     1.394   .     A
C14    H60     1.084   .     S
C14    C22     1.405   .     A
C15    H61     1.083   .     S
C15    C24     1.404   .     A
C15    C17     1.393   .     A
C16    H59     1.083   .     S
C17    H58     1.083   .     S
C18    C20     1.394   .     A
C18    H57     1.078   .     S
C19    H56     1.075   .     S
C19    C21     1.395   .     A
C20    C25     1.418   .     A
C20    C22     1.417   .     A
C21    C26     1.419   .     A
C21    C24     1.419   .     A
C22    C716    1.390   .     S
C23    C26     1.419   .     A
C23    H62     1.077   .     S
C23    C32     1.388   .     A
C24    C717    1.389   1_554 S
C25    C31     1.418   .     A
C25    C710    1.415   .     S
C26    C709    1.415   1_554 S
C27    O74     1.413   .     S
C27    H45     1.115   .     S
C27    H46     1.111   .     S
C27    C28     1.522   .     S
C28    H47     1.111   .     S
C28    H49     1.111   .     S
C28    H50     1.109   .     S
C29    C30     1.521   .     S
C29    H51     1.112   .     S
C29    O66     1.412   .     S
C29    H52     1.114   .     S
C30    H54     1.110   .     S
C30    H53     1.109   .     S
C30    H55     1.110   .     S
C31    C33     1.387   .     A
C31    H38     1.077   .     S
C32    H37     1.084   .     S
C32    C706    1.390   1_554 S
C33    H48     1.084   .     S
C33    C708    1.389   .     S
C34    H39     1.083   .     S
C34    C264    1.369   .     S
C35    H40     1.083   .     S
C35    C458    1.370   1_545 S
C36    H41     1.084   .     S
C36    C490    1.369   1_545 S
N63    Zn75    2.010   .     S
N64    Zn76    2.010   .     S
O65    Zn75    2.000   .     S
O67    Zn76    2.000   .     S
O68    Zn76    2.002   .     S
O69    Zn75    2.002   .     S
O70    Zn75    1.968   .     S
O71    Zn76    1.968   .     S
O72    Zn76    1.914   .     S
O73    Zn75    1.914   .     S
C77    O144    1.284   .     A
C77    O141    1.283   .     A
C77    C80     1.420   .     S
C78    C80     1.398   .     A
C78    H118    1.084   .     S
C78    C339    1.370   .     S
C79    C88     1.420   .     S
C79    C111    1.397   .     A
C79    C112    1.398   .     A
C80    C110    1.397   .     A
C81    H119    1.081   .     S
C81    N140    1.362   .     A
C81    C159    1.426   .     S
C82    H120    1.080   .     S
C82    N139    1.363   .     A
C83    O150    1.385   .     S
C83    N139    1.370   .     A
C84    O142    1.394   .     S
C84    N140    1.372   .     A
C84    C158    1.436   .     S
C85    O148    1.293   .     A
C85    O146    1.292   .     A
C85    C87     1.455   .     S
C86    O149    1.293   .     A
C86    O147    1.292   .     A
C86    C89     1.457   .     S
C87    C94     1.390   .     A
C87    C92     1.399   .     A
C88    O143    1.283   .     A
C88    O145    1.284   .     A
C89    C95     1.392   .     A
C89    C93     1.399   .     A
C90    C92     1.394   .     A
C90    H136    1.084   .     S
C90    C98     1.405   .     A
C91    H137    1.083   .     S
C91    C100    1.404   .     A
C91    C93     1.393   .     A
C92    H135    1.083   .     S
C93    H134    1.083   .     S
C94    C96     1.394   .     A
C94    H133    1.078   .     S
C95    H132    1.075   .     S
C95    C97     1.395   .     A
C96    C101    1.418   .     A
C96    C98     1.417   .     A
C97    C102    1.419   .     A
C97    C100    1.419   .     A
C98    C792    1.390   .     S
C99    C102    1.419   .     A
C99    H138    1.077   .     S
C99    C108    1.388   .     A
C100   C793    1.389   1_554 S
C101   C107    1.418   .     A
C101   C786    1.415   .     S
C102   C785    1.415   1_554 S
C103   O150    1.413   .     S
C103   H121    1.115   .     S
C103   H122    1.111   .     S
C103   C104    1.522   .     S
C104   H123    1.111   .     S
C104   H125    1.111   .     S
C104   H126    1.109   .     S
C105   C106    1.521   .     S
C105   H127    1.112   .     S
C105   O142    1.412   .     S
C105   H128    1.114   .     S
C106   H130    1.110   .     S
C106   H129    1.109   .     S
C106   H131    1.110   .     S
C107   C109    1.387   .     A
C107   H114    1.077   .     S
C108   H113    1.084   .     S
C108   C782    1.390   1_554 S
C109   H124    1.084   .     S
C109   C784    1.389   .     S
C110   H115    1.083   .     S
C110   C340    1.369   .     S
C111   H116    1.083   .     S
C111   C534    1.370   1_545 S
C112   H117    1.084   .     S
C112   C566    1.369   1_545 S
N139   Zn151   2.010   .     S
N140   Zn152   2.010   .     S
O141   Zn151   2.000   .     S
O143   Zn152   2.000   .     S
O144   Zn152   2.002   .     S
O145   Zn151   2.002   .     S
O146   Zn151   1.968   .     S
O147   Zn152   1.968   .     S
O148   Zn152   1.914   .     S
O149   Zn151   1.914   .     S
C153   O220    1.284   .     A
C153   O217    1.283   .     A
C153   C156    1.420   .     S
C154   C156    1.398   .     A
C154   H194    1.084   .     S
C154   C415    1.370   .     S
C155   C164    1.420   .     S
C155   C187    1.397   .     A
C155   C188    1.398   .     A
C156   C186    1.397   .     A
C157   H195    1.081   .     S
C157   N216    1.362   .     A
C157   C7      1.426   1_655 S
C158   H196    1.080   .     S
C158   N215    1.363   .     A
C159   O226    1.385   .     S
C159   N215    1.370   .     A
C160   O218    1.394   .     S
C160   N216    1.372   .     A
C160   C6      1.436   1_655 S
C161   O224    1.293   .     A
C161   O222    1.292   .     A
C161   C163    1.455   .     S
C162   O225    1.293   .     A
C162   O223    1.292   .     A
C162   C165    1.457   .     S
C163   C170    1.390   .     A
C163   C168    1.399   .     A
C164   O219    1.283   .     A
C164   O221    1.284   .     A
C165   C171    1.392   .     A
C165   C169    1.399   .     A
C166   C168    1.394   .     A
C166   H212    1.084   .     S
C166   C174    1.405   .     A
C167   H213    1.083   .     S
C167   C176    1.404   .     A
C167   C169    1.393   .     A
C168   H211    1.083   .     S
C169   H210    1.083   .     S
C170   C172    1.394   .     A
C170   H209    1.078   .     S
C171   H208    1.075   .     S
C171   C173    1.395   .     A
C172   C177    1.418   .     A
C172   C174    1.417   .     A
C173   C178    1.419   .     A
C173   C176    1.419   .     A
C174   C868    1.390   .     S
C175   C178    1.419   .     A
C175   H214    1.077   .     S
C175   C184    1.388   .     A
C176   C869    1.389   1_554 S
C177   C183    1.418   .     A
C177   C862    1.415   .     S
C178   C861    1.415   1_554 S
C179   O226    1.413   .     S
C179   H197    1.115   .     S
C179   H198    1.111   .     S
C179   C180    1.522   .     S
C180   H199    1.111   .     S
C180   H201    1.111   .     S
C180   H202    1.109   .     S
C181   C182    1.521   .     S
C181   H203    1.112   .     S
C181   O218    1.412   .     S
C181   H204    1.114   .     S
C182   H206    1.110   .     S
C182   H205    1.109   .     S
C182   H207    1.110   .     S
C183   C185    1.387   .     A
C183   H190    1.077   .     S
C184   H189    1.084   .     S
C184   C858    1.390   1_554 S
C185   H200    1.084   .     S
C185   C860    1.389   .     S
C186   H191    1.083   .     S
C186   C416    1.369   .     S
C187   H192    1.083   .     S
C187   C610    1.370   1_545 S
C188   H193    1.084   .     S
C188   C642    1.369   1_545 S
N215   Zn227   2.010   .     S
N216   Zn228   2.010   .     S
O217   Zn227   2.000   .     S
O219   Zn228   2.000   .     S
O220   Zn228   2.002   .     S
O221   Zn227   2.002   .     S
O222   Zn227   1.968   .     S
O223   Zn228   1.968   .     S
O224   Zn228   1.914   .     S
O225   Zn227   1.914   .     S
C229   O296    1.284   .     A
C229   O293    1.283   .     A
C229   C232    1.420   .     S
C230   C232    1.398   .     A
C230   H270    1.084   .     S
C230   C491    1.370   .     S
C231   C240    1.420   .     S
C231   C263    1.397   .     A
C231   C264    1.398   .     A
C232   C262    1.397   .     A
C233   H271    1.081   .     S
C233   N292    1.362   .     A
C233   C311    1.426   .     S
C234   H272    1.080   .     S
C234   N291    1.363   .     A
C234   C388    1.436   1_455 S
C235   O302    1.385   .     S
C235   N291    1.370   .     A
C235   C385    1.426   1_455 S
C236   O294    1.394   .     S
C236   N292    1.372   .     A
C236   C310    1.436   .     S
C237   O300    1.293   .     A
C237   O298    1.292   .     A
C237   C239    1.455   .     S
C238   O301    1.293   .     A
C238   O299    1.292   .     A
C238   C241    1.457   .     S
C239   C246    1.390   .     A
C239   C244    1.399   .     A
C240   O295    1.283   .     A
C240   O297    1.284   .     A
C241   C247    1.392   .     A
C241   C245    1.399   .     A
C242   C244    1.394   .     A
C242   H288    1.084   .     S
C242   C250    1.405   .     A
C243   H289    1.083   .     S
C243   C252    1.404   .     A
C243   C245    1.393   .     A
C244   H287    1.083   .     S
C245   H286    1.083   .     S
C246   C248    1.394   .     A
C246   H285    1.078   .     S
C247   H284    1.075   .     S
C247   C249    1.395   .     A
C248   C253    1.418   .     A
C248   C250    1.417   .     A
C249   C254    1.419   .     A
C249   C252    1.419   .     A
C250   C944    1.390   .     S
C251   C254    1.419   .     A
C251   H290    1.077   .     S
C251   C260    1.388   .     A
C252   C945    1.389   1_554 S
C253   C259    1.418   .     A
C253   C938    1.415   .     S
C254   C937    1.415   1_554 S
C255   O302    1.413   .     S
C255   H273    1.115   .     S
C255   H274    1.111   .     S
C255   C256    1.522   .     S
C256   H275    1.111   .     S
C256   H277    1.111   .     S
C256   H278    1.109   .     S
C257   C258    1.521   .     S
C257   H279    1.112   .     S
C257   O294    1.412   .     S
C257   H280    1.114   .     S
C258   H282    1.110   .     S
C258   H281    1.109   .     S
C258   H283    1.110   .     S
C259   C261    1.387   .     A
C259   H266    1.077   .     S
C260   H265    1.084   .     S
C260   C934    1.390   1_554 S
C261   H276    1.084   .     S
C261   C936    1.389   .     S
C262   H267    1.083   .     S
C262   C492    1.369   .     S
C263   H268    1.083   .     S
C264   H269    1.084   .     S
N291   Zn303   2.010   .     S
N292   Zn304   2.010   .     S
O293   Zn303   2.000   .     S
O295   Zn304   2.000   .     S
O296   Zn304   2.002   .     S
O297   Zn303   2.002   .     S
O298   Zn303   1.968   .     S
O299   Zn304   1.968   .     S
O300   Zn304   1.914   .     S
O301   Zn303   1.914   .     S
C305   O372    1.284   .     A
C305   O369    1.283   .     A
C305   C308    1.420   .     S
C306   C308    1.398   .     A
C306   H346    1.084   .     S
C306   C567    1.370   .     S
C307   C316    1.420   .     S
C307   C339    1.397   .     A
C307   C340    1.398   .     A
C308   C338    1.397   .     A
C309   H347    1.081   .     S
C309   N368    1.362   .     A
C309   C387    1.426   .     S
C310   H348    1.080   .     S
C310   N367    1.363   .     A
C311   O378    1.385   .     S
C311   N367    1.370   .     A
C312   O370    1.394   .     S
C312   N368    1.372   .     A
C312   C386    1.436   .     S
C313   O376    1.293   .     A
C313   O374    1.292   .     A
C313   C315    1.455   .     S
C314   O377    1.293   .     A
C314   O375    1.292   .     A
C314   C317    1.457   .     S
C315   C322    1.390   .     A
C315   C320    1.399   .     A
C316   O371    1.283   .     A
C316   O373    1.284   .     A
C317   C323    1.392   .     A
C317   C321    1.399   .     A
C318   C320    1.394   .     A
C318   H364    1.084   .     S
C318   C326    1.405   .     A
C319   H365    1.083   .     S
C319   C328    1.404   .     A
C319   C321    1.393   .     A
C320   H363    1.083   .     S
C321   H362    1.083   .     S
C322   C324    1.394   .     A
C322   H361    1.078   .     S
C323   H360    1.075   .     S
C323   C325    1.395   .     A
C324   C329    1.418   .     A
C324   C326    1.417   .     A
C325   C330    1.419   .     A
C325   C328    1.419   .     A
C326   C1020   1.390   .     S
C327   C330    1.419   .     A
C327   H366    1.077   .     S
C327   C336    1.388   .     A
C328   C1021   1.389   1_554 S
C329   C335    1.418   .     A
C329   C1014   1.415   .     S
C330   C1013   1.415   1_554 S
C331   O378    1.413   .     S
C331   H349    1.115   .     S
C331   H350    1.111   .     S
C331   C332    1.522   .     S
C332   H351    1.111   .     S
C332   H353    1.111   .     S
C332   H354    1.109   .     S
C333   C334    1.521   .     S
C333   H355    1.112   .     S
C333   O370    1.412   .     S
C333   H356    1.114   .     S
C334   H358    1.110   .     S
C334   H357    1.109   .     S
C334   H359    1.110   .     S
C335   C337    1.387   .     A
C335   H342    1.077   .     S
C336   H341    1.084   .     S
C336   C1010   1.390   1_554 S
C337   H352    1.084   .     S
C337   C1012   1.389   .     S
C338   H343    1.083   .     S
C338   C568    1.369   .     S
C339   H344    1.083   .     S
C340   H345    1.084   .     S
N367   Zn379   2.010   .     S
N368   Zn380   2.010   .     S
O369   Zn379   2.000   .     S
O371   Zn380   2.000   .     S
O372   Zn380   2.002   .     S
O373   Zn379   2.002   .     S
O374   Zn379   1.968   .     S
O375   Zn380   1.968   .     S
O376   Zn380   1.914   .     S
O377   Zn379   1.914   .     S
C381   O448    1.284   .     A
C381   O445    1.283   .     A
C381   C384    1.420   .     S
C382   C384    1.398   .     A
C382   H422    1.084   .     S
C382   C643    1.370   .     S
C383   C392    1.420   .     S
C383   C415    1.397   .     A
C383   C416    1.398   .     A
C384   C414    1.397   .     A
C385   H423    1.081   .     S
C385   N444    1.362   .     A
C385   C235    1.426   1_655 S
C386   H424    1.080   .     S
C386   N443    1.363   .     A
C387   O454    1.385   .     S
C387   N443    1.370   .     A
C388   O446    1.394   .     S
C388   N444    1.372   .     A
C388   C234    1.436   1_655 S
C389   O452    1.293   .     A
C389   O450    1.292   .     A
C389   C391    1.455   .     S
C390   O453    1.293   .     A
C390   O451    1.292   .     A
C390   C393    1.457   .     S
C391   C398    1.390   .     A
C391   C396    1.399   .     A
C392   O447    1.283   .     A
C392   O449    1.284   .     A
C393   C399    1.392   .     A
C393   C397    1.399   .     A
C394   C396    1.394   .     A
C394   H440    1.084   .     S
C394   C402    1.405   .     A
C395   H441    1.083   .     S
C395   C404    1.404   .     A
C395   C397    1.393   .     A
C396   H439    1.083   .     S
C397   H438    1.083   .     S
C398   C400    1.394   .     A
C398   H437    1.078   .     S
C399   H436    1.075   .     S
C399   C401    1.395   .     A
C400   C405    1.418   .     A
C400   C402    1.417   .     A
C401   C406    1.419   .     A
C401   C404    1.419   .     A
C402   C1096   1.390   .     S
C403   C406    1.419   .     A
C403   H442    1.077   .     S
C403   C412    1.388   .     A
C404   C1097   1.389   1_554 S
C405   C411    1.418   .     A
C405   C1090   1.415   .     S
C406   C1089   1.415   1_554 S
C407   O454    1.413   .     S
C407   H425    1.115   .     S
C407   H426    1.111   .     S
C407   C408    1.522   .     S
C408   H427    1.111   .     S
C408   H429    1.111   .     S
C408   H430    1.109   .     S
C409   C410    1.521   .     S
C409   H431    1.112   .     S
C409   O446    1.412   .     S
C409   H432    1.114   .     S
C410   H434    1.110   .     S
C410   H433    1.109   .     S
C410   H435    1.110   .     S
C411   C413    1.387   .     A
C411   H418    1.077   .     S
C412   H417    1.084   .     S
C412   C1086   1.390   1_554 S
C413   H428    1.084   .     S
C413   C1088   1.389   .     S
C414   H419    1.083   .     S
C414   C644    1.369   .     S
C415   H420    1.083   .     S
C416   H421    1.084   .     S
N443   Zn455   2.010   .     S
N444   Zn456   2.010   .     S
O445   Zn455   2.000   .     S
O447   Zn456   2.000   .     S
O448   Zn456   2.002   .     S
O449   Zn455   2.002   .     S
O450   Zn455   1.968   .     S
O451   Zn456   1.968   .     S
O452   Zn456   1.914   .     S
O453   Zn455   1.914   .     S
C457   O524    1.284   .     A
C457   O521    1.283   .     A
C457   C460    1.420   .     S
C458   C460    1.398   .     A
C458   H498    1.084   .     S
C458   C35     1.370   1_565 S
C459   C468    1.420   .     S
C459   C491    1.397   .     A
C459   C492    1.398   .     A
C460   C490    1.397   .     A
C461   H499    1.081   .     S
C461   N520    1.362   .     A
C461   C539    1.426   .     S
C462   H500    1.080   .     S
C462   N519    1.363   .     A
C462   C616    1.436   1_455 S
C463   O530    1.385   .     S
C463   N519    1.370   .     A
C463   C613    1.426   1_455 S
C464   O522    1.394   .     S
C464   N520    1.372   .     A
C464   C538    1.436   .     S
C465   O528    1.293   .     A
C465   O526    1.292   .     A
C465   C467    1.455   .     S
C466   O529    1.293   .     A
C466   O527    1.292   .     A
C466   C469    1.457   .     S
C467   C474    1.390   .     A
C467   C472    1.399   .     A
C468   O523    1.283   .     A
C468   O525    1.284   .     A
C469   C475    1.392   .     A
C469   C473    1.399   .     A
C470   C472    1.394   .     A
C470   H516    1.084   .     S
C470   C478    1.405   .     A
C471   H517    1.083   .     S
C471   C480    1.404   .     A
C471   C473    1.393   .     A
C472   H515    1.083   .     S
C473   H514    1.083   .     S
C474   C476    1.394   .     A
C474   H513    1.078   .     S
C475   H512    1.075   .     S
C475   C477    1.395   .     A
C476   C481    1.418   .     A
C476   C478    1.417   .     A
C477   C482    1.419   .     A
C477   C480    1.419   .     A
C478   C1172   1.390   .     S
C479   C482    1.419   .     A
C479   H518    1.077   .     S
C479   C488    1.388   .     A
C480   C1173   1.389   1_554 S
C481   C487    1.418   .     A
C481   C1166   1.415   .     S
C482   C1165   1.415   1_554 S
C483   O530    1.413   .     S
C483   H501    1.115   .     S
C483   H502    1.111   .     S
C483   C484    1.522   .     S
C484   H503    1.111   .     S
C484   H505    1.111   .     S
C484   H506    1.109   .     S
C485   C486    1.521   .     S
C485   H507    1.112   .     S
C485   O522    1.412   .     S
C485   H508    1.114   .     S
C486   H510    1.110   .     S
C486   H509    1.109   .     S
C486   H511    1.110   .     S
C487   C489    1.387   .     A
C487   H494    1.077   .     S
C488   H493    1.084   .     S
C488   C1162   1.390   1_554 S
C489   H504    1.084   .     S
C489   C1164   1.389   .     S
C490   H495    1.083   .     S
C490   C36     1.369   1_565 S
C491   H496    1.083   .     S
C492   H497    1.084   .     S
N519   Zn531   2.010   .     S
N520   Zn532   2.010   .     S
O521   Zn531   2.000   .     S
O523   Zn532   2.000   .     S
O524   Zn532   2.002   .     S
O525   Zn531   2.002   .     S
O526   Zn531   1.968   .     S
O527   Zn532   1.968   .     S
O528   Zn532   1.914   .     S
O529   Zn531   1.914   .     S
C533   O600    1.284   .     A
C533   O597    1.283   .     A
C533   C536    1.420   .     S
C534   C536    1.398   .     A
C534   H574    1.084   .     S
C534   C111    1.370   1_565 S
C535   C544    1.420   .     S
C535   C567    1.397   .     A
C535   C568    1.398   .     A
C536   C566    1.397   .     A
C537   H575    1.081   .     S
C537   N596    1.362   .     A
C537   C615    1.426   .     S
C538   H576    1.080   .     S
C538   N595    1.363   .     A
C539   O606    1.385   .     S
C539   N595    1.370   .     A
C540   O598    1.394   .     S
C540   N596    1.372   .     A
C540   C614    1.436   .     S
C541   O604    1.293   .     A
C541   O602    1.292   .     A
C541   C543    1.455   .     S
C542   O605    1.293   .     A
C542   O603    1.292   .     A
C542   C545    1.457   .     S
C543   C550    1.390   .     A
C543   C548    1.399   .     A
C544   O599    1.283   .     A
C544   O601    1.284   .     A
C545   C551    1.392   .     A
C545   C549    1.399   .     A
C546   C548    1.394   .     A
C546   H592    1.084   .     S
C546   C554    1.405   .     A
C547   H593    1.083   .     S
C547   C556    1.404   .     A
C547   C549    1.393   .     A
C548   H591    1.083   .     S
C549   H590    1.083   .     S
C550   C552    1.394   .     A
C550   H589    1.078   .     S
C551   H588    1.075   .     S
C551   C553    1.395   .     A
C552   C557    1.418   .     A
C552   C554    1.417   .     A
C553   C558    1.419   .     A
C553   C556    1.419   .     A
C554   C1248   1.390   .     S
C555   C558    1.419   .     A
C555   H594    1.077   .     S
C555   C564    1.388   .     A
C556   C1249   1.389   1_554 S
C557   C563    1.418   .     A
C557   C1242   1.415   .     S
C558   C1241   1.415   1_554 S
C559   O606    1.413   .     S
C559   H577    1.115   .     S
C559   H578    1.111   .     S
C559   C560    1.522   .     S
C560   H579    1.111   .     S
C560   H581    1.111   .     S
C560   H582    1.109   .     S
C561   C562    1.521   .     S
C561   H583    1.112   .     S
C561   O598    1.412   .     S
C561   H584    1.114   .     S
C562   H586    1.110   .     S
C562   H585    1.109   .     S
C562   H587    1.110   .     S
C563   C565    1.387   .     A
C563   H570    1.077   .     S
C564   H569    1.084   .     S
C564   C1238   1.390   1_554 S
C565   H580    1.084   .     S
C565   C1240   1.389   .     S
C566   H571    1.083   .     S
C566   C112    1.369   1_565 S
C567   H572    1.083   .     S
C568   H573    1.084   .     S
N595   Zn607   2.010   .     S
N596   Zn608   2.010   .     S
O597   Zn607   2.000   .     S
O599   Zn608   2.000   .     S
O600   Zn608   2.002   .     S
O601   Zn607   2.002   .     S
O602   Zn607   1.968   .     S
O603   Zn608   1.968   .     S
O604   Zn608   1.914   .     S
O605   Zn607   1.914   .     S
C609   O676    1.284   .     A
C609   O673    1.283   .     A
C609   C612    1.420   .     S
C610   C612    1.398   .     A
C610   H650    1.084   .     S
C610   C187    1.370   1_565 S
C611   C620    1.420   .     S
C611   C643    1.397   .     A
C611   C644    1.398   .     A
C612   C642    1.397   .     A
C613   H651    1.081   .     S
C613   N672    1.362   .     A
C613   C463    1.426   1_655 S
C614   H652    1.080   .     S
C614   N671    1.363   .     A
C615   O682    1.385   .     S
C615   N671    1.370   .     A
C616   O674    1.394   .     S
C616   N672    1.372   .     A
C616   C462    1.436   1_655 S
C617   O680    1.293   .     A
C617   O678    1.292   .     A
C617   C619    1.455   .     S
C618   O681    1.293   .     A
C618   O679    1.292   .     A
C618   C621    1.457   .     S
C619   C626    1.390   .     A
C619   C624    1.399   .     A
C620   O675    1.283   .     A
C620   O677    1.284   .     A
C621   C627    1.392   .     A
C621   C625    1.399   .     A
C622   C624    1.394   .     A
C622   H668    1.084   .     S
C622   C630    1.405   .     A
C623   H669    1.083   .     S
C623   C632    1.404   .     A
C623   C625    1.393   .     A
C624   H667    1.083   .     S
C625   H666    1.083   .     S
C626   C628    1.394   .     A
C626   H665    1.078   .     S
C627   H664    1.075   .     S
C627   C629    1.395   .     A
C628   C633    1.418   .     A
C628   C630    1.417   .     A
C629   C634    1.419   .     A
C629   C632    1.419   .     A
C630   C1324   1.390   .     S
C631   C634    1.419   .     A
C631   H670    1.077   .     S
C631   C640    1.388   .     A
C632   C1325   1.389   1_554 S
C633   C639    1.418   .     A
C633   C1318   1.415   .     S
C634   C1317   1.415   1_554 S
C635   O682    1.413   .     S
C635   H653    1.115   .     S
C635   H654    1.111   .     S
C635   C636    1.522   .     S
C636   H655    1.111   .     S
C636   H657    1.111   .     S
C636   H658    1.109   .     S
C637   C638    1.521   .     S
C637   H659    1.112   .     S
C637   O674    1.412   .     S
C637   H660    1.114   .     S
C638   H662    1.110   .     S
C638   H661    1.109   .     S
C638   H663    1.110   .     S
C639   C641    1.387   .     A
C639   H646    1.077   .     S
C640   H645    1.084   .     S
C640   C1314   1.390   1_554 S
C641   H656    1.084   .     S
C641   C1316   1.389   .     S
C642   H647    1.083   .     S
C642   C188    1.369   1_565 S
C643   H648    1.083   .     S
C644   H649    1.084   .     S
N671   Zn683   2.010   .     S
N672   Zn684   2.010   .     S
O673   Zn683   2.000   .     S
O675   Zn684   2.000   .     S
O676   Zn684   2.002   .     S
O677   Zn683   2.002   .     S
O678   Zn683   1.968   .     S
O679   Zn684   1.968   .     S
O680   Zn684   1.914   .     S
O681   Zn683   1.914   .     S
C685   O752    1.284   .     A
C685   O749    1.283   .     A
C685   C688    1.420   .     S
C686   C688    1.398   .     A
C686   H726    1.084   .     S
C686   C947    1.370   .     S
C687   C696    1.420   .     S
C687   C719    1.397   .     A
C687   C720    1.398   .     A
C688   C718    1.397   .     A
C689   H727    1.081   .     S
C689   N748    1.362   .     A
C689   C767    1.426   .     S
C690   H728    1.080   .     S
C690   N747    1.363   .     A
C690   C844    1.436   1_455 S
C691   O758    1.385   .     S
C691   N747    1.370   .     A
C691   C841    1.426   1_455 S
C692   O750    1.394   .     S
C692   N748    1.372   .     A
C692   C766    1.436   .     S
C693   O756    1.293   .     A
C693   O754    1.292   .     A
C693   C695    1.455   .     S
C694   O757    1.293   .     A
C694   O755    1.292   .     A
C694   C697    1.457   .     S
C695   C702    1.390   .     A
C695   C700    1.399   .     A
C696   O751    1.283   .     A
C696   O753    1.284   .     A
C697   C703    1.392   .     A
C697   C701    1.399   .     A
C698   C700    1.394   .     A
C698   H744    1.084   .     S
C698   C706    1.405   .     A
C699   H745    1.083   .     S
C699   C708    1.404   .     A
C699   C701    1.393   .     A
C700   H743    1.083   .     S
C701   H742    1.083   .     S
C702   C704    1.394   .     A
C702   H741    1.078   .     S
C703   H740    1.075   .     S
C703   C705    1.395   .     A
C704   C709    1.418   .     A
C704   C706    1.417   .     A
C705   C710    1.419   .     A
C705   C708    1.419   .     A
C706   C32     1.390   1_556 S
C707   C710    1.419   .     A
C707   H746    1.077   .     S
C707   C716    1.388   .     A
C709   C715    1.418   .     A
C709   C26     1.415   1_556 S
C711   O758    1.413   .     S
C711   H729    1.115   .     S
C711   H730    1.111   .     S
C711   C712    1.522   .     S
C712   H731    1.111   .     S
C712   H733    1.111   .     S
C712   H734    1.109   .     S
C713   C714    1.521   .     S
C713   H735    1.112   .     S
C713   O750    1.412   .     S
C713   H736    1.114   .     S
C714   H738    1.110   .     S
C714   H737    1.109   .     S
C714   H739    1.110   .     S
C715   C717    1.387   .     A
C715   H722    1.077   .     S
C716   H721    1.084   .     S
C717   H732    1.084   .     S
C717   C24     1.389   1_556 S
C718   H723    1.083   .     S
C718   C948    1.369   .     S
C719   H724    1.083   .     S
C719   C1142   1.370   1_545 S
C720   H725    1.084   .     S
C720   C1174   1.369   1_545 S
N747   Zn759   2.010   .     S
N748   Zn760   2.010   .     S
O749   Zn759   2.000   .     S
O751   Zn760   2.000   .     S
O752   Zn760   2.002   .     S
O753   Zn759   2.002   .     S
O754   Zn759   1.968   .     S
O755   Zn760   1.968   .     S
O756   Zn760   1.914   .     S
O757   Zn759   1.914   .     S
C761   O828    1.284   .     A
C761   O825    1.283   .     A
C761   C764    1.420   .     S
C762   C764    1.398   .     A
C762   H802    1.084   .     S
C762   C1023   1.370   .     S
C763   C772    1.420   .     S
C763   C795    1.397   .     A
C763   C796    1.398   .     A
C764   C794    1.397   .     A
C765   H803    1.081   .     S
C765   N824    1.362   .     A
C765   C843    1.426   .     S
C766   H804    1.080   .     S
C766   N823    1.363   .     A
C767   O834    1.385   .     S
C767   N823    1.370   .     A
C768   O826    1.394   .     S
C768   N824    1.372   .     A
C768   C842    1.436   .     S
C769   O832    1.293   .     A
C769   O830    1.292   .     A
C769   C771    1.455   .     S
C770   O833    1.293   .     A
C770   O831    1.292   .     A
C770   C773    1.457   .     S
C771   C778    1.390   .     A
C771   C776    1.399   .     A
C772   O827    1.283   .     A
C772   O829    1.284   .     A
C773   C779    1.392   .     A
C773   C777    1.399   .     A
C774   C776    1.394   .     A
C774   H820    1.084   .     S
C774   C782    1.405   .     A
C775   H821    1.083   .     S
C775   C784    1.404   .     A
C775   C777    1.393   .     A
C776   H819    1.083   .     S
C777   H818    1.083   .     S
C778   C780    1.394   .     A
C778   H817    1.078   .     S
C779   H816    1.075   .     S
C779   C781    1.395   .     A
C780   C785    1.418   .     A
C780   C782    1.417   .     A
C781   C786    1.419   .     A
C781   C784    1.419   .     A
C782   C108    1.390   1_556 S
C783   C786    1.419   .     A
C783   H822    1.077   .     S
C783   C792    1.388   .     A
C785   C791    1.418   .     A
C785   C102    1.415   1_556 S
C787   O834    1.413   .     S
C787   H805    1.115   .     S
C787   H806    1.111   .     S
C787   C788    1.522   .     S
C788   H807    1.111   .     S
C788   H809    1.111   .     S
C788   H810    1.109   .     S
C789   C790    1.521   .     S
C789   H811    1.112   .     S
C789   O826    1.412   .     S
C789   H812    1.114   .     S
C790   H814    1.110   .     S
C790   H813    1.109   .     S
C790   H815    1.110   .     S
C791   C793    1.387   .     A
C791   H798    1.077   .     S
C792   H797    1.084   .     S
C793   H808    1.084   .     S
C793   C100    1.389   1_556 S
C794   H799    1.083   .     S
C794   C1024   1.369   .     S
C795   H800    1.083   .     S
C795   C1218   1.370   1_545 S
C796   H801    1.084   .     S
C796   C1250   1.369   1_545 S
N823   Zn835   2.010   .     S
N824   Zn836   2.010   .     S
O825   Zn835   2.000   .     S
O827   Zn836   2.000   .     S
O828   Zn836   2.002   .     S
O829   Zn835   2.002   .     S
O830   Zn835   1.968   .     S
O831   Zn836   1.968   .     S
O832   Zn836   1.914   .     S
O833   Zn835   1.914   .     S
C837   O904    1.284   .     A
C837   O901    1.283   .     A
C837   C840    1.420   .     S
C838   C840    1.398   .     A
C838   H878    1.084   .     S
C838   C1099   1.370   .     S
C839   C848    1.420   .     S
C839   C871    1.397   .     A
C839   C872    1.398   .     A
C840   C870    1.397   .     A
C841   H879    1.081   .     S
C841   N900    1.362   .     A
C841   C691    1.426   1_655 S
C842   H880    1.080   .     S
C842   N899    1.363   .     A
C843   O910    1.385   .     S
C843   N899    1.370   .     A
C844   O902    1.394   .     S
C844   N900    1.372   .     A
C844   C690    1.436   1_655 S
C845   O908    1.293   .     A
C845   O906    1.292   .     A
C845   C847    1.455   .     S
C846   O909    1.293   .     A
C846   O907    1.292   .     A
C846   C849    1.457   .     S
C847   C854    1.390   .     A
C847   C852    1.399   .     A
C848   O903    1.283   .     A
C848   O905    1.284   .     A
C849   C855    1.392   .     A
C849   C853    1.399   .     A
C850   C852    1.394   .     A
C850   H896    1.084   .     S
C850   C858    1.405   .     A
C851   H897    1.083   .     S
C851   C860    1.404   .     A
C851   C853    1.393   .     A
C852   H895    1.083   .     S
C853   H894    1.083   .     S
C854   C856    1.394   .     A
C854   H893    1.078   .     S
C855   H892    1.075   .     S
C855   C857    1.395   .     A
C856   C861    1.418   .     A
C856   C858    1.417   .     A
C857   C862    1.419   .     A
C857   C860    1.419   .     A
C858   C184    1.390   1_556 S
C859   C862    1.419   .     A
C859   H898    1.077   .     S
C859   C868    1.388   .     A
C861   C867    1.418   .     A
C861   C178    1.415   1_556 S
C863   O910    1.413   .     S
C863   H881    1.115   .     S
C863   H882    1.111   .     S
C863   C864    1.522   .     S
C864   H883    1.111   .     S
C864   H885    1.111   .     S
C864   H886    1.109   .     S
C865   C866    1.521   .     S
C865   H887    1.112   .     S
C865   O902    1.412   .     S
C865   H888    1.114   .     S
C866   H890    1.110   .     S
C866   H889    1.109   .     S
C866   H891    1.110   .     S
C867   C869    1.387   .     A
C867   H874    1.077   .     S
C868   H873    1.084   .     S
C869   H884    1.084   .     S
C869   C176    1.389   1_556 S
C870   H875    1.083   .     S
C870   C1100   1.369   .     S
C871   H876    1.083   .     S
C871   C1294   1.370   1_545 S
C872   H877    1.084   .     S
C872   C1326   1.369   1_545 S
N899   Zn911   2.010   .     S
N900   Zn912   2.010   .     S
O901   Zn911   2.000   .     S
O903   Zn912   2.000   .     S
O904   Zn912   2.002   .     S
O905   Zn911   2.002   .     S
O906   Zn911   1.968   .     S
O907   Zn912   1.968   .     S
O908   Zn912   1.914   .     S
O909   Zn911   1.914   .     S
C913   O980    1.284   .     A
C913   O977    1.283   .     A
C913   C916    1.420   .     S
C914   C916    1.398   .     A
C914   H954    1.084   .     S
C914   C1175   1.370   .     S
C915   C924    1.420   .     S
C915   C947    1.397   .     A
C915   C948    1.398   .     A
C916   C946    1.397   .     A
C917   H955    1.081   .     S
C917   N976    1.362   .     A
C917   C995    1.426   .     S
C918   H956    1.080   .     S
C918   N975    1.363   .     A
C918   C1072   1.436   1_455 S
C919   O986    1.385   .     S
C919   N975    1.370   .     A
C919   C1069   1.426   1_455 S
C920   O978    1.394   .     S
C920   N976    1.372   .     A
C920   C994    1.436   .     S
C921   O984    1.293   .     A
C921   O982    1.292   .     A
C921   C923    1.455   .     S
C922   O985    1.293   .     A
C922   O983    1.292   .     A
C922   C925    1.457   .     S
C923   C930    1.390   .     A
C923   C928    1.399   .     A
C924   O979    1.283   .     A
C924   O981    1.284   .     A
C925   C931    1.392   .     A
C925   C929    1.399   .     A
C926   C928    1.394   .     A
C926   H972    1.084   .     S
C926   C934    1.405   .     A
C927   H973    1.083   .     S
C927   C936    1.404   .     A
C927   C929    1.393   .     A
C928   H971    1.083   .     S
C929   H970    1.083   .     S
C930   C932    1.394   .     A
C930   H969    1.078   .     S
C931   H968    1.075   .     S
C931   C933    1.395   .     A
C932   C937    1.418   .     A
C932   C934    1.417   .     A
C933   C938    1.419   .     A
C933   C936    1.419   .     A
C934   C260    1.390   1_556 S
C935   C938    1.419   .     A
C935   H974    1.077   .     S
C935   C944    1.388   .     A
C937   C943    1.418   .     A
C937   C254    1.415   1_556 S
C939   O986    1.413   .     S
C939   H957    1.115   .     S
C939   H958    1.111   .     S
C939   C940    1.522   .     S
C940   H959    1.111   .     S
C940   H961    1.111   .     S
C940   H962    1.109   .     S
C941   C942    1.521   .     S
C941   H963    1.112   .     S
C941   O978    1.412   .     S
C941   H964    1.114   .     S
C942   H966    1.110   .     S
C942   H965    1.109   .     S
C942   H967    1.110   .     S
C943   C945    1.387   .     A
C943   H950    1.077   .     S
C944   H949    1.084   .     S
C945   H960    1.084   .     S
C945   C252    1.389   1_556 S
C946   H951    1.083   .     S
C946   C1176   1.369   .     S
C947   H952    1.083   .     S
C948   H953    1.084   .     S
N975   Zn987   2.010   .     S
N976   Zn988   2.010   .     S
O977   Zn987   2.000   .     S
O979   Zn988   2.000   .     S
O980   Zn988   2.002   .     S
O981   Zn987   2.002   .     S
O982   Zn987   1.968   .     S
O983   Zn988   1.968   .     S
O984   Zn988   1.914   .     S
O985   Zn987   1.914   .     S
C989   O1056   1.284   .     A
C989   O1053   1.283   .     A
C989   C992    1.420   .     S
C990   C992    1.398   .     A
C990   H1030   1.084   .     S
C990   C1251   1.370   .     S
C991   C1000   1.420   .     S
C991   C1023   1.397   .     A
C991   C1024   1.398   .     A
C992   C1022   1.397   .     A
C993   H1031   1.081   .     S
C993   N1052   1.362   .     A
C993   C1071   1.426   .     S
C994   H1032   1.080   .     S
C994   N1051   1.363   .     A
C995   O1062   1.385   .     S
C995   N1051   1.370   .     A
C996   O1054   1.394   .     S
C996   N1052   1.372   .     A
C996   C1070   1.436   .     S
C997   O1060   1.293   .     A
C997   O1058   1.292   .     A
C997   C999    1.455   .     S
C998   O1061   1.293   .     A
C998   O1059   1.292   .     A
C998   C1001   1.457   .     S
C999   C1006   1.390   .     A
C999   C1004   1.399   .     A
C1000  O1055   1.283   .     A
C1000  O1057   1.284   .     A
C1001  C1007   1.392   .     A
C1001  C1005   1.399   .     A
C1002  C1004   1.394   .     A
C1002  H1048   1.084   .     S
C1002  C1010   1.405   .     A
C1003  H1049   1.083   .     S
C1003  C1012   1.404   .     A
C1003  C1005   1.393   .     A
C1004  H1047   1.083   .     S
C1005  H1046   1.083   .     S
C1006  C1008   1.394   .     A
C1006  H1045   1.078   .     S
C1007  H1044   1.075   .     S
C1007  C1009   1.395   .     A
C1008  C1013   1.418   .     A
C1008  C1010   1.417   .     A
C1009  C1014   1.419   .     A
C1009  C1012   1.419   .     A
C1010  C336    1.390   1_556 S
C1011  C1014   1.419   .     A
C1011  H1050   1.077   .     S
C1011  C1020   1.388   .     A
C1013  C1019   1.418   .     A
C1013  C330    1.415   1_556 S
C1015  O1062   1.413   .     S
C1015  H1033   1.115   .     S
C1015  H1034   1.111   .     S
C1015  C1016   1.522   .     S
C1016  H1035   1.111   .     S
C1016  H1037   1.111   .     S
C1016  H1038   1.109   .     S
C1017  C1018   1.521   .     S
C1017  H1039   1.112   .     S
C1017  O1054   1.412   .     S
C1017  H1040   1.114   .     S
C1018  H1042   1.110   .     S
C1018  H1041   1.109   .     S
C1018  H1043   1.110   .     S
C1019  C1021   1.387   .     A
C1019  H1026   1.077   .     S
C1020  H1025   1.084   .     S
C1021  H1036   1.084   .     S
C1021  C328    1.389   1_556 S
C1022  H1027   1.083   .     S
C1022  C1252   1.369   .     S
C1023  H1028   1.083   .     S
C1024  H1029   1.084   .     S
N1051  Zn1063  2.010   .     S
N1052  Zn1064  2.010   .     S
O1053  Zn1063  2.000   .     S
O1055  Zn1064  2.000   .     S
O1056  Zn1064  2.002   .     S
O1057  Zn1063  2.002   .     S
O1058  Zn1063  1.968   .     S
O1059  Zn1064  1.968   .     S
O1060  Zn1064  1.914   .     S
O1061  Zn1063  1.914   .     S
C1065  O1132   1.284   .     A
C1065  O1129   1.283   .     A
C1065  C1068   1.420   .     S
C1066  C1068   1.398   .     A
C1066  H1106   1.084   .     S
C1066  C1327   1.370   .     S
C1067  C1076   1.420   .     S
C1067  C1099   1.397   .     A
C1067  C1100   1.398   .     A
C1068  C1098   1.397   .     A
C1069  H1107   1.081   .     S
C1069  N1128   1.362   .     A
C1069  C919    1.426   1_655 S
C1070  H1108   1.080   .     S
C1070  N1127   1.363   .     A
C1071  O1138   1.385   .     S
C1071  N1127   1.370   .     A
C1072  O1130   1.394   .     S
C1072  N1128   1.372   .     A
C1072  C918    1.436   1_655 S
C1073  O1136   1.293   .     A
C1073  O1134   1.292   .     A
C1073  C1075   1.455   .     S
C1074  O1137   1.293   .     A
C1074  O1135   1.292   .     A
C1074  C1077   1.457   .     S
C1075  C1082   1.390   .     A
C1075  C1080   1.399   .     A
C1076  O1131   1.283   .     A
C1076  O1133   1.284   .     A
C1077  C1083   1.392   .     A
C1077  C1081   1.399   .     A
C1078  C1080   1.394   .     A
C1078  H1124   1.084   .     S
C1078  C1086   1.405   .     A
C1079  H1125   1.083   .     S
C1079  C1088   1.404   .     A
C1079  C1081   1.393   .     A
C1080  H1123   1.083   .     S
C1081  H1122   1.083   .     S
C1082  C1084   1.394   .     A
C1082  H1121   1.078   .     S
C1083  H1120   1.075   .     S
C1083  C1085   1.395   .     A
C1084  C1089   1.418   .     A
C1084  C1086   1.417   .     A
C1085  C1090   1.419   .     A
C1085  C1088   1.419   .     A
C1086  C412    1.390   1_556 S
C1087  C1090   1.419   .     A
C1087  H1126   1.077   .     S
C1087  C1096   1.388   .     A
C1089  C1095   1.418   .     A
C1089  C406    1.415   1_556 S
C1091  O1138   1.413   .     S
C1091  H1109   1.115   .     S
C1091  H1110   1.111   .     S
C1091  C1092   1.522   .     S
C1092  H1111   1.111   .     S
C1092  H1113   1.111   .     S
C1092  H1114   1.109   .     S
C1093  C1094   1.521   .     S
C1093  H1115   1.112   .     S
C1093  O1130   1.412   .     S
C1093  H1116   1.114   .     S
C1094  H1118   1.110   .     S
C1094  H1117   1.109   .     S
C1094  H1119   1.110   .     S
C1095  C1097   1.387   .     A
C1095  H1102   1.077   .     S
C1096  H1101   1.084   .     S
C1097  H1112   1.084   .     S
C1097  C404    1.389   1_556 S
C1098  H1103   1.083   .     S
C1098  C1328   1.369   .     S
C1099  H1104   1.083   .     S
C1100  H1105   1.084   .     S
N1127  Zn1139  2.010   .     S
N1128  Zn1140  2.010   .     S
O1129  Zn1139  2.000   .     S
O1131  Zn1140  2.000   .     S
O1132  Zn1140  2.002   .     S
O1133  Zn1139  2.002   .     S
O1134  Zn1139  1.968   .     S
O1135  Zn1140  1.968   .     S
O1136  Zn1140  1.914   .     S
O1137  Zn1139  1.914   .     S
C1141  O1208   1.284   .     A
C1141  O1205   1.283   .     A
C1141  C1144   1.420   .     S
C1142  C1144   1.398   .     A
C1142  H1182   1.084   .     S
C1142  C719    1.370   1_565 S
C1143  C1152   1.420   .     S
C1143  C1175   1.397   .     A
C1143  C1176   1.398   .     A
C1144  C1174   1.397   .     A
C1145  H1183   1.081   .     S
C1145  N1204   1.362   .     A
C1145  C1223   1.426   .     S
C1146  H1184   1.080   .     S
C1146  N1203   1.363   .     A
C1146  C1300   1.436   1_455 S
C1147  O1214   1.385   .     S
C1147  N1203   1.370   .     A
C1147  C1297   1.426   1_455 S
C1148  O1206   1.394   .     S
C1148  N1204   1.372   .     A
C1148  C1222   1.436   .     S
C1149  O1212   1.293   .     A
C1149  O1210   1.292   .     A
C1149  C1151   1.455   .     S
C1150  O1213   1.293   .     A
C1150  O1211   1.292   .     A
C1150  C1153   1.457   .     S
C1151  C1158   1.390   .     A
C1151  C1156   1.399   .     A
C1152  O1207   1.283   .     A
C1152  O1209   1.284   .     A
C1153  C1159   1.392   .     A
C1153  C1157   1.399   .     A
C1154  C1156   1.394   .     A
C1154  H1200   1.084   .     S
C1154  C1162   1.405   .     A
C1155  H1201   1.083   .     S
C1155  C1164   1.404   .     A
C1155  C1157   1.393   .     A
C1156  H1199   1.083   .     S
C1157  H1198   1.083   .     S
C1158  C1160   1.394   .     A
C1158  H1197   1.078   .     S
C1159  H1196   1.075   .     S
C1159  C1161   1.395   .     A
C1160  C1165   1.418   .     A
C1160  C1162   1.417   .     A
C1161  C1166   1.419   .     A
C1161  C1164   1.419   .     A
C1162  C488    1.390   1_556 S
C1163  C1166   1.419   .     A
C1163  H1202   1.077   .     S
C1163  C1172   1.388   .     A
C1165  C1171   1.418   .     A
C1165  C482    1.415   1_556 S
C1167  O1214   1.413   .     S
C1167  H1185   1.115   .     S
C1167  H1186   1.111   .     S
C1167  C1168   1.522   .     S
C1168  H1187   1.111   .     S
C1168  H1189   1.111   .     S
C1168  H1190   1.109   .     S
C1169  C1170   1.521   .     S
C1169  H1191   1.112   .     S
C1169  O1206   1.412   .     S
C1169  H1192   1.114   .     S
C1170  H1194   1.110   .     S
C1170  H1193   1.109   .     S
C1170  H1195   1.110   .     S
C1171  C1173   1.387   .     A
C1171  H1178   1.077   .     S
C1172  H1177   1.084   .     S
C1173  H1188   1.084   .     S
C1173  C480    1.389   1_556 S
C1174  H1179   1.083   .     S
C1174  C720    1.369   1_565 S
C1175  H1180   1.083   .     S
C1176  H1181   1.084   .     S
N1203  Zn1215  2.010   .     S
N1204  Zn1216  2.010   .     S
O1205  Zn1215  2.000   .     S
O1207  Zn1216  2.000   .     S
O1208  Zn1216  2.002   .     S
O1209  Zn1215  2.002   .     S
O1210  Zn1215  1.968   .     S
O1211  Zn1216  1.968   .     S
O1212  Zn1216  1.914   .     S
O1213  Zn1215  1.914   .     S
C1217  O1284   1.284   .     A
C1217  O1281   1.283   .     A
C1217  C1220   1.420   .     S
C1218  C1220   1.398   .     A
C1218  H1258   1.084   .     S
C1218  C795    1.370   1_565 S
C1219  C1228   1.420   .     S
C1219  C1251   1.397   .     A
C1219  C1252   1.398   .     A
C1220  C1250   1.397   .     A
C1221  H1259   1.081   .     S
C1221  N1280   1.362   .     A
C1221  C1299   1.426   .     S
C1222  H1260   1.080   .     S
C1222  N1279   1.363   .     A
C1223  O1290   1.385   .     S
C1223  N1279   1.370   .     A
C1224  O1282   1.394   .     S
C1224  N1280   1.372   .     A
C1224  C1298   1.436   .     S
C1225  O1288   1.293   .     A
C1225  O1286   1.292   .     A
C1225  C1227   1.455   .     S
C1226  O1289   1.293   .     A
C1226  O1287   1.292   .     A
C1226  C1229   1.457   .     S
C1227  C1234   1.390   .     A
C1227  C1232   1.399   .     A
C1228  O1283   1.283   .     A
C1228  O1285   1.284   .     A
C1229  C1235   1.392   .     A
C1229  C1233   1.399   .     A
C1230  C1232   1.394   .     A
C1230  H1276   1.084   .     S
C1230  C1238   1.405   .     A
C1231  H1277   1.083   .     S
C1231  C1240   1.404   .     A
C1231  C1233   1.393   .     A
C1232  H1275   1.083   .     S
C1233  H1274   1.083   .     S
C1234  C1236   1.394   .     A
C1234  H1273   1.078   .     S
C1235  H1272   1.075   .     S
C1235  C1237   1.395   .     A
C1236  C1241   1.418   .     A
C1236  C1238   1.417   .     A
C1237  C1242   1.419   .     A
C1237  C1240   1.419   .     A
C1238  C564    1.390   1_556 S
C1239  C1242   1.419   .     A
C1239  H1278   1.077   .     S
C1239  C1248   1.388   .     A
C1241  C1247   1.418   .     A
C1241  C558    1.415   1_556 S
C1243  O1290   1.413   .     S
C1243  H1261   1.115   .     S
C1243  H1262   1.111   .     S
C1243  C1244   1.522   .     S
C1244  H1263   1.111   .     S
C1244  H1265   1.111   .     S
C1244  H1266   1.109   .     S
C1245  C1246   1.521   .     S
C1245  H1267   1.112   .     S
C1245  O1282   1.412   .     S
C1245  H1268   1.114   .     S
C1246  H1270   1.110   .     S
C1246  H1269   1.109   .     S
C1246  H1271   1.110   .     S
C1247  C1249   1.387   .     A
C1247  H1254   1.077   .     S
C1248  H1253   1.084   .     S
C1249  H1264   1.084   .     S
C1249  C556    1.389   1_556 S
C1250  H1255   1.083   .     S
C1250  C796    1.369   1_565 S
C1251  H1256   1.083   .     S
C1252  H1257   1.084   .     S
N1279  Zn1291  2.010   .     S
N1280  Zn1292  2.010   .     S
O1281  Zn1291  2.000   .     S
O1283  Zn1292  2.000   .     S
O1284  Zn1292  2.002   .     S
O1285  Zn1291  2.002   .     S
O1286  Zn1291  1.968   .     S
O1287  Zn1292  1.968   .     S
O1288  Zn1292  1.914   .     S
O1289  Zn1291  1.914   .     S
C1293  O1360   1.284   .     A
C1293  O1357   1.283   .     A
C1293  C1296   1.420   .     S
C1294  C1296   1.398   .     A
C1294  H1334   1.084   .     S
C1294  C871    1.370   1_565 S
C1295  C1304   1.420   .     S
C1295  C1327   1.397   .     A
C1295  C1328   1.398   .     A
C1296  C1326   1.397   .     A
C1297  H1335   1.081   .     S
C1297  N1356   1.362   .     A
C1297  C1147   1.426   1_655 S
C1298  H1336   1.080   .     S
C1298  N1355   1.363   .     A
C1299  O1366   1.385   .     S
C1299  N1355   1.370   .     A
C1300  O1358   1.394   .     S
C1300  N1356   1.372   .     A
C1300  C1146   1.436   1_655 S
C1301  O1364   1.293   .     A
C1301  O1362   1.292   .     A
C1301  C1303   1.455   .     S
C1302  O1365   1.293   .     A
C1302  O1363   1.292   .     A
C1302  C1305   1.457   .     S
C1303  C1310   1.390   .     A
C1303  C1308   1.399   .     A
C1304  O1359   1.283   .     A
C1304  O1361   1.284   .     A
C1305  C1311   1.392   .     A
C1305  C1309   1.399   .     A
C1306  C1308   1.394   .     A
C1306  H1352   1.084   .     S
C1306  C1314   1.405   .     A
C1307  H1353   1.083   .     S
C1307  C1316   1.404   .     A
C1307  C1309   1.393   .     A
C1308  H1351   1.083   .     S
C1309  H1350   1.083   .     S
C1310  C1312   1.394   .     A
C1310  H1349   1.078   .     S
C1311  H1348   1.075   .     S
C1311  C1313   1.395   .     A
C1312  C1317   1.418   .     A
C1312  C1314   1.417   .     A
C1313  C1318   1.419   .     A
C1313  C1316   1.419   .     A
C1314  C640    1.390   1_556 S
C1315  C1318   1.419   .     A
C1315  H1354   1.077   .     S
C1315  C1324   1.388   .     A
C1317  C1323   1.418   .     A
C1317  C634    1.415   1_556 S
C1319  O1366   1.413   .     S
C1319  H1337   1.115   .     S
C1319  H1338   1.111   .     S
C1319  C1320   1.522   .     S
C1320  H1339   1.111   .     S
C1320  H1341   1.111   .     S
C1320  H1342   1.109   .     S
C1321  C1322   1.521   .     S
C1321  H1343   1.112   .     S
C1321  O1358   1.412   .     S
C1321  H1344   1.114   .     S
C1322  H1346   1.110   .     S
C1322  H1345   1.109   .     S
C1322  H1347   1.110   .     S
C1323  C1325   1.387   .     A
C1323  H1330   1.077   .     S
C1324  H1329   1.084   .     S
C1325  H1340   1.084   .     S
C1325  C632    1.389   1_556 S
C1326  H1331   1.083   .     S
C1326  C872    1.369   1_565 S
C1327  H1332   1.083   .     S
C1328  H1333   1.084   .     S
N1355  Zn1367  2.010   .     S
N1356  Zn1368  2.010   .     S
O1357  Zn1367  2.000   .     S
O1359  Zn1368  2.000   .     S
O1360  Zn1368  2.002   .     S
O1361  Zn1367  2.002   .     S
O1362  Zn1367  1.968   .     S
O1363  Zn1368  1.968   .     S
O1364  Zn1368  1.914   .     S
O1365  Zn1367  1.914   .     S
