data_str_m3_o2_o10_pcu_sym.22
_audit_creation_date              2020-01-03
_audit_creation_method            'Materials Studio'
_symmetry_space_group_name_H-M    'P1'
_symmetry_Int_Tables_number       1
_symmetry_cell_setting            triclinic
loop_
_symmetry_equiv_pos_as_xyz
  x,y,z
_cell_length_a                    25.7676
_cell_length_b                    30.0107
_cell_length_c                    28.3977
_cell_angle_alpha                 89.7765
_cell_angle_beta                  98.4754
_cell_angle_gamma                 90.2807
loop_
_atom_site_label
_atom_site_type_symbol
_atom_site_fract_x
_atom_site_fract_y
_atom_site_fract_z
_atom_site_U_iso_or_equiv
_atom_site_adp_type
_atom_site_occupancy
C1     C     0.16641   0.16391   0.25005   0.00000  Uiso   1.00
C2     C     0.12713   0.22837   0.44231   0.00000  Uiso   1.00
C3     C     0.16728   0.24948   0.02683   0.00000  Uiso   1.00
C4     C     0.16732   0.24953   0.47341   0.00000  Uiso   1.00
C5     C     0.06704   0.24987   0.23759   0.00000  Uiso   1.00
C6     C     0.26629   0.25006   0.26242   0.00000  Uiso   1.00
C7     C     0.01205   0.24939   0.23090   0.00000  Uiso   1.00
C8     C     0.32128   0.25037   0.26914   0.00000  Uiso   1.00
C9     C     0.18189   0.04669   0.29185   0.00000  Uiso   1.00
C10    C     0.18200   0.45352   0.21241   0.00000  Uiso   1.00
C11    C     0.18281   0.09269   0.29203   0.00000  Uiso   1.00
C12    C     0.16650   0.33610   0.24991   0.00000  Uiso   1.00
C13    C     0.18292   0.40753   0.21240   0.00000  Uiso   1.00
C14    C     0.16518   0.11602   0.25003   0.00000  Uiso   1.00
C15    C     0.16534   0.38400   0.24967   0.00000  Uiso   1.00
C16    C     0.14610   0.09340   0.20798   0.00000  Uiso   1.00
C17    C     0.14632   0.40644   0.28667   0.00000  Uiso   1.00
C18    C     0.14469   0.04742   0.20794   0.00000  Uiso   1.00
C19    C     0.14487   0.45241   0.28640   0.00000  Uiso   1.00
C20    C     0.16287   0.02406   0.24979   0.00000  Uiso   1.00
C21    C     0.16297   0.47596   0.24940   0.00000  Uiso   1.00
C22    C     0.27139   0.32126   0.12628   0.00000  Uiso   1.00
C23    C     0.14170   0.21577   0.04964   0.00000  Uiso   1.00
C24    C     0.09127   0.15996   0.37132   0.00000  Uiso   1.00
C25    C     0.20742   0.27070   0.45253   0.00000  Uiso   1.00
C26    C     0.14126   0.21701   0.09906   0.00000  Uiso   1.00
C27    C     0.20595   0.27104   0.40282   0.00000  Uiso   1.00
C28    C     0.19397   0.28221   0.10603   0.00000  Uiso   1.00
C29    C     0.12834   0.22747   0.39268   0.00000  Uiso   1.00
C30    C     0.19282   0.28327   0.05593   0.00000  Uiso   1.00
H31    H     0.32487   0.24805   0.19462   0.00000  Uiso   1.00
H32    H     0.12946   0.46958   0.31481   0.00000  Uiso   1.00
H33    H     0.12237   0.18817   0.02980   0.00000  Uiso   1.00
H34    H     0.24025   0.28665   0.47420   0.00000  Uiso   1.00
H35    H     0.12091   0.19116   0.11583   0.00000  Uiso   1.00
H36    H     0.23672   0.28786   0.38745   0.00000  Uiso   1.00
H37    H     0.21101   0.31090   0.04003   0.00000  Uiso   1.00
H38    H     0.09430   0.21304   0.45594   0.00000  Uiso   1.00
H39    H     0.29454   0.33643   0.15831   0.00000  Uiso   1.00
H40    H     0.27234   0.34490   0.09624   0.00000  Uiso   1.00
H41    H     0.29095   0.28938   0.11937   0.00000  Uiso   1.00
H42    H     0.00843   0.25161   0.30545   0.00000  Uiso   1.00
H43    H     0.06660   0.14282   0.34141   0.00000  Uiso   1.00
H44    H     0.13184   0.14669   0.37320   0.00000  Uiso   1.00
H45    H     0.07499   0.15164   0.40440   0.00000  Uiso   1.00
H46    H     0.19673   0.02879   0.32421   0.00000  Uiso   1.00
H47    H     0.19679   0.47157   0.18402   0.00000  Uiso   1.00
H48    H     0.19807   0.10993   0.32462   0.00000  Uiso   1.00
H49    H     0.19808   0.39048   0.18380   0.00000  Uiso   1.00
H50    H     0.13181   0.11122   0.17542   0.00000  Uiso   1.00
H51    H     0.13207   0.38849   0.31541   0.00000  Uiso   1.00
H52    H     0.12929   0.03009   0.17543   0.00000  Uiso   1.00
N53    N     0.16667   0.24999   0.12623   0.00000  Uiso   1.00
N54    N     0.16667   0.25001   0.37376   0.00000  Uiso   1.00
O55    O     0.16667   0.18454   0.28974   0.00000  Uiso   1.00
O56    O     0.08910   0.20624   0.36241   0.00000  Uiso   1.00
O57    O     0.16666   0.31547   0.21026   0.00000  Uiso   1.00
O58    O     0.16667   0.18453   0.21026   0.00000  Uiso   1.00
O59    O     0.16666   0.31547   0.28974   0.00000  Uiso   1.00
O60    O     0.09058   0.25000   0.28044   0.00000  Uiso   1.00
O61    O     0.24275   0.25000   0.21955   0.00000  Uiso   1.00
O62    O     0.09058   0.25000   0.20096   0.00000  Uiso   1.00
O63    O     0.24275   0.25001   0.29903   0.00000  Uiso   1.00
O64    O     0.21939   0.31493   0.13524   0.00000  Uiso   1.00
Zn65   Zn    0.16667   0.25001   0.30307   0.00000  Uiso   1.00
Zn66   Zn    0.16667   0.25000   0.19693   0.00000  Uiso   1.00
C67    C     0.49974   0.16391   0.25005   0.00000  Uiso   1.00
C68    C     0.46046   0.22837   0.44231   0.00000  Uiso   1.00
C69    C     0.50061   0.24948   0.02683   0.00000  Uiso   1.00
C70    C     0.50065   0.24953   0.47341   0.00000  Uiso   1.00
C71    C     0.40038   0.24987   0.23759   0.00000  Uiso   1.00
C72    C     0.59962   0.25006   0.26242   0.00000  Uiso   1.00
C73    C     0.34539   0.24939   0.23090   0.00000  Uiso   1.00
C74    C     0.65461   0.25037   0.26914   0.00000  Uiso   1.00
C75    C     0.51522   0.04669   0.29185   0.00000  Uiso   1.00
C76    C     0.51533   0.45352   0.21241   0.00000  Uiso   1.00
C77    C     0.51614   0.09269   0.29203   0.00000  Uiso   1.00
C78    C     0.49984   0.33610   0.24991   0.00000  Uiso   1.00
C79    C     0.51626   0.40753   0.21240   0.00000  Uiso   1.00
C80    C     0.49851   0.11602   0.25003   0.00000  Uiso   1.00
C81    C     0.49867   0.38400   0.24967   0.00000  Uiso   1.00
C82    C     0.47943   0.09340   0.20798   0.00000  Uiso   1.00
C83    C     0.47965   0.40644   0.28667   0.00000  Uiso   1.00
C84    C     0.47803   0.04742   0.20794   0.00000  Uiso   1.00
C85    C     0.47820   0.45241   0.28640   0.00000  Uiso   1.00
C86    C     0.49621   0.02406   0.24979   0.00000  Uiso   1.00
C87    C     0.49630   0.47596   0.24940   0.00000  Uiso   1.00
C88    C     0.60473   0.32126   0.12628   0.00000  Uiso   1.00
C89    C     0.47503   0.21577   0.04964   0.00000  Uiso   1.00
C90    C     0.42460   0.15996   0.37132   0.00000  Uiso   1.00
C91    C     0.54075   0.27070   0.45253   0.00000  Uiso   1.00
C92    C     0.47459   0.21701   0.09906   0.00000  Uiso   1.00
C93    C     0.53928   0.27104   0.40282   0.00000  Uiso   1.00
C94    C     0.52730   0.28221   0.10603   0.00000  Uiso   1.00
C95    C     0.46168   0.22747   0.39268   0.00000  Uiso   1.00
C96    C     0.52615   0.28327   0.05593   0.00000  Uiso   1.00
H97    H     0.65821   0.24805   0.19462   0.00000  Uiso   1.00
H98    H     0.46280   0.46958   0.31481   0.00000  Uiso   1.00
H99    H     0.45570   0.18817   0.02980   0.00000  Uiso   1.00
H100   H     0.57358   0.28665   0.47420   0.00000  Uiso   1.00
H101   H     0.45424   0.19116   0.11583   0.00000  Uiso   1.00
H102   H     0.57005   0.28786   0.38745   0.00000  Uiso   1.00
H103   H     0.54434   0.31090   0.04003   0.00000  Uiso   1.00
H104   H     0.42764   0.21304   0.45594   0.00000  Uiso   1.00
H105   H     0.62787   0.33643   0.15831   0.00000  Uiso   1.00
H106   H     0.60568   0.34490   0.09624   0.00000  Uiso   1.00
H107   H     0.62428   0.28938   0.11937   0.00000  Uiso   1.00
H108   H     0.34177   0.25161   0.30545   0.00000  Uiso   1.00
H109   H     0.39993   0.14282   0.34141   0.00000  Uiso   1.00
H110   H     0.46518   0.14669   0.37320   0.00000  Uiso   1.00
H111   H     0.40832   0.15164   0.40440   0.00000  Uiso   1.00
H112   H     0.53007   0.02879   0.32421   0.00000  Uiso   1.00
H113   H     0.53013   0.47157   0.18402   0.00000  Uiso   1.00
H114   H     0.53141   0.10993   0.32462   0.00000  Uiso   1.00
H115   H     0.53141   0.39048   0.18380   0.00000  Uiso   1.00
H116   H     0.46515   0.11122   0.17542   0.00000  Uiso   1.00
H117   H     0.46540   0.38849   0.31541   0.00000  Uiso   1.00
H118   H     0.46262   0.03009   0.17543   0.00000  Uiso   1.00
N119   N     0.50000   0.24999   0.12623   0.00000  Uiso   1.00
N120   N     0.50000   0.25001   0.37376   0.00000  Uiso   1.00
O121   O     0.50000   0.18454   0.28974   0.00000  Uiso   1.00
O122   O     0.42244   0.20624   0.36241   0.00000  Uiso   1.00
O123   O     0.50000   0.31547   0.21026   0.00000  Uiso   1.00
O124   O     0.50000   0.18453   0.21026   0.00000  Uiso   1.00
O125   O     0.50000   0.31547   0.28974   0.00000  Uiso   1.00
O126   O     0.42392   0.25000   0.28044   0.00000  Uiso   1.00
O127   O     0.57608   0.25000   0.21955   0.00000  Uiso   1.00
O128   O     0.42392   0.25000   0.20096   0.00000  Uiso   1.00
O129   O     0.57608   0.25001   0.29903   0.00000  Uiso   1.00
O130   O     0.55272   0.31493   0.13524   0.00000  Uiso   1.00
Zn131  Zn    0.50000   0.25001   0.30307   0.00000  Uiso   1.00
Zn132  Zn    0.50000   0.25000   0.19693   0.00000  Uiso   1.00
C133   C     0.83308   0.16391   0.25005   0.00000  Uiso   1.00
C134   C     0.79380   0.22837   0.44231   0.00000  Uiso   1.00
C135   C     0.83394   0.24948   0.02683   0.00000  Uiso   1.00
C136   C     0.83398   0.24953   0.47341   0.00000  Uiso   1.00
C137   C     0.73371   0.24987   0.23759   0.00000  Uiso   1.00
C138   C     0.93295   0.25006   0.26242   0.00000  Uiso   1.00
C139   C     0.67872   0.24939   0.23090   0.00000  Uiso   1.00
C140   C     0.98795   0.25037   0.26914   0.00000  Uiso   1.00
C141   C     0.84855   0.04669   0.29185   0.00000  Uiso   1.00
C142   C     0.84867   0.45352   0.21241   0.00000  Uiso   1.00
C143   C     0.84947   0.09269   0.29203   0.00000  Uiso   1.00
C144   C     0.83317   0.33610   0.24991   0.00000  Uiso   1.00
C145   C     0.84959   0.40753   0.21240   0.00000  Uiso   1.00
C146   C     0.83184   0.11602   0.25003   0.00000  Uiso   1.00
C147   C     0.83200   0.38400   0.24967   0.00000  Uiso   1.00
C148   C     0.81276   0.09340   0.20798   0.00000  Uiso   1.00
C149   C     0.81299   0.40644   0.28667   0.00000  Uiso   1.00
C150   C     0.81136   0.04742   0.20794   0.00000  Uiso   1.00
C151   C     0.81154   0.45241   0.28640   0.00000  Uiso   1.00
C152   C     0.82954   0.02406   0.24979   0.00000  Uiso   1.00
C153   C     0.82963   0.47596   0.24940   0.00000  Uiso   1.00
C154   C     0.93806   0.32126   0.12628   0.00000  Uiso   1.00
C155   C     0.80837   0.21577   0.04964   0.00000  Uiso   1.00
C156   C     0.75794   0.15996   0.37132   0.00000  Uiso   1.00
C157   C     0.87408   0.27070   0.45253   0.00000  Uiso   1.00
C158   C     0.80793   0.21701   0.09906   0.00000  Uiso   1.00
C159   C     0.87262   0.27104   0.40282   0.00000  Uiso   1.00
C160   C     0.86064   0.28221   0.10603   0.00000  Uiso   1.00
C161   C     0.79501   0.22747   0.39268   0.00000  Uiso   1.00
C162   C     0.85948   0.28327   0.05593   0.00000  Uiso   1.00
H163   H     0.99154   0.24805   0.19462   0.00000  Uiso   1.00
H164   H     0.79613   0.46958   0.31481   0.00000  Uiso   1.00
H165   H     0.78903   0.18817   0.02980   0.00000  Uiso   1.00
H166   H     0.90692   0.28665   0.47420   0.00000  Uiso   1.00
H167   H     0.78758   0.19116   0.11583   0.00000  Uiso   1.00
H168   H     0.90338   0.28786   0.38745   0.00000  Uiso   1.00
H169   H     0.87768   0.31090   0.04003   0.00000  Uiso   1.00
H170   H     0.76097   0.21304   0.45594   0.00000  Uiso   1.00
H171   H     0.96120   0.33643   0.15831   0.00000  Uiso   1.00
H172   H     0.93901   0.34490   0.09624   0.00000  Uiso   1.00
H173   H     0.95762   0.28938   0.11937   0.00000  Uiso   1.00
H174   H     0.67510   0.25161   0.30545   0.00000  Uiso   1.00
H175   H     0.73327   0.14282   0.34141   0.00000  Uiso   1.00
H176   H     0.79851   0.14669   0.37320   0.00000  Uiso   1.00
H177   H     0.74166   0.15164   0.40440   0.00000  Uiso   1.00
H178   H     0.86340   0.02879   0.32421   0.00000  Uiso   1.00
H179   H     0.86346   0.47157   0.18402   0.00000  Uiso   1.00
H180   H     0.86474   0.10993   0.32462   0.00000  Uiso   1.00
H181   H     0.86474   0.39048   0.18380   0.00000  Uiso   1.00
H182   H     0.79848   0.11122   0.17542   0.00000  Uiso   1.00
H183   H     0.79873   0.38849   0.31541   0.00000  Uiso   1.00
H184   H     0.79596   0.03009   0.17543   0.00000  Uiso   1.00
N185   N     0.83333   0.24999   0.12623   0.00000  Uiso   1.00
N186   N     0.83333   0.25001   0.37376   0.00000  Uiso   1.00
O187   O     0.83334   0.18454   0.28974   0.00000  Uiso   1.00
O188   O     0.75577   0.20624   0.36241   0.00000  Uiso   1.00
O189   O     0.83333   0.31547   0.21026   0.00000  Uiso   1.00
O190   O     0.83334   0.18453   0.21026   0.00000  Uiso   1.00
O191   O     0.83333   0.31547   0.28974   0.00000  Uiso   1.00
O192   O     0.75725   0.25000   0.28044   0.00000  Uiso   1.00
O193   O     0.90942   0.25000   0.21955   0.00000  Uiso   1.00
O194   O     0.75725   0.25000   0.20096   0.00000  Uiso   1.00
O195   O     0.90942   0.25001   0.29903   0.00000  Uiso   1.00
O196   O     0.88606   0.31493   0.13524   0.00000  Uiso   1.00
Zn197  Zn    0.83333   0.25001   0.30307   0.00000  Uiso   1.00
Zn198  Zn    0.83333   0.25000   0.19693   0.00000  Uiso   1.00
C199   C     0.16641   0.66391   0.25005   0.00000  Uiso   1.00
C200   C     0.12713   0.72837   0.44231   0.00000  Uiso   1.00
C201   C     0.16728   0.74948   0.02683   0.00000  Uiso   1.00
C202   C     0.16732   0.74953   0.47341   0.00000  Uiso   1.00
C203   C     0.06704   0.74987   0.23759   0.00000  Uiso   1.00
C204   C     0.26629   0.75006   0.26242   0.00000  Uiso   1.00
C205   C     0.01205   0.74939   0.23090   0.00000  Uiso   1.00
C206   C     0.32128   0.75037   0.26914   0.00000  Uiso   1.00
C207   C     0.18189   0.54669   0.29185   0.00000  Uiso   1.00
C208   C     0.18200   0.95352   0.21241   0.00000  Uiso   1.00
C209   C     0.18281   0.59269   0.29203   0.00000  Uiso   1.00
C210   C     0.16650   0.83610   0.24991   0.00000  Uiso   1.00
C211   C     0.18292   0.90753   0.21240   0.00000  Uiso   1.00
C212   C     0.16518   0.61602   0.25003   0.00000  Uiso   1.00
C213   C     0.16534   0.88400   0.24967   0.00000  Uiso   1.00
C214   C     0.14610   0.59340   0.20798   0.00000  Uiso   1.00
C215   C     0.14632   0.90644   0.28667   0.00000  Uiso   1.00
C216   C     0.14469   0.54742   0.20794   0.00000  Uiso   1.00
C217   C     0.14487   0.95241   0.28640   0.00000  Uiso   1.00
C218   C     0.16287   0.52406   0.24979   0.00000  Uiso   1.00
C219   C     0.16297   0.97596   0.24940   0.00000  Uiso   1.00
C220   C     0.27139   0.82126   0.12628   0.00000  Uiso   1.00
C221   C     0.14170   0.71577   0.04964   0.00000  Uiso   1.00
C222   C     0.09127   0.65996   0.37132   0.00000  Uiso   1.00
C223   C     0.20742   0.77070   0.45253   0.00000  Uiso   1.00
C224   C     0.14126   0.71701   0.09906   0.00000  Uiso   1.00
C225   C     0.20595   0.77104   0.40282   0.00000  Uiso   1.00
C226   C     0.19397   0.78221   0.10603   0.00000  Uiso   1.00
C227   C     0.12834   0.72747   0.39268   0.00000  Uiso   1.00
C228   C     0.19282   0.78327   0.05593   0.00000  Uiso   1.00
H229   H     0.32487   0.74805   0.19462   0.00000  Uiso   1.00
H230   H     0.12946   0.96958   0.31481   0.00000  Uiso   1.00
H231   H     0.12237   0.68817   0.02980   0.00000  Uiso   1.00
H232   H     0.24025   0.78665   0.47420   0.00000  Uiso   1.00
H233   H     0.12091   0.69116   0.11583   0.00000  Uiso   1.00
H234   H     0.23672   0.78786   0.38745   0.00000  Uiso   1.00
H235   H     0.21101   0.81090   0.04003   0.00000  Uiso   1.00
H236   H     0.09430   0.71304   0.45594   0.00000  Uiso   1.00
H237   H     0.29454   0.83643   0.15831   0.00000  Uiso   1.00
H238   H     0.27234   0.84490   0.09624   0.00000  Uiso   1.00
H239   H     0.29095   0.78938   0.11937   0.00000  Uiso   1.00
H240   H     0.00843   0.75161   0.30545   0.00000  Uiso   1.00
H241   H     0.06660   0.64282   0.34141   0.00000  Uiso   1.00
H242   H     0.13184   0.64669   0.37320   0.00000  Uiso   1.00
H243   H     0.07499   0.65164   0.40440   0.00000  Uiso   1.00
H244   H     0.19673   0.52879   0.32421   0.00000  Uiso   1.00
H245   H     0.19679   0.97157   0.18402   0.00000  Uiso   1.00
H246   H     0.19807   0.60993   0.32462   0.00000  Uiso   1.00
H247   H     0.19808   0.89048   0.18380   0.00000  Uiso   1.00
H248   H     0.13181   0.61122   0.17542   0.00000  Uiso   1.00
H249   H     0.13207   0.88849   0.31541   0.00000  Uiso   1.00
H250   H     0.12929   0.53009   0.17543   0.00000  Uiso   1.00
N251   N     0.16667   0.74999   0.12623   0.00000  Uiso   1.00
N252   N     0.16667   0.75001   0.37376   0.00000  Uiso   1.00
O253   O     0.16667   0.68454   0.28974   0.00000  Uiso   1.00
O254   O     0.08910   0.70624   0.36241   0.00000  Uiso   1.00
O255   O     0.16666   0.81547   0.21026   0.00000  Uiso   1.00
O256   O     0.16667   0.68453   0.21026   0.00000  Uiso   1.00
O257   O     0.16666   0.81547   0.28974   0.00000  Uiso   1.00
O258   O     0.09058   0.75000   0.28044   0.00000  Uiso   1.00
O259   O     0.24275   0.75000   0.21955   0.00000  Uiso   1.00
O260   O     0.09058   0.75000   0.20096   0.00000  Uiso   1.00
O261   O     0.24275   0.75001   0.29903   0.00000  Uiso   1.00
O262   O     0.21939   0.81493   0.13524   0.00000  Uiso   1.00
Zn263  Zn    0.16667   0.75001   0.30307   0.00000  Uiso   1.00
Zn264  Zn    0.16667   0.75000   0.19693   0.00000  Uiso   1.00
C265   C     0.49974   0.66391   0.25005   0.00000  Uiso   1.00
C266   C     0.46046   0.72837   0.44231   0.00000  Uiso   1.00
C267   C     0.50061   0.74948   0.02683   0.00000  Uiso   1.00
C268   C     0.50065   0.74953   0.47341   0.00000  Uiso   1.00
C269   C     0.40038   0.74987   0.23759   0.00000  Uiso   1.00
C270   C     0.59962   0.75006   0.26242   0.00000  Uiso   1.00
C271   C     0.34539   0.74939   0.23090   0.00000  Uiso   1.00
C272   C     0.65461   0.75037   0.26914   0.00000  Uiso   1.00
C273   C     0.51522   0.54669   0.29185   0.00000  Uiso   1.00
C274   C     0.51533   0.95352   0.21241   0.00000  Uiso   1.00
C275   C     0.51614   0.59269   0.29203   0.00000  Uiso   1.00
C276   C     0.49984   0.83610   0.24991   0.00000  Uiso   1.00
C277   C     0.51626   0.90753   0.21240   0.00000  Uiso   1.00
C278   C     0.49851   0.61602   0.25003   0.00000  Uiso   1.00
C279   C     0.49867   0.88400   0.24967   0.00000  Uiso   1.00
C280   C     0.47943   0.59340   0.20798   0.00000  Uiso   1.00
C281   C     0.47965   0.90644   0.28667   0.00000  Uiso   1.00
C282   C     0.47803   0.54742   0.20794   0.00000  Uiso   1.00
C283   C     0.47820   0.95241   0.28640   0.00000  Uiso   1.00
C284   C     0.49621   0.52406   0.24979   0.00000  Uiso   1.00
C285   C     0.49630   0.97596   0.24940   0.00000  Uiso   1.00
C286   C     0.60473   0.82126   0.12628   0.00000  Uiso   1.00
C287   C     0.47503   0.71577   0.04964   0.00000  Uiso   1.00
C288   C     0.42460   0.65996   0.37132   0.00000  Uiso   1.00
C289   C     0.54075   0.77070   0.45253   0.00000  Uiso   1.00
C290   C     0.47459   0.71701   0.09906   0.00000  Uiso   1.00
C291   C     0.53928   0.77104   0.40282   0.00000  Uiso   1.00
C292   C     0.52730   0.78221   0.10603   0.00000  Uiso   1.00
C293   C     0.46168   0.72747   0.39268   0.00000  Uiso   1.00
C294   C     0.52615   0.78327   0.05593   0.00000  Uiso   1.00
H295   H     0.65821   0.74805   0.19462   0.00000  Uiso   1.00
H296   H     0.46280   0.96958   0.31481   0.00000  Uiso   1.00
H297   H     0.45570   0.68817   0.02980   0.00000  Uiso   1.00
H298   H     0.57358   0.78665   0.47420   0.00000  Uiso   1.00
H299   H     0.45424   0.69116   0.11583   0.00000  Uiso   1.00
H300   H     0.57005   0.78786   0.38745   0.00000  Uiso   1.00
H301   H     0.54434   0.81090   0.04003   0.00000  Uiso   1.00
H302   H     0.42764   0.71304   0.45594   0.00000  Uiso   1.00
H303   H     0.62787   0.83643   0.15831   0.00000  Uiso   1.00
H304   H     0.60568   0.84490   0.09624   0.00000  Uiso   1.00
H305   H     0.62428   0.78938   0.11937   0.00000  Uiso   1.00
H306   H     0.34177   0.75161   0.30545   0.00000  Uiso   1.00
H307   H     0.39993   0.64282   0.34141   0.00000  Uiso   1.00
H308   H     0.46518   0.64669   0.37320   0.00000  Uiso   1.00
H309   H     0.40832   0.65164   0.40440   0.00000  Uiso   1.00
H310   H     0.53007   0.52879   0.32421   0.00000  Uiso   1.00
H311   H     0.53013   0.97157   0.18402   0.00000  Uiso   1.00
H312   H     0.53141   0.60993   0.32462   0.00000  Uiso   1.00
H313   H     0.53141   0.89048   0.18380   0.00000  Uiso   1.00
H314   H     0.46515   0.61122   0.17542   0.00000  Uiso   1.00
H315   H     0.46540   0.88849   0.31541   0.00000  Uiso   1.00
H316   H     0.46262   0.53009   0.17543   0.00000  Uiso   1.00
N317   N     0.50000   0.74999   0.12623   0.00000  Uiso   1.00
N318   N     0.50000   0.75001   0.37376   0.00000  Uiso   1.00
O319   O     0.50000   0.68454   0.28974   0.00000  Uiso   1.00
O320   O     0.42244   0.70624   0.36241   0.00000  Uiso   1.00
O321   O     0.50000   0.81547   0.21026   0.00000  Uiso   1.00
O322   O     0.50000   0.68453   0.21026   0.00000  Uiso   1.00
O323   O     0.50000   0.81547   0.28974   0.00000  Uiso   1.00
O324   O     0.42392   0.75000   0.28044   0.00000  Uiso   1.00
O325   O     0.57608   0.75000   0.21955   0.00000  Uiso   1.00
O326   O     0.42392   0.75000   0.20096   0.00000  Uiso   1.00
O327   O     0.57608   0.75001   0.29903   0.00000  Uiso   1.00
O328   O     0.55272   0.81493   0.13524   0.00000  Uiso   1.00
Zn329  Zn    0.50000   0.75001   0.30307   0.00000  Uiso   1.00
Zn330  Zn    0.50000   0.75000   0.19693   0.00000  Uiso   1.00
C331   C     0.83308   0.66391   0.25005   0.00000  Uiso   1.00
C332   C     0.79380   0.72837   0.44231   0.00000  Uiso   1.00
C333   C     0.83394   0.74948   0.02683   0.00000  Uiso   1.00
C334   C     0.83398   0.74953   0.47341   0.00000  Uiso   1.00
C335   C     0.73371   0.74987   0.23759   0.00000  Uiso   1.00
C336   C     0.93295   0.75006   0.26242   0.00000  Uiso   1.00
C337   C     0.67872   0.74939   0.23090   0.00000  Uiso   1.00
C338   C     0.98795   0.75037   0.26914   0.00000  Uiso   1.00
C339   C     0.84855   0.54669   0.29185   0.00000  Uiso   1.00
C340   C     0.84867   0.95352   0.21241   0.00000  Uiso   1.00
C341   C     0.84947   0.59269   0.29203   0.00000  Uiso   1.00
C342   C     0.83317   0.83610   0.24991   0.00000  Uiso   1.00
C343   C     0.84959   0.90753   0.21240   0.00000  Uiso   1.00
C344   C     0.83184   0.61602   0.25003   0.00000  Uiso   1.00
C345   C     0.83200   0.88400   0.24967   0.00000  Uiso   1.00
C346   C     0.81276   0.59340   0.20798   0.00000  Uiso   1.00
C347   C     0.81299   0.90644   0.28667   0.00000  Uiso   1.00
C348   C     0.81136   0.54742   0.20794   0.00000  Uiso   1.00
C349   C     0.81154   0.95241   0.28640   0.00000  Uiso   1.00
C350   C     0.82954   0.52406   0.24979   0.00000  Uiso   1.00
C351   C     0.82963   0.97596   0.24940   0.00000  Uiso   1.00
C352   C     0.93806   0.82126   0.12628   0.00000  Uiso   1.00
C353   C     0.80837   0.71577   0.04964   0.00000  Uiso   1.00
C354   C     0.75794   0.65996   0.37132   0.00000  Uiso   1.00
C355   C     0.87408   0.77070   0.45253   0.00000  Uiso   1.00
C356   C     0.80793   0.71701   0.09906   0.00000  Uiso   1.00
C357   C     0.87262   0.77104   0.40282   0.00000  Uiso   1.00
C358   C     0.86064   0.78221   0.10603   0.00000  Uiso   1.00
C359   C     0.79501   0.72747   0.39268   0.00000  Uiso   1.00
C360   C     0.85948   0.78327   0.05593   0.00000  Uiso   1.00
H361   H     0.99154   0.74805   0.19462   0.00000  Uiso   1.00
H362   H     0.79613   0.96958   0.31481   0.00000  Uiso   1.00
H363   H     0.78903   0.68817   0.02980   0.00000  Uiso   1.00
H364   H     0.90692   0.78665   0.47420   0.00000  Uiso   1.00
H365   H     0.78758   0.69116   0.11583   0.00000  Uiso   1.00
H366   H     0.90338   0.78786   0.38745   0.00000  Uiso   1.00
H367   H     0.87768   0.81090   0.04003   0.00000  Uiso   1.00
H368   H     0.76097   0.71304   0.45594   0.00000  Uiso   1.00
H369   H     0.96120   0.83643   0.15831   0.00000  Uiso   1.00
H370   H     0.93901   0.84490   0.09624   0.00000  Uiso   1.00
H371   H     0.95762   0.78938   0.11937   0.00000  Uiso   1.00
H372   H     0.67510   0.75161   0.30545   0.00000  Uiso   1.00
H373   H     0.73327   0.64282   0.34141   0.00000  Uiso   1.00
H374   H     0.79851   0.64669   0.37320   0.00000  Uiso   1.00
H375   H     0.74166   0.65164   0.40440   0.00000  Uiso   1.00
H376   H     0.86340   0.52879   0.32421   0.00000  Uiso   1.00
H377   H     0.86346   0.97157   0.18402   0.00000  Uiso   1.00
H378   H     0.86474   0.60993   0.32462   0.00000  Uiso   1.00
H379   H     0.86474   0.89048   0.18380   0.00000  Uiso   1.00
H380   H     0.79848   0.61122   0.17542   0.00000  Uiso   1.00
H381   H     0.79873   0.88849   0.31541   0.00000  Uiso   1.00
H382   H     0.79596   0.53009   0.17543   0.00000  Uiso   1.00
N383   N     0.83333   0.74999   0.12623   0.00000  Uiso   1.00
N384   N     0.83333   0.75001   0.37376   0.00000  Uiso   1.00
O385   O     0.83334   0.68454   0.28974   0.00000  Uiso   1.00
O386   O     0.75577   0.70624   0.36241   0.00000  Uiso   1.00
O387   O     0.83333   0.81547   0.21026   0.00000  Uiso   1.00
O388   O     0.83334   0.68453   0.21026   0.00000  Uiso   1.00
O389   O     0.83333   0.81547   0.28974   0.00000  Uiso   1.00
O390   O     0.75725   0.75000   0.28044   0.00000  Uiso   1.00
O391   O     0.90942   0.75000   0.21955   0.00000  Uiso   1.00
O392   O     0.75725   0.75000   0.20096   0.00000  Uiso   1.00
O393   O     0.90942   0.75001   0.29903   0.00000  Uiso   1.00
O394   O     0.88606   0.81493   0.13524   0.00000  Uiso   1.00
Zn395  Zn    0.83333   0.75001   0.30307   0.00000  Uiso   1.00
Zn396  Zn    0.83333   0.75000   0.19693   0.00000  Uiso   1.00
C397   C     0.16641   0.16391   0.75005   0.00000  Uiso   1.00
C398   C     0.12713   0.22837   0.94231   0.00000  Uiso   1.00
C399   C     0.16728   0.24948   0.52683   0.00000  Uiso   1.00
C400   C     0.16732   0.24953   0.97341   0.00000  Uiso   1.00
C401   C     0.06704   0.24987   0.73759   0.00000  Uiso   1.00
C402   C     0.26629   0.25006   0.76242   0.00000  Uiso   1.00
C403   C     0.01205   0.24939   0.73090   0.00000  Uiso   1.00
C404   C     0.32128   0.25037   0.76914   0.00000  Uiso   1.00
C405   C     0.18189   0.04669   0.79185   0.00000  Uiso   1.00
C406   C     0.18200   0.45352   0.71241   0.00000  Uiso   1.00
C407   C     0.18281   0.09269   0.79203   0.00000  Uiso   1.00
C408   C     0.16650   0.33610   0.74991   0.00000  Uiso   1.00
C409   C     0.18292   0.40753   0.71240   0.00000  Uiso   1.00
C410   C     0.16518   0.11602   0.75003   0.00000  Uiso   1.00
C411   C     0.16534   0.38400   0.74967   0.00000  Uiso   1.00
C412   C     0.14610   0.09340   0.70798   0.00000  Uiso   1.00
C413   C     0.14632   0.40644   0.78667   0.00000  Uiso   1.00
C414   C     0.14469   0.04742   0.70794   0.00000  Uiso   1.00
C415   C     0.14487   0.45241   0.78640   0.00000  Uiso   1.00
C416   C     0.16287   0.02406   0.74979   0.00000  Uiso   1.00
C417   C     0.16297   0.47596   0.74940   0.00000  Uiso   1.00
C418   C     0.27139   0.32126   0.62628   0.00000  Uiso   1.00
C419   C     0.14170   0.21577   0.54964   0.00000  Uiso   1.00
C420   C     0.09127   0.15996   0.87132   0.00000  Uiso   1.00
C421   C     0.20742   0.27070   0.95253   0.00000  Uiso   1.00
C422   C     0.14126   0.21701   0.59906   0.00000  Uiso   1.00
C423   C     0.20595   0.27104   0.90282   0.00000  Uiso   1.00
C424   C     0.19397   0.28221   0.60603   0.00000  Uiso   1.00
C425   C     0.12834   0.22747   0.89268   0.00000  Uiso   1.00
C426   C     0.19282   0.28327   0.55593   0.00000  Uiso   1.00
H427   H     0.32487   0.24805   0.69462   0.00000  Uiso   1.00
H428   H     0.12946   0.46958   0.81481   0.00000  Uiso   1.00
H429   H     0.12237   0.18817   0.52980   0.00000  Uiso   1.00
H430   H     0.24025   0.28665   0.97420   0.00000  Uiso   1.00
H431   H     0.12091   0.19116   0.61583   0.00000  Uiso   1.00
H432   H     0.23672   0.28786   0.88745   0.00000  Uiso   1.00
H433   H     0.21101   0.31090   0.54003   0.00000  Uiso   1.00
H434   H     0.09430   0.21304   0.95594   0.00000  Uiso   1.00
H435   H     0.29454   0.33643   0.65831   0.00000  Uiso   1.00
H436   H     0.27234   0.34490   0.59624   0.00000  Uiso   1.00
H437   H     0.29095   0.28938   0.61937   0.00000  Uiso   1.00
H438   H     0.00843   0.25161   0.80545   0.00000  Uiso   1.00
H439   H     0.06660   0.14282   0.84141   0.00000  Uiso   1.00
H440   H     0.13184   0.14669   0.87320   0.00000  Uiso   1.00
H441   H     0.07499   0.15164   0.90440   0.00000  Uiso   1.00
H442   H     0.19673   0.02879   0.82421   0.00000  Uiso   1.00
H443   H     0.19679   0.47157   0.68402   0.00000  Uiso   1.00
H444   H     0.19807   0.10993   0.82462   0.00000  Uiso   1.00
H445   H     0.19808   0.39048   0.68380   0.00000  Uiso   1.00
H446   H     0.13181   0.11122   0.67542   0.00000  Uiso   1.00
H447   H     0.13207   0.38849   0.81541   0.00000  Uiso   1.00
H448   H     0.12929   0.03009   0.67543   0.00000  Uiso   1.00
N449   N     0.16667   0.24999   0.62623   0.00000  Uiso   1.00
N450   N     0.16667   0.25001   0.87376   0.00000  Uiso   1.00
O451   O     0.16667   0.18454   0.78974   0.00000  Uiso   1.00
O452   O     0.08910   0.20624   0.86241   0.00000  Uiso   1.00
O453   O     0.16666   0.31547   0.71026   0.00000  Uiso   1.00
O454   O     0.16667   0.18453   0.71026   0.00000  Uiso   1.00
O455   O     0.16666   0.31547   0.78974   0.00000  Uiso   1.00
O456   O     0.09058   0.25000   0.78044   0.00000  Uiso   1.00
O457   O     0.24275   0.25000   0.71955   0.00000  Uiso   1.00
O458   O     0.09058   0.25000   0.70096   0.00000  Uiso   1.00
O459   O     0.24275   0.25001   0.79903   0.00000  Uiso   1.00
O460   O     0.21939   0.31493   0.63524   0.00000  Uiso   1.00
Zn461  Zn    0.16667   0.25001   0.80307   0.00000  Uiso   1.00
Zn462  Zn    0.16667   0.25000   0.69693   0.00000  Uiso   1.00
C463   C     0.49974   0.16391   0.75005   0.00000  Uiso   1.00
C464   C     0.46046   0.22837   0.94231   0.00000  Uiso   1.00
C465   C     0.50061   0.24948   0.52683   0.00000  Uiso   1.00
C466   C     0.50065   0.24953   0.97341   0.00000  Uiso   1.00
C467   C     0.40038   0.24987   0.73759   0.00000  Uiso   1.00
C468   C     0.59962   0.25006   0.76242   0.00000  Uiso   1.00
C469   C     0.34539   0.24939   0.73090   0.00000  Uiso   1.00
C470   C     0.65461   0.25037   0.76914   0.00000  Uiso   1.00
C471   C     0.51522   0.04669   0.79185   0.00000  Uiso   1.00
C472   C     0.51533   0.45352   0.71241   0.00000  Uiso   1.00
C473   C     0.51614   0.09269   0.79203   0.00000  Uiso   1.00
C474   C     0.49984   0.33610   0.74991   0.00000  Uiso   1.00
C475   C     0.51626   0.40753   0.71240   0.00000  Uiso   1.00
C476   C     0.49851   0.11602   0.75003   0.00000  Uiso   1.00
C477   C     0.49867   0.38400   0.74967   0.00000  Uiso   1.00
C478   C     0.47943   0.09340   0.70798   0.00000  Uiso   1.00
C479   C     0.47965   0.40644   0.78667   0.00000  Uiso   1.00
C480   C     0.47803   0.04742   0.70794   0.00000  Uiso   1.00
C481   C     0.47820   0.45241   0.78640   0.00000  Uiso   1.00
C482   C     0.49621   0.02406   0.74979   0.00000  Uiso   1.00
C483   C     0.49630   0.47596   0.74940   0.00000  Uiso   1.00
C484   C     0.60473   0.32126   0.62628   0.00000  Uiso   1.00
C485   C     0.47503   0.21577   0.54964   0.00000  Uiso   1.00
C486   C     0.42460   0.15996   0.87132   0.00000  Uiso   1.00
C487   C     0.54075   0.27070   0.95253   0.00000  Uiso   1.00
C488   C     0.47459   0.21701   0.59906   0.00000  Uiso   1.00
C489   C     0.53928   0.27104   0.90282   0.00000  Uiso   1.00
C490   C     0.52730   0.28221   0.60603   0.00000  Uiso   1.00
C491   C     0.46168   0.22747   0.89268   0.00000  Uiso   1.00
C492   C     0.52615   0.28327   0.55593   0.00000  Uiso   1.00
H493   H     0.65821   0.24805   0.69462   0.00000  Uiso   1.00
H494   H     0.46280   0.46958   0.81481   0.00000  Uiso   1.00
H495   H     0.45570   0.18817   0.52980   0.00000  Uiso   1.00
H496   H     0.57358   0.28665   0.97420   0.00000  Uiso   1.00
H497   H     0.45424   0.19116   0.61583   0.00000  Uiso   1.00
H498   H     0.57005   0.28786   0.88745   0.00000  Uiso   1.00
H499   H     0.54434   0.31090   0.54003   0.00000  Uiso   1.00
H500   H     0.42764   0.21304   0.95594   0.00000  Uiso   1.00
H501   H     0.62787   0.33643   0.65831   0.00000  Uiso   1.00
H502   H     0.60568   0.34490   0.59624   0.00000  Uiso   1.00
H503   H     0.62428   0.28938   0.61937   0.00000  Uiso   1.00
H504   H     0.34177   0.25161   0.80545   0.00000  Uiso   1.00
H505   H     0.39993   0.14282   0.84141   0.00000  Uiso   1.00
H506   H     0.46518   0.14669   0.87320   0.00000  Uiso   1.00
H507   H     0.40832   0.15164   0.90440   0.00000  Uiso   1.00
H508   H     0.53007   0.02879   0.82421   0.00000  Uiso   1.00
H509   H     0.53013   0.47157   0.68402   0.00000  Uiso   1.00
H510   H     0.53141   0.10993   0.82462   0.00000  Uiso   1.00
H511   H     0.53141   0.39048   0.68380   0.00000  Uiso   1.00
H512   H     0.46515   0.11122   0.67542   0.00000  Uiso   1.00
H513   H     0.46540   0.38849   0.81541   0.00000  Uiso   1.00
H514   H     0.46262   0.03009   0.67543   0.00000  Uiso   1.00
N515   N     0.50000   0.24999   0.62623   0.00000  Uiso   1.00
N516   N     0.50000   0.25001   0.87376   0.00000  Uiso   1.00
O517   O     0.50000   0.18454   0.78974   0.00000  Uiso   1.00
O518   O     0.42244   0.20624   0.86241   0.00000  Uiso   1.00
O519   O     0.50000   0.31547   0.71026   0.00000  Uiso   1.00
O520   O     0.50000   0.18453   0.71026   0.00000  Uiso   1.00
O521   O     0.50000   0.31547   0.78974   0.00000  Uiso   1.00
O522   O     0.42392   0.25000   0.78044   0.00000  Uiso   1.00
O523   O     0.57608   0.25000   0.71955   0.00000  Uiso   1.00
O524   O     0.42392   0.25000   0.70096   0.00000  Uiso   1.00
O525   O     0.57608   0.25001   0.79903   0.00000  Uiso   1.00
O526   O     0.55272   0.31493   0.63524   0.00000  Uiso   1.00
Zn527  Zn    0.50000   0.25001   0.80307   0.00000  Uiso   1.00
Zn528  Zn    0.50000   0.25000   0.69693   0.00000  Uiso   1.00
C529   C     0.83308   0.16391   0.75005   0.00000  Uiso   1.00
C530   C     0.79380   0.22837   0.94231   0.00000  Uiso   1.00
C531   C     0.83394   0.24948   0.52683   0.00000  Uiso   1.00
C532   C     0.83398   0.24953   0.97341   0.00000  Uiso   1.00
C533   C     0.73371   0.24987   0.73759   0.00000  Uiso   1.00
C534   C     0.93295   0.25006   0.76242   0.00000  Uiso   1.00
C535   C     0.67872   0.24939   0.73090   0.00000  Uiso   1.00
C536   C     0.98795   0.25037   0.76914   0.00000  Uiso   1.00
C537   C     0.84855   0.04669   0.79185   0.00000  Uiso   1.00
C538   C     0.84867   0.45352   0.71241   0.00000  Uiso   1.00
C539   C     0.84947   0.09269   0.79203   0.00000  Uiso   1.00
C540   C     0.83317   0.33610   0.74991   0.00000  Uiso   1.00
C541   C     0.84959   0.40753   0.71240   0.00000  Uiso   1.00
C542   C     0.83184   0.11602   0.75003   0.00000  Uiso   1.00
C543   C     0.83200   0.38400   0.74967   0.00000  Uiso   1.00
C544   C     0.81276   0.09340   0.70798   0.00000  Uiso   1.00
C545   C     0.81299   0.40644   0.78667   0.00000  Uiso   1.00
C546   C     0.81136   0.04742   0.70794   0.00000  Uiso   1.00
C547   C     0.81154   0.45241   0.78640   0.00000  Uiso   1.00
C548   C     0.82954   0.02406   0.74979   0.00000  Uiso   1.00
C549   C     0.82963   0.47596   0.74940   0.00000  Uiso   1.00
C550   C     0.93806   0.32126   0.62628   0.00000  Uiso   1.00
C551   C     0.80837   0.21577   0.54964   0.00000  Uiso   1.00
C552   C     0.75794   0.15996   0.87132   0.00000  Uiso   1.00
C553   C     0.87408   0.27070   0.95253   0.00000  Uiso   1.00
C554   C     0.80793   0.21701   0.59906   0.00000  Uiso   1.00
C555   C     0.87262   0.27104   0.90282   0.00000  Uiso   1.00
C556   C     0.86064   0.28221   0.60603   0.00000  Uiso   1.00
C557   C     0.79501   0.22747   0.89268   0.00000  Uiso   1.00
C558   C     0.85948   0.28327   0.55593   0.00000  Uiso   1.00
H559   H     0.99154   0.24805   0.69462   0.00000  Uiso   1.00
H560   H     0.79613   0.46958   0.81481   0.00000  Uiso   1.00
H561   H     0.78903   0.18817   0.52980   0.00000  Uiso   1.00
H562   H     0.90692   0.28665   0.97420   0.00000  Uiso   1.00
H563   H     0.78758   0.19116   0.61583   0.00000  Uiso   1.00
H564   H     0.90338   0.28786   0.88745   0.00000  Uiso   1.00
H565   H     0.87768   0.31090   0.54003   0.00000  Uiso   1.00
H566   H     0.76097   0.21304   0.95594   0.00000  Uiso   1.00
H567   H     0.96120   0.33643   0.65831   0.00000  Uiso   1.00
H568   H     0.93901   0.34490   0.59624   0.00000  Uiso   1.00
H569   H     0.95762   0.28938   0.61937   0.00000  Uiso   1.00
H570   H     0.67510   0.25161   0.80545   0.00000  Uiso   1.00
H571   H     0.73327   0.14282   0.84141   0.00000  Uiso   1.00
H572   H     0.79851   0.14669   0.87320   0.00000  Uiso   1.00
H573   H     0.74166   0.15164   0.90440   0.00000  Uiso   1.00
H574   H     0.86340   0.02879   0.82421   0.00000  Uiso   1.00
H575   H     0.86346   0.47157   0.68402   0.00000  Uiso   1.00
H576   H     0.86474   0.10993   0.82462   0.00000  Uiso   1.00
H577   H     0.86474   0.39048   0.68380   0.00000  Uiso   1.00
H578   H     0.79848   0.11122   0.67542   0.00000  Uiso   1.00
H579   H     0.79873   0.38849   0.81541   0.00000  Uiso   1.00
H580   H     0.79596   0.03009   0.67543   0.00000  Uiso   1.00
N581   N     0.83333   0.24999   0.62623   0.00000  Uiso   1.00
N582   N     0.83333   0.25001   0.87376   0.00000  Uiso   1.00
O583   O     0.83334   0.18454   0.78974   0.00000  Uiso   1.00
O584   O     0.75577   0.20624   0.86241   0.00000  Uiso   1.00
O585   O     0.83333   0.31547   0.71026   0.00000  Uiso   1.00
O586   O     0.83334   0.18453   0.71026   0.00000  Uiso   1.00
O587   O     0.83333   0.31547   0.78974   0.00000  Uiso   1.00
O588   O     0.75725   0.25000   0.78044   0.00000  Uiso   1.00
O589   O     0.90942   0.25000   0.71955   0.00000  Uiso   1.00
O590   O     0.75725   0.25000   0.70096   0.00000  Uiso   1.00
O591   O     0.90942   0.25001   0.79903   0.00000  Uiso   1.00
O592   O     0.88606   0.31493   0.63524   0.00000  Uiso   1.00
Zn593  Zn    0.83333   0.25001   0.80307   0.00000  Uiso   1.00
Zn594  Zn    0.83333   0.25000   0.69693   0.00000  Uiso   1.00
C595   C     0.16641   0.66391   0.75005   0.00000  Uiso   1.00
C596   C     0.12713   0.72837   0.94231   0.00000  Uiso   1.00
C597   C     0.16728   0.74948   0.52683   0.00000  Uiso   1.00
C598   C     0.16732   0.74953   0.97341   0.00000  Uiso   1.00
C599   C     0.06704   0.74987   0.73759   0.00000  Uiso   1.00
C600   C     0.26629   0.75006   0.76242   0.00000  Uiso   1.00
C601   C     0.01205   0.74939   0.73090   0.00000  Uiso   1.00
C602   C     0.32128   0.75037   0.76914   0.00000  Uiso   1.00
C603   C     0.18189   0.54669   0.79185   0.00000  Uiso   1.00
C604   C     0.18200   0.95352   0.71241   0.00000  Uiso   1.00
C605   C     0.18281   0.59269   0.79203   0.00000  Uiso   1.00
C606   C     0.16650   0.83610   0.74991   0.00000  Uiso   1.00
C607   C     0.18292   0.90753   0.71240   0.00000  Uiso   1.00
C608   C     0.16518   0.61602   0.75003   0.00000  Uiso   1.00
C609   C     0.16534   0.88400   0.74967   0.00000  Uiso   1.00
C610   C     0.14610   0.59340   0.70798   0.00000  Uiso   1.00
C611   C     0.14632   0.90644   0.78667   0.00000  Uiso   1.00
C612   C     0.14469   0.54742   0.70794   0.00000  Uiso   1.00
C613   C     0.14487   0.95241   0.78640   0.00000  Uiso   1.00
C614   C     0.16287   0.52406   0.74979   0.00000  Uiso   1.00
C615   C     0.16297   0.97596   0.74940   0.00000  Uiso   1.00
C616   C     0.27139   0.82126   0.62628   0.00000  Uiso   1.00
C617   C     0.14170   0.71577   0.54964   0.00000  Uiso   1.00
C618   C     0.09127   0.65996   0.87132   0.00000  Uiso   1.00
C619   C     0.20742   0.77070   0.95253   0.00000  Uiso   1.00
C620   C     0.14126   0.71701   0.59906   0.00000  Uiso   1.00
C621   C     0.20595   0.77104   0.90282   0.00000  Uiso   1.00
C622   C     0.19397   0.78221   0.60603   0.00000  Uiso   1.00
C623   C     0.12834   0.72747   0.89268   0.00000  Uiso   1.00
C624   C     0.19282   0.78327   0.55593   0.00000  Uiso   1.00
H625   H     0.32487   0.74805   0.69462   0.00000  Uiso   1.00
H626   H     0.12946   0.96958   0.81481   0.00000  Uiso   1.00
H627   H     0.12237   0.68817   0.52980   0.00000  Uiso   1.00
H628   H     0.24025   0.78665   0.97420   0.00000  Uiso   1.00
H629   H     0.12091   0.69116   0.61583   0.00000  Uiso   1.00
H630   H     0.23672   0.78786   0.88745   0.00000  Uiso   1.00
H631   H     0.21101   0.81090   0.54003   0.00000  Uiso   1.00
H632   H     0.09430   0.71304   0.95594   0.00000  Uiso   1.00
H633   H     0.29454   0.83643   0.65831   0.00000  Uiso   1.00
H634   H     0.27234   0.84490   0.59624   0.00000  Uiso   1.00
H635   H     0.29095   0.78938   0.61937   0.00000  Uiso   1.00
H636   H     0.00843   0.75161   0.80545   0.00000  Uiso   1.00
H637   H     0.06660   0.64282   0.84141   0.00000  Uiso   1.00
H638   H     0.13184   0.64669   0.87320   0.00000  Uiso   1.00
H639   H     0.07499   0.65164   0.90440   0.00000  Uiso   1.00
H640   H     0.19673   0.52879   0.82421   0.00000  Uiso   1.00
H641   H     0.19679   0.97157   0.68402   0.00000  Uiso   1.00
H642   H     0.19807   0.60993   0.82462   0.00000  Uiso   1.00
H643   H     0.19808   0.89048   0.68380   0.00000  Uiso   1.00
H644   H     0.13181   0.61122   0.67542   0.00000  Uiso   1.00
H645   H     0.13207   0.88849   0.81541   0.00000  Uiso   1.00
H646   H     0.12929   0.53009   0.67543   0.00000  Uiso   1.00
N647   N     0.16667   0.74999   0.62623   0.00000  Uiso   1.00
N648   N     0.16667   0.75001   0.87376   0.00000  Uiso   1.00
O649   O     0.16667   0.68454   0.78974   0.00000  Uiso   1.00
O650   O     0.08910   0.70624   0.86241   0.00000  Uiso   1.00
O651   O     0.16666   0.81547   0.71026   0.00000  Uiso   1.00
O652   O     0.16667   0.68453   0.71026   0.00000  Uiso   1.00
O653   O     0.16666   0.81547   0.78974   0.00000  Uiso   1.00
O654   O     0.09058   0.75000   0.78044   0.00000  Uiso   1.00
O655   O     0.24275   0.75000   0.71955   0.00000  Uiso   1.00
O656   O     0.09058   0.75000   0.70096   0.00000  Uiso   1.00
O657   O     0.24275   0.75001   0.79903   0.00000  Uiso   1.00
O658   O     0.21939   0.81493   0.63524   0.00000  Uiso   1.00
Zn659  Zn    0.16667   0.75001   0.80307   0.00000  Uiso   1.00
Zn660  Zn    0.16667   0.75000   0.69693   0.00000  Uiso   1.00
C661   C     0.49974   0.66391   0.75005   0.00000  Uiso   1.00
C662   C     0.46046   0.72837   0.94231   0.00000  Uiso   1.00
C663   C     0.50061   0.74948   0.52683   0.00000  Uiso   1.00
C664   C     0.50065   0.74953   0.97341   0.00000  Uiso   1.00
C665   C     0.40038   0.74987   0.73759   0.00000  Uiso   1.00
C666   C     0.59962   0.75006   0.76242   0.00000  Uiso   1.00
C667   C     0.34539   0.74939   0.73090   0.00000  Uiso   1.00
C668   C     0.65461   0.75037   0.76914   0.00000  Uiso   1.00
C669   C     0.51522   0.54669   0.79185   0.00000  Uiso   1.00
C670   C     0.51533   0.95352   0.71241   0.00000  Uiso   1.00
C671   C     0.51614   0.59269   0.79203   0.00000  Uiso   1.00
C672   C     0.49984   0.83610   0.74991   0.00000  Uiso   1.00
C673   C     0.51626   0.90753   0.71240   0.00000  Uiso   1.00
C674   C     0.49851   0.61602   0.75003   0.00000  Uiso   1.00
C675   C     0.49867   0.88400   0.74967   0.00000  Uiso   1.00
C676   C     0.47943   0.59340   0.70798   0.00000  Uiso   1.00
C677   C     0.47965   0.90644   0.78667   0.00000  Uiso   1.00
C678   C     0.47803   0.54742   0.70794   0.00000  Uiso   1.00
C679   C     0.47820   0.95241   0.78640   0.00000  Uiso   1.00
C680   C     0.49621   0.52406   0.74979   0.00000  Uiso   1.00
C681   C     0.49630   0.97596   0.74940   0.00000  Uiso   1.00
C682   C     0.60473   0.82126   0.62628   0.00000  Uiso   1.00
C683   C     0.47503   0.71577   0.54964   0.00000  Uiso   1.00
C684   C     0.42460   0.65996   0.87132   0.00000  Uiso   1.00
C685   C     0.54075   0.77070   0.95253   0.00000  Uiso   1.00
C686   C     0.47459   0.71701   0.59906   0.00000  Uiso   1.00
C687   C     0.53928   0.77104   0.90282   0.00000  Uiso   1.00
C688   C     0.52730   0.78221   0.60603   0.00000  Uiso   1.00
C689   C     0.46168   0.72747   0.89268   0.00000  Uiso   1.00
C690   C     0.52615   0.78327   0.55593   0.00000  Uiso   1.00
H691   H     0.65821   0.74805   0.69462   0.00000  Uiso   1.00
H692   H     0.46280   0.96958   0.81481   0.00000  Uiso   1.00
H693   H     0.45570   0.68817   0.52980   0.00000  Uiso   1.00
H694   H     0.57358   0.78665   0.97420   0.00000  Uiso   1.00
H695   H     0.45424   0.69116   0.61583   0.00000  Uiso   1.00
H696   H     0.57005   0.78786   0.88745   0.00000  Uiso   1.00
H697   H     0.54434   0.81090   0.54003   0.00000  Uiso   1.00
H698   H     0.42764   0.71304   0.95594   0.00000  Uiso   1.00
H699   H     0.62787   0.83643   0.65831   0.00000  Uiso   1.00
H700   H     0.60568   0.84490   0.59624   0.00000  Uiso   1.00
H701   H     0.62428   0.78938   0.61937   0.00000  Uiso   1.00
H702   H     0.34177   0.75161   0.80545   0.00000  Uiso   1.00
H703   H     0.39993   0.64282   0.84141   0.00000  Uiso   1.00
H704   H     0.46518   0.64669   0.87320   0.00000  Uiso   1.00
H705   H     0.40832   0.65164   0.90440   0.00000  Uiso   1.00
H706   H     0.53007   0.52879   0.82421   0.00000  Uiso   1.00
H707   H     0.53013   0.97157   0.68402   0.00000  Uiso   1.00
H708   H     0.53141   0.60993   0.82462   0.00000  Uiso   1.00
H709   H     0.53141   0.89048   0.68380   0.00000  Uiso   1.00
H710   H     0.46515   0.61122   0.67542   0.00000  Uiso   1.00
H711   H     0.46540   0.88849   0.81541   0.00000  Uiso   1.00
H712   H     0.46262   0.53009   0.67543   0.00000  Uiso   1.00
N713   N     0.50000   0.74999   0.62623   0.00000  Uiso   1.00
N714   N     0.50000   0.75001   0.87376   0.00000  Uiso   1.00
O715   O     0.50000   0.68454   0.78974   0.00000  Uiso   1.00
O716   O     0.42244   0.70624   0.86241   0.00000  Uiso   1.00
O717   O     0.50000   0.81547   0.71026   0.00000  Uiso   1.00
O718   O     0.50000   0.68453   0.71026   0.00000  Uiso   1.00
O719   O     0.50000   0.81547   0.78974   0.00000  Uiso   1.00
O720   O     0.42392   0.75000   0.78044   0.00000  Uiso   1.00
O721   O     0.57608   0.75000   0.71955   0.00000  Uiso   1.00
O722   O     0.42392   0.75000   0.70096   0.00000  Uiso   1.00
O723   O     0.57608   0.75001   0.79903   0.00000  Uiso   1.00
O724   O     0.55272   0.81493   0.63524   0.00000  Uiso   1.00
Zn725  Zn    0.50000   0.75001   0.80307   0.00000  Uiso   1.00
Zn726  Zn    0.50000   0.75000   0.69693   0.00000  Uiso   1.00
C727   C     0.83308   0.66391   0.75005   0.00000  Uiso   1.00
C728   C     0.79380   0.72837   0.94231   0.00000  Uiso   1.00
C729   C     0.83394   0.74948   0.52683   0.00000  Uiso   1.00
C730   C     0.83398   0.74953   0.97341   0.00000  Uiso   1.00
C731   C     0.73371   0.74987   0.73759   0.00000  Uiso   1.00
C732   C     0.93295   0.75006   0.76242   0.00000  Uiso   1.00
C733   C     0.67872   0.74939   0.73090   0.00000  Uiso   1.00
C734   C     0.98795   0.75037   0.76914   0.00000  Uiso   1.00
C735   C     0.84855   0.54669   0.79185   0.00000  Uiso   1.00
C736   C     0.84867   0.95352   0.71241   0.00000  Uiso   1.00
C737   C     0.84947   0.59269   0.79203   0.00000  Uiso   1.00
C738   C     0.83317   0.83610   0.74991   0.00000  Uiso   1.00
C739   C     0.84959   0.90753   0.71240   0.00000  Uiso   1.00
C740   C     0.83184   0.61602   0.75003   0.00000  Uiso   1.00
C741   C     0.83200   0.88400   0.74967   0.00000  Uiso   1.00
C742   C     0.81276   0.59340   0.70798   0.00000  Uiso   1.00
C743   C     0.81299   0.90644   0.78667   0.00000  Uiso   1.00
C744   C     0.81136   0.54742   0.70794   0.00000  Uiso   1.00
C745   C     0.81154   0.95241   0.78640   0.00000  Uiso   1.00
C746   C     0.82954   0.52406   0.74979   0.00000  Uiso   1.00
C747   C     0.82963   0.97596   0.74940   0.00000  Uiso   1.00
C748   C     0.93806   0.82126   0.62628   0.00000  Uiso   1.00
C749   C     0.80837   0.71577   0.54964   0.00000  Uiso   1.00
C750   C     0.75794   0.65996   0.87132   0.00000  Uiso   1.00
C751   C     0.87408   0.77070   0.95253   0.00000  Uiso   1.00
C752   C     0.80793   0.71701   0.59906   0.00000  Uiso   1.00
C753   C     0.87262   0.77104   0.90282   0.00000  Uiso   1.00
C754   C     0.86064   0.78221   0.60603   0.00000  Uiso   1.00
C755   C     0.79501   0.72747   0.89268   0.00000  Uiso   1.00
C756   C     0.85948   0.78327   0.55593   0.00000  Uiso   1.00
H757   H     0.99154   0.74805   0.69462   0.00000  Uiso   1.00
H758   H     0.79613   0.96958   0.81481   0.00000  Uiso   1.00
H759   H     0.78903   0.68817   0.52980   0.00000  Uiso   1.00
H760   H     0.90692   0.78665   0.97420   0.00000  Uiso   1.00
H761   H     0.78758   0.69116   0.61583   0.00000  Uiso   1.00
H762   H     0.90338   0.78786   0.88745   0.00000  Uiso   1.00
H763   H     0.87768   0.81090   0.54003   0.00000  Uiso   1.00
H764   H     0.76097   0.71304   0.95594   0.00000  Uiso   1.00
H765   H     0.96120   0.83643   0.65831   0.00000  Uiso   1.00
H766   H     0.93901   0.84490   0.59624   0.00000  Uiso   1.00
H767   H     0.95762   0.78938   0.61937   0.00000  Uiso   1.00
H768   H     0.67510   0.75161   0.80545   0.00000  Uiso   1.00
H769   H     0.73327   0.64282   0.84141   0.00000  Uiso   1.00
H770   H     0.79851   0.64669   0.87320   0.00000  Uiso   1.00
H771   H     0.74166   0.65164   0.90440   0.00000  Uiso   1.00
H772   H     0.86340   0.52879   0.82421   0.00000  Uiso   1.00
H773   H     0.86346   0.97157   0.68402   0.00000  Uiso   1.00
H774   H     0.86474   0.60993   0.82462   0.00000  Uiso   1.00
H775   H     0.86474   0.89048   0.68380   0.00000  Uiso   1.00
H776   H     0.79848   0.61122   0.67542   0.00000  Uiso   1.00
H777   H     0.79873   0.88849   0.81541   0.00000  Uiso   1.00
H778   H     0.79596   0.53009   0.67543   0.00000  Uiso   1.00
N779   N     0.83333   0.74999   0.62623   0.00000  Uiso   1.00
N780   N     0.83333   0.75001   0.87376   0.00000  Uiso   1.00
O781   O     0.83334   0.68454   0.78974   0.00000  Uiso   1.00
O782   O     0.75577   0.70624   0.86241   0.00000  Uiso   1.00
O783   O     0.83333   0.81547   0.71026   0.00000  Uiso   1.00
O784   O     0.83334   0.68453   0.71026   0.00000  Uiso   1.00
O785   O     0.83333   0.81547   0.78974   0.00000  Uiso   1.00
O786   O     0.75725   0.75000   0.78044   0.00000  Uiso   1.00
O787   O     0.90942   0.75000   0.71955   0.00000  Uiso   1.00
O788   O     0.75725   0.75000   0.70096   0.00000  Uiso   1.00
O789   O     0.90942   0.75001   0.79903   0.00000  Uiso   1.00
O790   O     0.88606   0.81493   0.63524   0.00000  Uiso   1.00
Zn791  Zn    0.83333   0.75001   0.80307   0.00000  Uiso   1.00
Zn792  Zn    0.83333   0.75000   0.69693   0.00000  Uiso   1.00
loop_
_geom_bond_atom_site_label_1
_geom_bond_atom_site_label_2
_geom_bond_distance
_geom_bond_site_symmetry_2
_ccdc_geom_bond_type
C1     O55     1.287   .     A
C1     O58     1.287   .     A
C1     C14     1.437   .     S
C2     C4      1.409   .     A
C2     H38     1.081   .     S
C2     C29     1.415   .     A
C3     C30     1.409   .     A
C3     C23     1.411   .     A
C3     C400    1.517   1_554 S
C4     C25     1.412   .     A
C4     C399    1.517   .     S
C5     C7      1.402   .     S
C5     O62     1.279   .     A
C5     O60     1.277   .     A
C6     O63     1.279   .     A
C6     O61     1.277   .     A
C6     C8      1.402   .     S
C7     C140    1.329   1_455 S
C7     H163    1.087   1_455 S
C8     C73     1.329   .     S
C8     H108    1.088   .     S
C9     C20     1.399   .     A
C9     H46     1.083   .     S
C9     C11     1.381   .     A
C10    C21     1.399   .     A
C10    H47     1.083   .     S
C10    C13     1.381   .     A
C11    H48     1.083   .     S
C11    C14     1.399   .     A
C12    C15     1.438   .     S
C12    O57     1.288   .     A
C12    O59     1.287   .     A
C13    H49     1.083   .     S
C13    C15     1.399   .     A
C14    C16     1.399   .     A
C15    C17     1.399   .     A
C16    H50     1.084   .     S
C16    C18     1.380   .     A
C17    H51     1.084   .     S
C17    C19     1.380   .     A
C18    H52     1.083   .     S
C18    C20     1.399   .     A
C19    C21     1.399   .     A
C19    H32     1.083   .     S
C20    C219    1.444   1_545 S
C21    C218    1.444   .     S
C22    H40     1.110   .     S
C22    H41     1.115   .     S
C22    O64     1.412   .     S
C22    H39     1.110   .     S
C23    C26     1.406   .     A
C23    H33     1.081   .     S
C24    H45     1.111   .     S
C24    H44     1.114   .     S
C24    O56     1.411   .     S
C24    H43     1.109   .     S
C25    C27     1.407   .     A
C25    H34     1.081   .     S
C26    N53     1.362   .     A
C26    H35     1.082   .     S
C27    H36     1.082   .     S
C27    N54     1.362   .     A
C28    N53     1.366   .     A
C28    C30     1.419   .     A
C28    O64     1.386   .     S
C29    O56     1.382   .     S
C29    N54     1.367   .     A
C30    H37     1.080   .     S
H31    C73     1.087   .     S
H42    C140    1.088   1_455 S
N53    Zn66    2.008   .     S
N54    Zn65    2.008   .     S
O55    Zn65    2.002   .     S
O57    Zn66    2.002   .     S
O58    Zn66    1.999   .     S
O59    Zn65    1.999   .     S
O60    Zn65    1.971   .     S
O61    Zn66    1.971   .     S
O62    Zn66    1.981   .     S
O63    Zn65    1.981   .     S
C67    O121    1.287   .     A
C67    O124    1.287   .     A
C67    C80     1.437   .     S
C68    C70     1.409   .     A
C68    H104    1.081   .     S
C68    C95     1.415   .     A
C69    C96     1.409   .     A
C69    C89     1.411   .     A
C69    C466    1.517   1_554 S
C70    C91     1.412   .     A
C70    C465    1.517   .     S
C71    C73     1.402   .     S
C71    O128    1.279   .     A
C71    O126    1.277   .     A
C72    O129    1.279   .     A
C72    O127    1.277   .     A
C72    C74     1.402   .     S
C74    C139    1.329   .     S
C74    H174    1.088   .     S
C75    C86     1.399   .     A
C75    H112    1.083   .     S
C75    C77     1.381   .     A
C76    C87     1.399   .     A
C76    H113    1.083   .     S
C76    C79     1.381   .     A
C77    H114    1.083   .     S
C77    C80     1.399   .     A
C78    C81     1.438   .     S
C78    O123    1.288   .     A
C78    O125    1.287   .     A
C79    H115    1.083   .     S
C79    C81     1.399   .     A
C80    C82     1.399   .     A
C81    C83     1.399   .     A
C82    H116    1.084   .     S
C82    C84     1.380   .     A
C83    H117    1.084   .     S
C83    C85     1.380   .     A
C84    H118    1.083   .     S
C84    C86     1.399   .     A
C85    C87     1.399   .     A
C85    H98     1.083   .     S
C86    C285    1.444   1_545 S
C87    C284    1.444   .     S
C88    H106    1.110   .     S
C88    H107    1.115   .     S
C88    O130    1.412   .     S
C88    H105    1.110   .     S
C89    C92     1.406   .     A
C89    H99     1.081   .     S
C90    H111    1.111   .     S
C90    H110    1.114   .     S
C90    O122    1.411   .     S
C90    H109    1.109   .     S
C91    C93     1.407   .     A
C91    H100    1.081   .     S
C92    N119    1.362   .     A
C92    H101    1.082   .     S
C93    H102    1.082   .     S
C93    N120    1.362   .     A
C94    N119    1.366   .     A
C94    C96     1.419   .     A
C94    O130    1.386   .     S
C95    O122    1.382   .     S
C95    N120    1.367   .     A
C96    H103    1.080   .     S
H97    C139    1.087   .     S
N119   Zn132   2.008   .     S
N120   Zn131   2.008   .     S
O121   Zn131   2.002   .     S
O123   Zn132   2.002   .     S
O124   Zn132   1.999   .     S
O125   Zn131   1.999   .     S
O126   Zn131   1.971   .     S
O127   Zn132   1.971   .     S
O128   Zn132   1.981   .     S
O129   Zn131   1.981   .     S
C133   O187    1.287   .     A
C133   O190    1.287   .     A
C133   C146    1.437   .     S
C134   C136    1.409   .     A
C134   H170    1.081   .     S
C134   C161    1.415   .     A
C135   C162    1.409   .     A
C135   C155    1.411   .     A
C135   C532    1.517   1_554 S
C136   C157    1.412   .     A
C136   C531    1.517   .     S
C137   C139    1.402   .     S
C137   O194    1.279   .     A
C137   O192    1.277   .     A
C138   O195    1.279   .     A
C138   O193    1.277   .     A
C138   C140    1.402   .     S
C140   C7      1.329   1_655 S
C140   H42     1.088   1_655 S
C141   C152    1.399   .     A
C141   H178    1.083   .     S
C141   C143    1.381   .     A
C142   C153    1.399   .     A
C142   H179    1.083   .     S
C142   C145    1.381   .     A
C143   H180    1.083   .     S
C143   C146    1.399   .     A
C144   C147    1.438   .     S
C144   O189    1.288   .     A
C144   O191    1.287   .     A
C145   H181    1.083   .     S
C145   C147    1.399   .     A
C146   C148    1.399   .     A
C147   C149    1.399   .     A
C148   H182    1.084   .     S
C148   C150    1.380   .     A
C149   H183    1.084   .     S
C149   C151    1.380   .     A
C150   H184    1.083   .     S
C150   C152    1.399   .     A
C151   C153    1.399   .     A
C151   H164    1.083   .     S
C152   C351    1.444   1_545 S
C153   C350    1.444   .     S
C154   H172    1.110   .     S
C154   H173    1.115   .     S
C154   O196    1.412   .     S
C154   H171    1.110   .     S
C155   C158    1.406   .     A
C155   H165    1.081   .     S
C156   H177    1.111   .     S
C156   H176    1.114   .     S
C156   O188    1.411   .     S
C156   H175    1.109   .     S
C157   C159    1.407   .     A
C157   H166    1.081   .     S
C158   N185    1.362   .     A
C158   H167    1.082   .     S
C159   H168    1.082   .     S
C159   N186    1.362   .     A
C160   N185    1.366   .     A
C160   C162    1.419   .     A
C160   O196    1.386   .     S
C161   O188    1.382   .     S
C161   N186    1.367   .     A
C162   H169    1.080   .     S
H163   C7      1.087   1_655 S
N185   Zn198   2.008   .     S
N186   Zn197   2.008   .     S
O187   Zn197   2.002   .     S
O189   Zn198   2.002   .     S
O190   Zn198   1.999   .     S
O191   Zn197   1.999   .     S
O192   Zn197   1.971   .     S
O193   Zn198   1.971   .     S
O194   Zn198   1.981   .     S
O195   Zn197   1.981   .     S
C199   O253    1.287   .     A
C199   O256    1.287   .     A
C199   C212    1.437   .     S
C200   C202    1.409   .     A
C200   H236    1.081   .     S
C200   C227    1.415   .     A
C201   C228    1.409   .     A
C201   C221    1.411   .     A
C201   C598    1.517   1_554 S
C202   C223    1.412   .     A
C202   C597    1.517   .     S
C203   C205    1.402   .     S
C203   O260    1.279   .     A
C203   O258    1.277   .     A
C204   O261    1.279   .     A
C204   O259    1.277   .     A
C204   C206    1.402   .     S
C205   C338    1.329   1_455 S
C205   H361    1.087   1_455 S
C206   C271    1.329   .     S
C206   H306    1.088   .     S
C207   C218    1.399   .     A
C207   H244    1.083   .     S
C207   C209    1.381   .     A
C208   C219    1.399   .     A
C208   H245    1.083   .     S
C208   C211    1.381   .     A
C209   H246    1.083   .     S
C209   C212    1.399   .     A
C210   C213    1.438   .     S
C210   O255    1.288   .     A
C210   O257    1.287   .     A
C211   H247    1.083   .     S
C211   C213    1.399   .     A
C212   C214    1.399   .     A
C213   C215    1.399   .     A
C214   H248    1.084   .     S
C214   C216    1.380   .     A
C215   H249    1.084   .     S
C215   C217    1.380   .     A
C216   H250    1.083   .     S
C216   C218    1.399   .     A
C217   C219    1.399   .     A
C217   H230    1.083   .     S
C219   C20     1.444   1_565 S
C220   H238    1.110   .     S
C220   H239    1.115   .     S
C220   O262    1.412   .     S
C220   H237    1.110   .     S
C221   C224    1.406   .     A
C221   H231    1.081   .     S
C222   H243    1.111   .     S
C222   H242    1.114   .     S
C222   O254    1.411   .     S
C222   H241    1.109   .     S
C223   C225    1.407   .     A
C223   H232    1.081   .     S
C224   N251    1.362   .     A
C224   H233    1.082   .     S
C225   H234    1.082   .     S
C225   N252    1.362   .     A
C226   N251    1.366   .     A
C226   C228    1.419   .     A
C226   O262    1.386   .     S
C227   O254    1.382   .     S
C227   N252    1.367   .     A
C228   H235    1.080   .     S
H229   C271    1.087   .     S
H240   C338    1.088   1_455 S
N251   Zn264   2.008   .     S
N252   Zn263   2.008   .     S
O253   Zn263   2.002   .     S
O255   Zn264   2.002   .     S
O256   Zn264   1.999   .     S
O257   Zn263   1.999   .     S
O258   Zn263   1.971   .     S
O259   Zn264   1.971   .     S
O260   Zn264   1.981   .     S
O261   Zn263   1.981   .     S
C265   O319    1.287   .     A
C265   O322    1.287   .     A
C265   C278    1.437   .     S
C266   C268    1.409   .     A
C266   H302    1.081   .     S
C266   C293    1.415   .     A
C267   C294    1.409   .     A
C267   C287    1.411   .     A
C267   C664    1.517   1_554 S
C268   C289    1.412   .     A
C268   C663    1.517   .     S
C269   C271    1.402   .     S
C269   O326    1.279   .     A
C269   O324    1.277   .     A
C270   O327    1.279   .     A
C270   O325    1.277   .     A
C270   C272    1.402   .     S
C272   C337    1.329   .     S
C272   H372    1.088   .     S
C273   C284    1.399   .     A
C273   H310    1.083   .     S
C273   C275    1.381   .     A
C274   C285    1.399   .     A
C274   H311    1.083   .     S
C274   C277    1.381   .     A
C275   H312    1.083   .     S
C275   C278    1.399   .     A
C276   C279    1.438   .     S
C276   O321    1.288   .     A
C276   O323    1.287   .     A
C277   H313    1.083   .     S
C277   C279    1.399   .     A
C278   C280    1.399   .     A
C279   C281    1.399   .     A
C280   H314    1.084   .     S
C280   C282    1.380   .     A
C281   H315    1.084   .     S
C281   C283    1.380   .     A
C282   H316    1.083   .     S
C282   C284    1.399   .     A
C283   C285    1.399   .     A
C283   H296    1.083   .     S
C285   C86     1.444   1_565 S
C286   H304    1.110   .     S
C286   H305    1.115   .     S
C286   O328    1.412   .     S
C286   H303    1.110   .     S
C287   C290    1.406   .     A
C287   H297    1.081   .     S
C288   H309    1.111   .     S
C288   H308    1.114   .     S
C288   O320    1.411   .     S
C288   H307    1.109   .     S
C289   C291    1.407   .     A
C289   H298    1.081   .     S
C290   N317    1.362   .     A
C290   H299    1.082   .     S
C291   H300    1.082   .     S
C291   N318    1.362   .     A
C292   N317    1.366   .     A
C292   C294    1.419   .     A
C292   O328    1.386   .     S
C293   O320    1.382   .     S
C293   N318    1.367   .     A
C294   H301    1.080   .     S
H295   C337    1.087   .     S
N317   Zn330   2.008   .     S
N318   Zn329   2.008   .     S
O319   Zn329   2.002   .     S
O321   Zn330   2.002   .     S
O322   Zn330   1.999   .     S
O323   Zn329   1.999   .     S
O324   Zn329   1.971   .     S
O325   Zn330   1.971   .     S
O326   Zn330   1.981   .     S
O327   Zn329   1.981   .     S
C331   O385    1.287   .     A
C331   O388    1.287   .     A
C331   C344    1.437   .     S
C332   C334    1.409   .     A
C332   H368    1.081   .     S
C332   C359    1.415   .     A
C333   C360    1.409   .     A
C333   C353    1.411   .     A
C333   C730    1.517   1_554 S
C334   C355    1.412   .     A
C334   C729    1.517   .     S
C335   C337    1.402   .     S
C335   O392    1.279   .     A
C335   O390    1.277   .     A
C336   O393    1.279   .     A
C336   O391    1.277   .     A
C336   C338    1.402   .     S
C338   C205    1.329   1_655 S
C338   H240    1.088   1_655 S
C339   C350    1.399   .     A
C339   H376    1.083   .     S
C339   C341    1.381   .     A
C340   C351    1.399   .     A
C340   H377    1.083   .     S
C340   C343    1.381   .     A
C341   H378    1.083   .     S
C341   C344    1.399   .     A
C342   C345    1.438   .     S
C342   O387    1.288   .     A
C342   O389    1.287   .     A
C343   H379    1.083   .     S
C343   C345    1.399   .     A
C344   C346    1.399   .     A
C345   C347    1.399   .     A
C346   H380    1.084   .     S
C346   C348    1.380   .     A
C347   H381    1.084   .     S
C347   C349    1.380   .     A
C348   H382    1.083   .     S
C348   C350    1.399   .     A
C349   C351    1.399   .     A
C349   H362    1.083   .     S
C351   C152    1.444   1_565 S
C352   H370    1.110   .     S
C352   H371    1.115   .     S
C352   O394    1.412   .     S
C352   H369    1.110   .     S
C353   C356    1.406   .     A
C353   H363    1.081   .     S
C354   H375    1.111   .     S
C354   H374    1.114   .     S
C354   O386    1.411   .     S
C354   H373    1.109   .     S
C355   C357    1.407   .     A
C355   H364    1.081   .     S
C356   N383    1.362   .     A
C356   H365    1.082   .     S
C357   H366    1.082   .     S
C357   N384    1.362   .     A
C358   N383    1.366   .     A
C358   C360    1.419   .     A
C358   O394    1.386   .     S
C359   O386    1.382   .     S
C359   N384    1.367   .     A
C360   H367    1.080   .     S
H361   C205    1.087   1_655 S
N383   Zn396   2.008   .     S
N384   Zn395   2.008   .     S
O385   Zn395   2.002   .     S
O387   Zn396   2.002   .     S
O388   Zn396   1.999   .     S
O389   Zn395   1.999   .     S
O390   Zn395   1.971   .     S
O391   Zn396   1.971   .     S
O392   Zn396   1.981   .     S
O393   Zn395   1.981   .     S
C397   O451    1.287   .     A
C397   O454    1.287   .     A
C397   C410    1.437   .     S
C398   C400    1.409   .     A
C398   H434    1.081   .     S
C398   C425    1.415   .     A
C399   C426    1.409   .     A
C399   C419    1.411   .     A
C400   C421    1.412   .     A
C400   C3      1.517   1_556 S
C401   C403    1.402   .     S
C401   O458    1.279   .     A
C401   O456    1.277   .     A
C402   O459    1.279   .     A
C402   O457    1.277   .     A
C402   C404    1.402   .     S
C403   C536    1.329   1_455 S
C403   H559    1.087   1_455 S
C404   C469    1.329   .     S
C404   H504    1.088   .     S
C405   C416    1.399   .     A
C405   H442    1.083   .     S
C405   C407    1.381   .     A
C406   C417    1.399   .     A
C406   H443    1.083   .     S
C406   C409    1.381   .     A
C407   H444    1.083   .     S
C407   C410    1.399   .     A
C408   C411    1.438   .     S
C408   O453    1.288   .     A
C408   O455    1.287   .     A
C409   H445    1.083   .     S
C409   C411    1.399   .     A
C410   C412    1.399   .     A
C411   C413    1.399   .     A
C412   H446    1.084   .     S
C412   C414    1.380   .     A
C413   H447    1.084   .     S
C413   C415    1.380   .     A
C414   H448    1.083   .     S
C414   C416    1.399   .     A
C415   C417    1.399   .     A
C415   H428    1.083   .     S
C416   C615    1.444   1_545 S
C417   C614    1.444   .     S
C418   H436    1.110   .     S
C418   H437    1.115   .     S
C418   O460    1.412   .     S
C418   H435    1.110   .     S
C419   C422    1.406   .     A
C419   H429    1.081   .     S
C420   H441    1.111   .     S
C420   H440    1.114   .     S
C420   O452    1.411   .     S
C420   H439    1.109   .     S
C421   C423    1.407   .     A
C421   H430    1.081   .     S
C422   N449    1.362   .     A
C422   H431    1.082   .     S
C423   H432    1.082   .     S
C423   N450    1.362   .     A
C424   N449    1.366   .     A
C424   C426    1.419   .     A
C424   O460    1.386   .     S
C425   O452    1.382   .     S
C425   N450    1.367   .     A
C426   H433    1.080   .     S
H427   C469    1.087   .     S
H438   C536    1.088   1_455 S
N449   Zn462   2.008   .     S
N450   Zn461   2.008   .     S
O451   Zn461   2.002   .     S
O453   Zn462   2.002   .     S
O454   Zn462   1.999   .     S
O455   Zn461   1.999   .     S
O456   Zn461   1.971   .     S
O457   Zn462   1.971   .     S
O458   Zn462   1.981   .     S
O459   Zn461   1.981   .     S
C463   O517    1.287   .     A
C463   O520    1.287   .     A
C463   C476    1.437   .     S
C464   C466    1.409   .     A
C464   H500    1.081   .     S
C464   C491    1.415   .     A
C465   C492    1.409   .     A
C465   C485    1.411   .     A
C466   C487    1.412   .     A
C466   C69     1.517   1_556 S
C467   C469    1.402   .     S
C467   O524    1.279   .     A
C467   O522    1.277   .     A
C468   O525    1.279   .     A
C468   O523    1.277   .     A
C468   C470    1.402   .     S
C470   C535    1.329   .     S
C470   H570    1.088   .     S
C471   C482    1.399   .     A
C471   H508    1.083   .     S
C471   C473    1.381   .     A
C472   C483    1.399   .     A
C472   H509    1.083   .     S
C472   C475    1.381   .     A
C473   H510    1.083   .     S
C473   C476    1.399   .     A
C474   C477    1.438   .     S
C474   O519    1.288   .     A
C474   O521    1.287   .     A
C475   H511    1.083   .     S
C475   C477    1.399   .     A
C476   C478    1.399   .     A
C477   C479    1.399   .     A
C478   H512    1.084   .     S
C478   C480    1.380   .     A
C479   H513    1.084   .     S
C479   C481    1.380   .     A
C480   H514    1.083   .     S
C480   C482    1.399   .     A
C481   C483    1.399   .     A
C481   H494    1.083   .     S
C482   C681    1.444   1_545 S
C483   C680    1.444   .     S
C484   H502    1.110   .     S
C484   H503    1.115   .     S
C484   O526    1.412   .     S
C484   H501    1.110   .     S
C485   C488    1.406   .     A
C485   H495    1.081   .     S
C486   H507    1.111   .     S
C486   H506    1.114   .     S
C486   O518    1.411   .     S
C486   H505    1.109   .     S
C487   C489    1.407   .     A
C487   H496    1.081   .     S
C488   N515    1.362   .     A
C488   H497    1.082   .     S
C489   H498    1.082   .     S
C489   N516    1.362   .     A
C490   N515    1.366   .     A
C490   C492    1.419   .     A
C490   O526    1.386   .     S
C491   O518    1.382   .     S
C491   N516    1.367   .     A
C492   H499    1.080   .     S
H493   C535    1.087   .     S
N515   Zn528   2.008   .     S
N516   Zn527   2.008   .     S
O517   Zn527   2.002   .     S
O519   Zn528   2.002   .     S
O520   Zn528   1.999   .     S
O521   Zn527   1.999   .     S
O522   Zn527   1.971   .     S
O523   Zn528   1.971   .     S
O524   Zn528   1.981   .     S
O525   Zn527   1.981   .     S
C529   O583    1.287   .     A
C529   O586    1.287   .     A
C529   C542    1.437   .     S
C530   C532    1.409   .     A
C530   H566    1.081   .     S
C530   C557    1.415   .     A
C531   C558    1.409   .     A
C531   C551    1.411   .     A
C532   C553    1.412   .     A
C532   C135    1.517   1_556 S
C533   C535    1.402   .     S
C533   O590    1.279   .     A
C533   O588    1.277   .     A
C534   O591    1.279   .     A
C534   O589    1.277   .     A
C534   C536    1.402   .     S
C536   C403    1.329   1_655 S
C536   H438    1.088   1_655 S
C537   C548    1.399   .     A
C537   H574    1.083   .     S
C537   C539    1.381   .     A
C538   C549    1.399   .     A
C538   H575    1.083   .     S
C538   C541    1.381   .     A
C539   H576    1.083   .     S
C539   C542    1.399   .     A
C540   C543    1.438   .     S
C540   O585    1.288   .     A
C540   O587    1.287   .     A
C541   H577    1.083   .     S
C541   C543    1.399   .     A
C542   C544    1.399   .     A
C543   C545    1.399   .     A
C544   H578    1.084   .     S
C544   C546    1.380   .     A
C545   H579    1.084   .     S
C545   C547    1.380   .     A
C546   H580    1.083   .     S
C546   C548    1.399   .     A
C547   C549    1.399   .     A
C547   H560    1.083   .     S
C548   C747    1.444   1_545 S
C549   C746    1.444   .     S
C550   H568    1.110   .     S
C550   H569    1.115   .     S
C550   O592    1.412   .     S
C550   H567    1.110   .     S
C551   C554    1.406   .     A
C551   H561    1.081   .     S
C552   H573    1.111   .     S
C552   H572    1.114   .     S
C552   O584    1.411   .     S
C552   H571    1.109   .     S
C553   C555    1.407   .     A
C553   H562    1.081   .     S
C554   N581    1.362   .     A
C554   H563    1.082   .     S
C555   H564    1.082   .     S
C555   N582    1.362   .     A
C556   N581    1.366   .     A
C556   C558    1.419   .     A
C556   O592    1.386   .     S
C557   O584    1.382   .     S
C557   N582    1.367   .     A
C558   H565    1.080   .     S
H559   C403    1.087   1_655 S
N581   Zn594   2.008   .     S
N582   Zn593   2.008   .     S
O583   Zn593   2.002   .     S
O585   Zn594   2.002   .     S
O586   Zn594   1.999   .     S
O587   Zn593   1.999   .     S
O588   Zn593   1.971   .     S
O589   Zn594   1.971   .     S
O590   Zn594   1.981   .     S
O591   Zn593   1.981   .     S
C595   O649    1.287   .     A
C595   O652    1.287   .     A
C595   C608    1.437   .     S
C596   C598    1.409   .     A
C596   H632    1.081   .     S
C596   C623    1.415   .     A
C597   C624    1.409   .     A
C597   C617    1.411   .     A
C598   C619    1.412   .     A
C598   C201    1.517   1_556 S
C599   C601    1.402   .     S
C599   O656    1.279   .     A
C599   O654    1.277   .     A
C600   O657    1.279   .     A
C600   O655    1.277   .     A
C600   C602    1.402   .     S
C601   C734    1.329   1_455 S
C601   H757    1.087   1_455 S
C602   C667    1.329   .     S
C602   H702    1.088   .     S
C603   C614    1.399   .     A
C603   H640    1.083   .     S
C603   C605    1.381   .     A
C604   C615    1.399   .     A
C604   H641    1.083   .     S
C604   C607    1.381   .     A
C605   H642    1.083   .     S
C605   C608    1.399   .     A
C606   C609    1.438   .     S
C606   O651    1.288   .     A
C606   O653    1.287   .     A
C607   H643    1.083   .     S
C607   C609    1.399   .     A
C608   C610    1.399   .     A
C609   C611    1.399   .     A
C610   H644    1.084   .     S
C610   C612    1.380   .     A
C611   H645    1.084   .     S
C611   C613    1.380   .     A
C612   H646    1.083   .     S
C612   C614    1.399   .     A
C613   C615    1.399   .     A
C613   H626    1.083   .     S
C615   C416    1.444   1_565 S
C616   H634    1.110   .     S
C616   H635    1.115   .     S
C616   O658    1.412   .     S
C616   H633    1.110   .     S
C617   C620    1.406   .     A
C617   H627    1.081   .     S
C618   H639    1.111   .     S
C618   H638    1.114   .     S
C618   O650    1.411   .     S
C618   H637    1.109   .     S
C619   C621    1.407   .     A
C619   H628    1.081   .     S
C620   N647    1.362   .     A
C620   H629    1.082   .     S
C621   H630    1.082   .     S
C621   N648    1.362   .     A
C622   N647    1.366   .     A
C622   C624    1.419   .     A
C622   O658    1.386   .     S
C623   O650    1.382   .     S
C623   N648    1.367   .     A
C624   H631    1.080   .     S
H625   C667    1.087   .     S
H636   C734    1.088   1_455 S
N647   Zn660   2.008   .     S
N648   Zn659   2.008   .     S
O649   Zn659   2.002   .     S
O651   Zn660   2.002   .     S
O652   Zn660   1.999   .     S
O653   Zn659   1.999   .     S
O654   Zn659   1.971   .     S
O655   Zn660   1.971   .     S
O656   Zn660   1.981   .     S
O657   Zn659   1.981   .     S
C661   O715    1.287   .     A
C661   O718    1.287   .     A
C661   C674    1.437   .     S
C662   C664    1.409   .     A
C662   H698    1.081   .     S
C662   C689    1.415   .     A
C663   C690    1.409   .     A
C663   C683    1.411   .     A
C664   C685    1.412   .     A
C664   C267    1.517   1_556 S
C665   C667    1.402   .     S
C665   O722    1.279   .     A
C665   O720    1.277   .     A
C666   O723    1.279   .     A
C666   O721    1.277   .     A
C666   C668    1.402   .     S
C668   C733    1.329   .     S
C668   H768    1.088   .     S
C669   C680    1.399   .     A
C669   H706    1.083   .     S
C669   C671    1.381   .     A
C670   C681    1.399   .     A
C670   H707    1.083   .     S
C670   C673    1.381   .     A
C671   H708    1.083   .     S
C671   C674    1.399   .     A
C672   C675    1.438   .     S
C672   O717    1.288   .     A
C672   O719    1.287   .     A
C673   H709    1.083   .     S
C673   C675    1.399   .     A
C674   C676    1.399   .     A
C675   C677    1.399   .     A
C676   H710    1.084   .     S
C676   C678    1.380   .     A
C677   H711    1.084   .     S
C677   C679    1.380   .     A
C678   H712    1.083   .     S
C678   C680    1.399   .     A
C679   C681    1.399   .     A
C679   H692    1.083   .     S
C681   C482    1.444   1_565 S
C682   H700    1.110   .     S
C682   H701    1.115   .     S
C682   O724    1.412   .     S
C682   H699    1.110   .     S
C683   C686    1.406   .     A
C683   H693    1.081   .     S
C684   H705    1.111   .     S
C684   H704    1.114   .     S
C684   O716    1.411   .     S
C684   H703    1.109   .     S
C685   C687    1.407   .     A
C685   H694    1.081   .     S
C686   N713    1.362   .     A
C686   H695    1.082   .     S
C687   H696    1.082   .     S
C687   N714    1.362   .     A
C688   N713    1.366   .     A
C688   C690    1.419   .     A
C688   O724    1.386   .     S
C689   O716    1.382   .     S
C689   N714    1.367   .     A
C690   H697    1.080   .     S
H691   C733    1.087   .     S
N713   Zn726   2.008   .     S
N714   Zn725   2.008   .     S
O715   Zn725   2.002   .     S
O717   Zn726   2.002   .     S
O718   Zn726   1.999   .     S
O719   Zn725   1.999   .     S
O720   Zn725   1.971   .     S
O721   Zn726   1.971   .     S
O722   Zn726   1.981   .     S
O723   Zn725   1.981   .     S
C727   O781    1.287   .     A
C727   O784    1.287   .     A
C727   C740    1.437   .     S
C728   C730    1.409   .     A
C728   H764    1.081   .     S
C728   C755    1.415   .     A
C729   C756    1.409   .     A
C729   C749    1.411   .     A
C730   C751    1.412   .     A
C730   C333    1.517   1_556 S
C731   C733    1.402   .     S
C731   O788    1.279   .     A
C731   O786    1.277   .     A
C732   O789    1.279   .     A
C732   O787    1.277   .     A
C732   C734    1.402   .     S
C734   C601    1.329   1_655 S
C734   H636    1.088   1_655 S
C735   C746    1.399   .     A
C735   H772    1.083   .     S
C735   C737    1.381   .     A
C736   C747    1.399   .     A
C736   H773    1.083   .     S
C736   C739    1.381   .     A
C737   H774    1.083   .     S
C737   C740    1.399   .     A
C738   C741    1.438   .     S
C738   O783    1.288   .     A
C738   O785    1.287   .     A
C739   H775    1.083   .     S
C739   C741    1.399   .     A
C740   C742    1.399   .     A
C741   C743    1.399   .     A
C742   H776    1.084   .     S
C742   C744    1.380   .     A
C743   H777    1.084   .     S
C743   C745    1.380   .     A
C744   H778    1.083   .     S
C744   C746    1.399   .     A
C745   C747    1.399   .     A
C745   H758    1.083   .     S
C747   C548    1.444   1_565 S
C748   H766    1.110   .     S
C748   H767    1.115   .     S
C748   O790    1.412   .     S
C748   H765    1.110   .     S
C749   C752    1.406   .     A
C749   H759    1.081   .     S
C750   H771    1.111   .     S
C750   H770    1.114   .     S
C750   O782    1.411   .     S
C750   H769    1.109   .     S
C751   C753    1.407   .     A
C751   H760    1.081   .     S
C752   N779    1.362   .     A
C752   H761    1.082   .     S
C753   H762    1.082   .     S
C753   N780    1.362   .     A
C754   N779    1.366   .     A
C754   C756    1.419   .     A
C754   O790    1.386   .     S
C755   O782    1.382   .     S
C755   N780    1.367   .     A
C756   H763    1.080   .     S
H757   C601    1.087   1_655 S
N779   Zn792   2.008   .     S
N780   Zn791   2.008   .     S
O781   Zn791   2.002   .     S
O783   Zn792   2.002   .     S
O784   Zn792   1.999   .     S
O785   Zn791   1.999   .     S
O786   Zn791   1.971   .     S
O787   Zn792   1.971   .     S
O788   Zn792   1.981   .     S
O789   Zn791   1.981   .     S
