data_str_m3_o1_o17_pcu_sym.143
_audit_creation_date              2020-01-03
_audit_creation_method            'Materials Studio'
_symmetry_space_group_name_H-M    'P1'
_symmetry_Int_Tables_number       1
_symmetry_cell_setting            triclinic
loop_
_symmetry_equiv_pos_as_xyz
  x,y,z
_cell_length_a                    32.4741
_cell_length_b                    29.7262
_cell_length_c                    29.7914
_cell_angle_alpha                 90.5212
_cell_angle_beta                  92.6025
_cell_angle_gamma                 90.2204
loop_
_atom_site_label
_atom_site_type_symbol
_atom_site_fract_x
_atom_site_fract_y
_atom_site_fract_z
_atom_site_U_iso_or_equiv
_atom_site_adp_type
_atom_site_occupancy
O1     O     0.10559   0.20487   0.25000   0.00000  Uiso   1.00
O2     O     0.22774   0.12846   0.25000   0.00000  Uiso   1.00
O3     O     0.22774   0.20487   0.25000   0.00000  Uiso   1.00
O4     O     0.10559   0.12846   0.24999   0.00000  Uiso   1.00
C5     C     0.08669   0.16662   0.25061   0.00000  Uiso   1.00
C6     C     0.24663   0.16671   0.24913   0.00000  Uiso   1.00
O7     O     0.16666   0.20489   0.18392   0.00000  Uiso   1.00
O8     O     0.16667   0.12844   0.31607   0.00000  Uiso   1.00
O9     O     0.16667   0.20489   0.31607   0.00000  Uiso   1.00
O10    O     0.16666   0.12844   0.18392   0.00000  Uiso   1.00
C11    C     0.16501   0.16647   0.16360   0.00000  Uiso   1.00
C12    C     0.16814   0.16671   0.33649   0.00000  Uiso   1.00
Zn13   Zn    0.16667   0.21771   0.25000   0.00000  Uiso   1.00
Zn14   Zn    0.16667   0.11563   0.25000   0.00000  Uiso   1.00
C15    C     0.20535   0.17605   0.40965   0.00000  Uiso   1.00
C16    C     0.12869   0.15531   0.09061   0.00000  Uiso   1.00
C17    C     0.16917   0.16552   0.38444   0.00000  Uiso   1.00
C18    C     0.16494   0.16535   0.11588   0.00000  Uiso   1.00
C19    C     0.13467   0.14802   0.40392   0.00000  Uiso   1.00
C20    C     0.20251   0.17113   0.09647   0.00000  Uiso   1.00
C21    C     0.13370   0.14487   0.45054   0.00000  Uiso   1.00
C22    C     0.20503   0.16697   0.05005   0.00000  Uiso   1.00
C23    C     0.16970   0.15651   0.47686   0.00000  Uiso   1.00
C24    C     0.16874   0.15639   0.02376   0.00000  Uiso   1.00
C25    C     0.20669   0.16839   0.45624   0.00000  Uiso   1.00
C26    C     0.13121   0.14676   0.04438   0.00000  Uiso   1.00
C27    C     0.09845   0.12873   0.47137   0.00000  Uiso   1.00
C28    C     0.24302   0.17175   0.02946   0.00000  Uiso   1.00
C29    C     0.09749   0.12870   0.01831   0.00000  Uiso   1.00
C30    C     0.24400   0.17105   0.48257   0.00000  Uiso   1.00
C31    C     0.02091   0.12562   0.24905   0.00000  Uiso   1.00
C32    C     0.31238   0.20771   0.24980   0.00000  Uiso   1.00
C33    C     0.31198   0.12568   0.24732   0.00000  Uiso   1.00
C34    C     0.02129   0.20765   0.25165   0.00000  Uiso   1.00
C35    C     0.29079   0.16672   0.24840   0.00000  Uiso   1.00
C36    C     0.04249   0.16661   0.25078   0.00000  Uiso   1.00
C37    C     0.18538   0.02435   0.28476   0.00000  Uiso   1.00
C38    C     0.14788   0.30897   0.21528   0.00000  Uiso   1.00
C39    C     0.14785   0.02349   0.21532   0.00000  Uiso   1.00
C40    C     0.18527   0.30983   0.28475   0.00000  Uiso   1.00
N41    N     0.16667   0.28573   0.25000   0.00000  Uiso   1.00
N42    N     0.16667   0.04760   0.25000   0.00000  Uiso   1.00
N43    N     0.23951   0.19640   0.38827   0.00000  Uiso   1.00
O44    O     0.25547   0.17706   0.35382   0.00000  Uiso   1.00
O45    O     0.25544   0.23387   0.40405   0.00000  Uiso   1.00
N46    N     0.08935   0.16062   0.11043   0.00000  Uiso   1.00
O47    O     0.08128   0.14052   0.14760   0.00000  Uiso   1.00
O48    O     0.06241   0.18830   0.09269   0.00000  Uiso   1.00
F49    F     0.10213   0.13506   0.37639   0.00000  Uiso   1.00
F50    F     0.23585   0.18276   0.12349   0.00000  Uiso   1.00
N51    N     0.06395   0.11086   0.44526   0.00000  Uiso   1.00
O52    O     0.03831   0.13796   0.42457   0.00000  Uiso   1.00
O53    O     0.05647   0.06783   0.44487   0.00000  Uiso   1.00
N54    N     0.28108   0.17353   0.05579   0.00000  Uiso   1.00
O55    O     0.30103   0.21140   0.06081   0.00000  Uiso   1.00
O56    O     0.29322   0.13866   0.07885   0.00000  Uiso   1.00
N57    N     0.06386   0.10674   0.03916   0.00000  Uiso   1.00
O58    O     0.02596   0.11474   0.02573   0.00000  Uiso   1.00
O59    O     0.07128   0.07517   0.06836   0.00000  Uiso   1.00
N60    N     0.28287   0.16535   0.46225   0.00000  Uiso   1.00
O61    O     0.31307   0.19348   0.47077   0.00000  Uiso   1.00
O62    O     0.28865   0.13026   0.43692   0.00000  Uiso   1.00
F63    F     0.04027   0.08520   0.24930   0.00000  Uiso   1.00
F64    F     0.29303   0.24813   0.24921   0.00000  Uiso   1.00
F65    F     0.29223   0.08532   0.24427   0.00000  Uiso   1.00
F66    F     0.04103   0.24802   0.25470   0.00000  Uiso   1.00
N67    N     0.20555   0.04819   0.32142   0.00000  Uiso   1.00
O68    O     0.24236   0.06445   0.31720   0.00000  Uiso   1.00
O69    O     0.19015   0.04743   0.36096   0.00000  Uiso   1.00
N70    N     0.12795   0.28512   0.17848   0.00000  Uiso   1.00
O71    O     0.14309   0.28685   0.13884   0.00000  Uiso   1.00
O72    O     0.09128   0.26841   0.18261   0.00000  Uiso   1.00
N73    N     0.12680   0.04635   0.17924   0.00000  Uiso   1.00
O74    O     0.08707   0.05097   0.18002   0.00000  Uiso   1.00
O75    O     0.14448   0.05002   0.14111   0.00000  Uiso   1.00
N76    N     0.20572   0.28682   0.32103   0.00000  Uiso   1.00
O77    O     0.18903   0.28576   0.35988   0.00000  Uiso   1.00
O78    O     0.24440   0.27659   0.31832   0.00000  Uiso   1.00
O79    O     0.43892   0.20487   0.25000   0.00000  Uiso   1.00
O80    O     0.56108   0.12846   0.25000   0.00000  Uiso   1.00
O81    O     0.56108   0.20487   0.25000   0.00000  Uiso   1.00
O82    O     0.43892   0.12846   0.24999   0.00000  Uiso   1.00
C83    C     0.42002   0.16662   0.25061   0.00000  Uiso   1.00
C84    C     0.57996   0.16671   0.24913   0.00000  Uiso   1.00
O85    O     0.49999   0.20489   0.18392   0.00000  Uiso   1.00
O86    O     0.50001   0.12844   0.31607   0.00000  Uiso   1.00
O87    O     0.50001   0.20489   0.31607   0.00000  Uiso   1.00
O88    O     0.49999   0.12844   0.18392   0.00000  Uiso   1.00
C89    C     0.49835   0.16647   0.16360   0.00000  Uiso   1.00
C90    C     0.50147   0.16671   0.33649   0.00000  Uiso   1.00
Zn91   Zn    0.50000   0.21771   0.25000   0.00000  Uiso   1.00
Zn92   Zn    0.50000   0.11563   0.25000   0.00000  Uiso   1.00
C93    C     0.53869   0.17605   0.40965   0.00000  Uiso   1.00
C94    C     0.46202   0.15531   0.09061   0.00000  Uiso   1.00
C95    C     0.50250   0.16552   0.38444   0.00000  Uiso   1.00
C96    C     0.49827   0.16535   0.11588   0.00000  Uiso   1.00
C97    C     0.46800   0.14802   0.40392   0.00000  Uiso   1.00
C98    C     0.53585   0.17113   0.09647   0.00000  Uiso   1.00
C99    C     0.46704   0.14487   0.45054   0.00000  Uiso   1.00
C100   C     0.53837   0.16697   0.05005   0.00000  Uiso   1.00
C101   C     0.50303   0.15651   0.47686   0.00000  Uiso   1.00
C102   C     0.50207   0.15639   0.02376   0.00000  Uiso   1.00
C103   C     0.54002   0.16839   0.45624   0.00000  Uiso   1.00
C104   C     0.46455   0.14676   0.04438   0.00000  Uiso   1.00
C105   C     0.43179   0.12873   0.47137   0.00000  Uiso   1.00
C106   C     0.57635   0.17175   0.02946   0.00000  Uiso   1.00
C107   C     0.43083   0.12870   0.01831   0.00000  Uiso   1.00
C108   C     0.57734   0.17105   0.48257   0.00000  Uiso   1.00
C109   C     0.35424   0.12562   0.24905   0.00000  Uiso   1.00
C110   C     0.64571   0.20771   0.24980   0.00000  Uiso   1.00
C111   C     0.64532   0.12568   0.24732   0.00000  Uiso   1.00
C112   C     0.35463   0.20765   0.25165   0.00000  Uiso   1.00
C113   C     0.62413   0.16672   0.24840   0.00000  Uiso   1.00
C114   C     0.37583   0.16661   0.25078   0.00000  Uiso   1.00
C115   C     0.51871   0.02435   0.28476   0.00000  Uiso   1.00
C116   C     0.48122   0.30897   0.21528   0.00000  Uiso   1.00
C117   C     0.48119   0.02349   0.21532   0.00000  Uiso   1.00
C118   C     0.51861   0.30983   0.28475   0.00000  Uiso   1.00
N119   N     0.50000   0.28573   0.25000   0.00000  Uiso   1.00
N120   N     0.50000   0.04760   0.25000   0.00000  Uiso   1.00
N121   N     0.57285   0.19640   0.38827   0.00000  Uiso   1.00
O122   O     0.58880   0.17706   0.35382   0.00000  Uiso   1.00
O123   O     0.58877   0.23387   0.40405   0.00000  Uiso   1.00
N124   N     0.42268   0.16062   0.11043   0.00000  Uiso   1.00
O125   O     0.41462   0.14052   0.14760   0.00000  Uiso   1.00
O126   O     0.39574   0.18830   0.09269   0.00000  Uiso   1.00
F127   F     0.43546   0.13506   0.37639   0.00000  Uiso   1.00
F128   F     0.56919   0.18276   0.12349   0.00000  Uiso   1.00
N129   N     0.39728   0.11086   0.44526   0.00000  Uiso   1.00
O130   O     0.37164   0.13796   0.42457   0.00000  Uiso   1.00
O131   O     0.38980   0.06783   0.44487   0.00000  Uiso   1.00
N132   N     0.61441   0.17353   0.05579   0.00000  Uiso   1.00
O133   O     0.63436   0.21140   0.06081   0.00000  Uiso   1.00
O134   O     0.62655   0.13866   0.07885   0.00000  Uiso   1.00
N135   N     0.39719   0.10674   0.03916   0.00000  Uiso   1.00
O136   O     0.35929   0.11474   0.02573   0.00000  Uiso   1.00
O137   O     0.40461   0.07517   0.06836   0.00000  Uiso   1.00
N138   N     0.61620   0.16535   0.46225   0.00000  Uiso   1.00
O139   O     0.64640   0.19348   0.47077   0.00000  Uiso   1.00
O140   O     0.62199   0.13026   0.43692   0.00000  Uiso   1.00
F141   F     0.37360   0.08520   0.24930   0.00000  Uiso   1.00
F142   F     0.62636   0.24813   0.24921   0.00000  Uiso   1.00
F143   F     0.62556   0.08532   0.24427   0.00000  Uiso   1.00
F144   F     0.37436   0.24802   0.25470   0.00000  Uiso   1.00
N145   N     0.53889   0.04819   0.32142   0.00000  Uiso   1.00
O146   O     0.57569   0.06445   0.31720   0.00000  Uiso   1.00
O147   O     0.52348   0.04743   0.36096   0.00000  Uiso   1.00
N148   N     0.46128   0.28512   0.17848   0.00000  Uiso   1.00
O149   O     0.47642   0.28685   0.13884   0.00000  Uiso   1.00
O150   O     0.42461   0.26841   0.18261   0.00000  Uiso   1.00
N151   N     0.46014   0.04635   0.17924   0.00000  Uiso   1.00
O152   O     0.42040   0.05097   0.18002   0.00000  Uiso   1.00
O153   O     0.47781   0.05002   0.14111   0.00000  Uiso   1.00
N154   N     0.53906   0.28682   0.32103   0.00000  Uiso   1.00
O155   O     0.52236   0.28576   0.35988   0.00000  Uiso   1.00
O156   O     0.57773   0.27659   0.31832   0.00000  Uiso   1.00
O157   O     0.77226   0.20487   0.25000   0.00000  Uiso   1.00
O158   O     0.89441   0.12846   0.25000   0.00000  Uiso   1.00
O159   O     0.89441   0.20487   0.25000   0.00000  Uiso   1.00
O160   O     0.77226   0.12846   0.24999   0.00000  Uiso   1.00
C161   C     0.75336   0.16662   0.25061   0.00000  Uiso   1.00
C162   C     0.91329   0.16671   0.24913   0.00000  Uiso   1.00
O163   O     0.83333   0.20489   0.18392   0.00000  Uiso   1.00
O164   O     0.83334   0.12844   0.31607   0.00000  Uiso   1.00
O165   O     0.83334   0.20489   0.31607   0.00000  Uiso   1.00
O166   O     0.83333   0.12844   0.18392   0.00000  Uiso   1.00
C167   C     0.83168   0.16647   0.16360   0.00000  Uiso   1.00
C168   C     0.83481   0.16671   0.33649   0.00000  Uiso   1.00
Zn169  Zn    0.83333   0.21771   0.25000   0.00000  Uiso   1.00
Zn170  Zn    0.83333   0.11563   0.25000   0.00000  Uiso   1.00
C171   C     0.87202   0.17605   0.40965   0.00000  Uiso   1.00
C172   C     0.79536   0.15531   0.09061   0.00000  Uiso   1.00
C173   C     0.83583   0.16552   0.38444   0.00000  Uiso   1.00
C174   C     0.83160   0.16535   0.11588   0.00000  Uiso   1.00
C175   C     0.80133   0.14802   0.40392   0.00000  Uiso   1.00
C176   C     0.86918   0.17113   0.09647   0.00000  Uiso   1.00
C177   C     0.80037   0.14487   0.45054   0.00000  Uiso   1.00
C178   C     0.87170   0.16697   0.05005   0.00000  Uiso   1.00
C179   C     0.83636   0.15651   0.47686   0.00000  Uiso   1.00
C180   C     0.83540   0.15639   0.02376   0.00000  Uiso   1.00
C181   C     0.87336   0.16839   0.45624   0.00000  Uiso   1.00
C182   C     0.79788   0.14676   0.04438   0.00000  Uiso   1.00
C183   C     0.76512   0.12873   0.47137   0.00000  Uiso   1.00
C184   C     0.90968   0.17175   0.02946   0.00000  Uiso   1.00
C185   C     0.76416   0.12870   0.01831   0.00000  Uiso   1.00
C186   C     0.91067   0.17105   0.48257   0.00000  Uiso   1.00
C187   C     0.68757   0.12562   0.24905   0.00000  Uiso   1.00
C188   C     0.97905   0.20771   0.24980   0.00000  Uiso   1.00
C189   C     0.97865   0.12568   0.24732   0.00000  Uiso   1.00
C190   C     0.68796   0.20765   0.25165   0.00000  Uiso   1.00
C191   C     0.95746   0.16672   0.24840   0.00000  Uiso   1.00
C192   C     0.70916   0.16661   0.25078   0.00000  Uiso   1.00
C193   C     0.85205   0.02435   0.28476   0.00000  Uiso   1.00
C194   C     0.81455   0.30897   0.21528   0.00000  Uiso   1.00
C195   C     0.81452   0.02349   0.21532   0.00000  Uiso   1.00
C196   C     0.85194   0.30983   0.28475   0.00000  Uiso   1.00
N197   N     0.83333   0.28573   0.25000   0.00000  Uiso   1.00
N198   N     0.83333   0.04760   0.25000   0.00000  Uiso   1.00
N199   N     0.90618   0.19640   0.38827   0.00000  Uiso   1.00
O200   O     0.92213   0.17706   0.35382   0.00000  Uiso   1.00
O201   O     0.92210   0.23387   0.40405   0.00000  Uiso   1.00
N202   N     0.75602   0.16062   0.11043   0.00000  Uiso   1.00
O203   O     0.74795   0.14052   0.14760   0.00000  Uiso   1.00
O204   O     0.72907   0.18830   0.09269   0.00000  Uiso   1.00
F205   F     0.76880   0.13506   0.37639   0.00000  Uiso   1.00
F206   F     0.90252   0.18276   0.12349   0.00000  Uiso   1.00
N207   N     0.73062   0.11086   0.44526   0.00000  Uiso   1.00
O208   O     0.70498   0.13796   0.42457   0.00000  Uiso   1.00
O209   O     0.72313   0.06783   0.44487   0.00000  Uiso   1.00
N210   N     0.94774   0.17353   0.05579   0.00000  Uiso   1.00
O211   O     0.96769   0.21140   0.06081   0.00000  Uiso   1.00
O212   O     0.95988   0.13866   0.07885   0.00000  Uiso   1.00
N213   N     0.73053   0.10674   0.03916   0.00000  Uiso   1.00
O214   O     0.69262   0.11474   0.02573   0.00000  Uiso   1.00
O215   O     0.73795   0.07517   0.06836   0.00000  Uiso   1.00
N216   N     0.94953   0.16535   0.46225   0.00000  Uiso   1.00
O217   O     0.97974   0.19348   0.47077   0.00000  Uiso   1.00
O218   O     0.95532   0.13026   0.43692   0.00000  Uiso   1.00
F219   F     0.70694   0.08520   0.24930   0.00000  Uiso   1.00
F220   F     0.95969   0.24813   0.24921   0.00000  Uiso   1.00
F221   F     0.95890   0.08532   0.24427   0.00000  Uiso   1.00
F222   F     0.70769   0.24802   0.25470   0.00000  Uiso   1.00
N223   N     0.87222   0.04819   0.32142   0.00000  Uiso   1.00
O224   O     0.90903   0.06445   0.31720   0.00000  Uiso   1.00
O225   O     0.85681   0.04743   0.36096   0.00000  Uiso   1.00
N226   N     0.79461   0.28512   0.17848   0.00000  Uiso   1.00
O227   O     0.80976   0.28685   0.13884   0.00000  Uiso   1.00
O228   O     0.75795   0.26841   0.18261   0.00000  Uiso   1.00
N229   N     0.79347   0.04635   0.17924   0.00000  Uiso   1.00
O230   O     0.75373   0.05097   0.18002   0.00000  Uiso   1.00
O231   O     0.81115   0.05002   0.14111   0.00000  Uiso   1.00
N232   N     0.87239   0.28682   0.32103   0.00000  Uiso   1.00
O233   O     0.85569   0.28576   0.35988   0.00000  Uiso   1.00
O234   O     0.91106   0.27659   0.31832   0.00000  Uiso   1.00
O235   O     0.10559   0.53821   0.25000   0.00000  Uiso   1.00
O236   O     0.22774   0.46179   0.25000   0.00000  Uiso   1.00
O237   O     0.22774   0.53821   0.25000   0.00000  Uiso   1.00
O238   O     0.10559   0.46179   0.24999   0.00000  Uiso   1.00
C239   C     0.08669   0.49996   0.25061   0.00000  Uiso   1.00
C240   C     0.24663   0.50004   0.24913   0.00000  Uiso   1.00
O241   O     0.16666   0.53823   0.18392   0.00000  Uiso   1.00
O242   O     0.16667   0.46177   0.31607   0.00000  Uiso   1.00
O243   O     0.16667   0.53823   0.31607   0.00000  Uiso   1.00
O244   O     0.16666   0.46177   0.18392   0.00000  Uiso   1.00
C245   C     0.16501   0.49980   0.16360   0.00000  Uiso   1.00
C246   C     0.16814   0.50005   0.33649   0.00000  Uiso   1.00
Zn247  Zn    0.16667   0.55104   0.25000   0.00000  Uiso   1.00
Zn248  Zn    0.16667   0.44896   0.25000   0.00000  Uiso   1.00
C249   C     0.20535   0.50938   0.40965   0.00000  Uiso   1.00
C250   C     0.12869   0.48864   0.09061   0.00000  Uiso   1.00
C251   C     0.16917   0.49885   0.38444   0.00000  Uiso   1.00
C252   C     0.16494   0.49868   0.11588   0.00000  Uiso   1.00
C253   C     0.13467   0.48135   0.40392   0.00000  Uiso   1.00
C254   C     0.20251   0.50446   0.09647   0.00000  Uiso   1.00
C255   C     0.13370   0.47821   0.45054   0.00000  Uiso   1.00
C256   C     0.20503   0.50030   0.05005   0.00000  Uiso   1.00
C257   C     0.16970   0.48985   0.47686   0.00000  Uiso   1.00
C258   C     0.16874   0.48972   0.02376   0.00000  Uiso   1.00
C259   C     0.20669   0.50173   0.45624   0.00000  Uiso   1.00
C260   C     0.13121   0.48009   0.04438   0.00000  Uiso   1.00
C261   C     0.09845   0.46207   0.47137   0.00000  Uiso   1.00
C262   C     0.24302   0.50509   0.02946   0.00000  Uiso   1.00
C263   C     0.09749   0.46203   0.01831   0.00000  Uiso   1.00
C264   C     0.24400   0.50438   0.48257   0.00000  Uiso   1.00
C265   C     0.02091   0.45895   0.24905   0.00000  Uiso   1.00
C266   C     0.31238   0.54104   0.24980   0.00000  Uiso   1.00
C267   C     0.31198   0.45901   0.24732   0.00000  Uiso   1.00
C268   C     0.02129   0.54099   0.25165   0.00000  Uiso   1.00
C269   C     0.29079   0.50005   0.24840   0.00000  Uiso   1.00
C270   C     0.04249   0.49994   0.25078   0.00000  Uiso   1.00
C271   C     0.18538   0.35768   0.28476   0.00000  Uiso   1.00
C272   C     0.14788   0.64230   0.21528   0.00000  Uiso   1.00
C273   C     0.14785   0.35682   0.21532   0.00000  Uiso   1.00
C274   C     0.18527   0.64316   0.28475   0.00000  Uiso   1.00
N275   N     0.16667   0.61907   0.25000   0.00000  Uiso   1.00
N276   N     0.16667   0.38093   0.25000   0.00000  Uiso   1.00
N277   N     0.23951   0.52973   0.38827   0.00000  Uiso   1.00
O278   O     0.25547   0.51039   0.35382   0.00000  Uiso   1.00
O279   O     0.25544   0.56721   0.40405   0.00000  Uiso   1.00
N280   N     0.08935   0.49395   0.11043   0.00000  Uiso   1.00
O281   O     0.08128   0.47386   0.14760   0.00000  Uiso   1.00
O282   O     0.06241   0.52164   0.09269   0.00000  Uiso   1.00
F283   F     0.10213   0.46839   0.37639   0.00000  Uiso   1.00
F284   F     0.23585   0.51610   0.12349   0.00000  Uiso   1.00
N285   N     0.06395   0.44419   0.44526   0.00000  Uiso   1.00
O286   O     0.03831   0.47130   0.42457   0.00000  Uiso   1.00
O287   O     0.05647   0.40117   0.44487   0.00000  Uiso   1.00
N288   N     0.28108   0.50686   0.05579   0.00000  Uiso   1.00
O289   O     0.30103   0.54473   0.06081   0.00000  Uiso   1.00
O290   O     0.29322   0.47200   0.07885   0.00000  Uiso   1.00
N291   N     0.06386   0.44008   0.03916   0.00000  Uiso   1.00
O292   O     0.02596   0.44808   0.02573   0.00000  Uiso   1.00
O293   O     0.07128   0.40850   0.06836   0.00000  Uiso   1.00
N294   N     0.28287   0.49869   0.46225   0.00000  Uiso   1.00
O295   O     0.31307   0.52681   0.47077   0.00000  Uiso   1.00
O296   O     0.28865   0.46360   0.43692   0.00000  Uiso   1.00
F297   F     0.04027   0.41854   0.24930   0.00000  Uiso   1.00
F298   F     0.29303   0.58146   0.24921   0.00000  Uiso   1.00
F299   F     0.29223   0.41865   0.24427   0.00000  Uiso   1.00
F300   F     0.04103   0.58135   0.25470   0.00000  Uiso   1.00
N301   N     0.20555   0.38153   0.32142   0.00000  Uiso   1.00
O302   O     0.24236   0.39778   0.31720   0.00000  Uiso   1.00
O303   O     0.19015   0.38076   0.36096   0.00000  Uiso   1.00
N304   N     0.12795   0.61845   0.17848   0.00000  Uiso   1.00
O305   O     0.14309   0.62018   0.13884   0.00000  Uiso   1.00
O306   O     0.09128   0.60174   0.18261   0.00000  Uiso   1.00
N307   N     0.12680   0.37968   0.17924   0.00000  Uiso   1.00
O308   O     0.08707   0.38430   0.18002   0.00000  Uiso   1.00
O309   O     0.14448   0.38335   0.14111   0.00000  Uiso   1.00
N310   N     0.20572   0.62016   0.32103   0.00000  Uiso   1.00
O311   O     0.18903   0.61910   0.35988   0.00000  Uiso   1.00
O312   O     0.24440   0.60992   0.31832   0.00000  Uiso   1.00
O313   O     0.43892   0.53821   0.25000   0.00000  Uiso   1.00
O314   O     0.56108   0.46179   0.25000   0.00000  Uiso   1.00
O315   O     0.56108   0.53821   0.25000   0.00000  Uiso   1.00
O316   O     0.43892   0.46179   0.24999   0.00000  Uiso   1.00
C317   C     0.42002   0.49996   0.25061   0.00000  Uiso   1.00
C318   C     0.57996   0.50004   0.24913   0.00000  Uiso   1.00
O319   O     0.49999   0.53823   0.18392   0.00000  Uiso   1.00
O320   O     0.50001   0.46177   0.31607   0.00000  Uiso   1.00
O321   O     0.50001   0.53823   0.31607   0.00000  Uiso   1.00
O322   O     0.49999   0.46177   0.18392   0.00000  Uiso   1.00
C323   C     0.49835   0.49980   0.16360   0.00000  Uiso   1.00
C324   C     0.50147   0.50005   0.33649   0.00000  Uiso   1.00
Zn325  Zn    0.50000   0.55104   0.25000   0.00000  Uiso   1.00
Zn326  Zn    0.50000   0.44896   0.25000   0.00000  Uiso   1.00
C327   C     0.53869   0.50938   0.40965   0.00000  Uiso   1.00
C328   C     0.46202   0.48864   0.09061   0.00000  Uiso   1.00
C329   C     0.50250   0.49885   0.38444   0.00000  Uiso   1.00
C330   C     0.49827   0.49868   0.11588   0.00000  Uiso   1.00
C331   C     0.46800   0.48135   0.40392   0.00000  Uiso   1.00
C332   C     0.53585   0.50446   0.09647   0.00000  Uiso   1.00
C333   C     0.46704   0.47821   0.45054   0.00000  Uiso   1.00
C334   C     0.53837   0.50030   0.05005   0.00000  Uiso   1.00
C335   C     0.50303   0.48985   0.47686   0.00000  Uiso   1.00
C336   C     0.50207   0.48972   0.02376   0.00000  Uiso   1.00
C337   C     0.54002   0.50173   0.45624   0.00000  Uiso   1.00
C338   C     0.46455   0.48009   0.04438   0.00000  Uiso   1.00
C339   C     0.43179   0.46207   0.47137   0.00000  Uiso   1.00
C340   C     0.57635   0.50509   0.02946   0.00000  Uiso   1.00
C341   C     0.43083   0.46203   0.01831   0.00000  Uiso   1.00
C342   C     0.57734   0.50438   0.48257   0.00000  Uiso   1.00
C343   C     0.35424   0.45895   0.24905   0.00000  Uiso   1.00
C344   C     0.64571   0.54104   0.24980   0.00000  Uiso   1.00
C345   C     0.64532   0.45901   0.24732   0.00000  Uiso   1.00
C346   C     0.35463   0.54099   0.25165   0.00000  Uiso   1.00
C347   C     0.62413   0.50005   0.24840   0.00000  Uiso   1.00
C348   C     0.37583   0.49994   0.25078   0.00000  Uiso   1.00
C349   C     0.51871   0.35768   0.28476   0.00000  Uiso   1.00
C350   C     0.48122   0.64230   0.21528   0.00000  Uiso   1.00
C351   C     0.48119   0.35682   0.21532   0.00000  Uiso   1.00
C352   C     0.51861   0.64316   0.28475   0.00000  Uiso   1.00
N353   N     0.50000   0.61907   0.25000   0.00000  Uiso   1.00
N354   N     0.50000   0.38093   0.25000   0.00000  Uiso   1.00
N355   N     0.57285   0.52973   0.38827   0.00000  Uiso   1.00
O356   O     0.58880   0.51039   0.35382   0.00000  Uiso   1.00
O357   O     0.58877   0.56721   0.40405   0.00000  Uiso   1.00
N358   N     0.42268   0.49395   0.11043   0.00000  Uiso   1.00
O359   O     0.41462   0.47386   0.14760   0.00000  Uiso   1.00
O360   O     0.39574   0.52164   0.09269   0.00000  Uiso   1.00
F361   F     0.43546   0.46839   0.37639   0.00000  Uiso   1.00
F362   F     0.56919   0.51610   0.12349   0.00000  Uiso   1.00
N363   N     0.39728   0.44419   0.44526   0.00000  Uiso   1.00
O364   O     0.37164   0.47130   0.42457   0.00000  Uiso   1.00
O365   O     0.38980   0.40117   0.44487   0.00000  Uiso   1.00
N366   N     0.61441   0.50686   0.05579   0.00000  Uiso   1.00
O367   O     0.63436   0.54473   0.06081   0.00000  Uiso   1.00
O368   O     0.62655   0.47200   0.07885   0.00000  Uiso   1.00
N369   N     0.39719   0.44008   0.03916   0.00000  Uiso   1.00
O370   O     0.35929   0.44808   0.02573   0.00000  Uiso   1.00
O371   O     0.40461   0.40850   0.06836   0.00000  Uiso   1.00
N372   N     0.61620   0.49869   0.46225   0.00000  Uiso   1.00
O373   O     0.64640   0.52681   0.47077   0.00000  Uiso   1.00
O374   O     0.62199   0.46360   0.43692   0.00000  Uiso   1.00
F375   F     0.37360   0.41854   0.24930   0.00000  Uiso   1.00
F376   F     0.62636   0.58146   0.24921   0.00000  Uiso   1.00
F377   F     0.62556   0.41865   0.24427   0.00000  Uiso   1.00
F378   F     0.37436   0.58135   0.25470   0.00000  Uiso   1.00
N379   N     0.53889   0.38153   0.32142   0.00000  Uiso   1.00
O380   O     0.57569   0.39778   0.31720   0.00000  Uiso   1.00
O381   O     0.52348   0.38076   0.36096   0.00000  Uiso   1.00
N382   N     0.46128   0.61845   0.17848   0.00000  Uiso   1.00
O383   O     0.47642   0.62018   0.13884   0.00000  Uiso   1.00
O384   O     0.42461   0.60174   0.18261   0.00000  Uiso   1.00
N385   N     0.46014   0.37968   0.17924   0.00000  Uiso   1.00
O386   O     0.42040   0.38430   0.18002   0.00000  Uiso   1.00
O387   O     0.47781   0.38335   0.14111   0.00000  Uiso   1.00
N388   N     0.53906   0.62016   0.32103   0.00000  Uiso   1.00
O389   O     0.52236   0.61910   0.35988   0.00000  Uiso   1.00
O390   O     0.57773   0.60992   0.31832   0.00000  Uiso   1.00
O391   O     0.77226   0.53821   0.25000   0.00000  Uiso   1.00
O392   O     0.89441   0.46179   0.25000   0.00000  Uiso   1.00
O393   O     0.89441   0.53821   0.25000   0.00000  Uiso   1.00
O394   O     0.77226   0.46179   0.24999   0.00000  Uiso   1.00
C395   C     0.75336   0.49996   0.25061   0.00000  Uiso   1.00
C396   C     0.91329   0.50004   0.24913   0.00000  Uiso   1.00
O397   O     0.83333   0.53823   0.18392   0.00000  Uiso   1.00
O398   O     0.83334   0.46177   0.31607   0.00000  Uiso   1.00
O399   O     0.83334   0.53823   0.31607   0.00000  Uiso   1.00
O400   O     0.83333   0.46177   0.18392   0.00000  Uiso   1.00
C401   C     0.83168   0.49980   0.16360   0.00000  Uiso   1.00
C402   C     0.83481   0.50005   0.33649   0.00000  Uiso   1.00
Zn403  Zn    0.83333   0.55104   0.25000   0.00000  Uiso   1.00
Zn404  Zn    0.83333   0.44896   0.25000   0.00000  Uiso   1.00
C405   C     0.87202   0.50938   0.40965   0.00000  Uiso   1.00
C406   C     0.79536   0.48864   0.09061   0.00000  Uiso   1.00
C407   C     0.83583   0.49885   0.38444   0.00000  Uiso   1.00
C408   C     0.83160   0.49868   0.11588   0.00000  Uiso   1.00
C409   C     0.80133   0.48135   0.40392   0.00000  Uiso   1.00
C410   C     0.86918   0.50446   0.09647   0.00000  Uiso   1.00
C411   C     0.80037   0.47821   0.45054   0.00000  Uiso   1.00
C412   C     0.87170   0.50030   0.05005   0.00000  Uiso   1.00
C413   C     0.83636   0.48985   0.47686   0.00000  Uiso   1.00
C414   C     0.83540   0.48972   0.02376   0.00000  Uiso   1.00
C415   C     0.87336   0.50173   0.45624   0.00000  Uiso   1.00
C416   C     0.79788   0.48009   0.04438   0.00000  Uiso   1.00
C417   C     0.76512   0.46207   0.47137   0.00000  Uiso   1.00
C418   C     0.90968   0.50509   0.02946   0.00000  Uiso   1.00
C419   C     0.76416   0.46203   0.01831   0.00000  Uiso   1.00
C420   C     0.91067   0.50438   0.48257   0.00000  Uiso   1.00
C421   C     0.68757   0.45895   0.24905   0.00000  Uiso   1.00
C422   C     0.97905   0.54104   0.24980   0.00000  Uiso   1.00
C423   C     0.97865   0.45901   0.24732   0.00000  Uiso   1.00
C424   C     0.68796   0.54099   0.25165   0.00000  Uiso   1.00
C425   C     0.95746   0.50005   0.24840   0.00000  Uiso   1.00
C426   C     0.70916   0.49994   0.25078   0.00000  Uiso   1.00
C427   C     0.85205   0.35768   0.28476   0.00000  Uiso   1.00
C428   C     0.81455   0.64230   0.21528   0.00000  Uiso   1.00
C429   C     0.81452   0.35682   0.21532   0.00000  Uiso   1.00
C430   C     0.85194   0.64316   0.28475   0.00000  Uiso   1.00
N431   N     0.83333   0.61907   0.25000   0.00000  Uiso   1.00
N432   N     0.83333   0.38093   0.25000   0.00000  Uiso   1.00
N433   N     0.90618   0.52973   0.38827   0.00000  Uiso   1.00
O434   O     0.92213   0.51039   0.35382   0.00000  Uiso   1.00
O435   O     0.92210   0.56721   0.40405   0.00000  Uiso   1.00
N436   N     0.75602   0.49395   0.11043   0.00000  Uiso   1.00
O437   O     0.74795   0.47386   0.14760   0.00000  Uiso   1.00
O438   O     0.72907   0.52164   0.09269   0.00000  Uiso   1.00
F439   F     0.76880   0.46839   0.37639   0.00000  Uiso   1.00
F440   F     0.90252   0.51610   0.12349   0.00000  Uiso   1.00
N441   N     0.73062   0.44419   0.44526   0.00000  Uiso   1.00
O442   O     0.70498   0.47130   0.42457   0.00000  Uiso   1.00
O443   O     0.72313   0.40117   0.44487   0.00000  Uiso   1.00
N444   N     0.94774   0.50686   0.05579   0.00000  Uiso   1.00
O445   O     0.96769   0.54473   0.06081   0.00000  Uiso   1.00
O446   O     0.95988   0.47200   0.07885   0.00000  Uiso   1.00
N447   N     0.73053   0.44008   0.03916   0.00000  Uiso   1.00
O448   O     0.69262   0.44808   0.02573   0.00000  Uiso   1.00
O449   O     0.73795   0.40850   0.06836   0.00000  Uiso   1.00
N450   N     0.94953   0.49869   0.46225   0.00000  Uiso   1.00
O451   O     0.97974   0.52681   0.47077   0.00000  Uiso   1.00
O452   O     0.95532   0.46360   0.43692   0.00000  Uiso   1.00
F453   F     0.70694   0.41854   0.24930   0.00000  Uiso   1.00
F454   F     0.95969   0.58146   0.24921   0.00000  Uiso   1.00
F455   F     0.95890   0.41865   0.24427   0.00000  Uiso   1.00
F456   F     0.70769   0.58135   0.25470   0.00000  Uiso   1.00
N457   N     0.87222   0.38153   0.32142   0.00000  Uiso   1.00
O458   O     0.90903   0.39778   0.31720   0.00000  Uiso   1.00
O459   O     0.85681   0.38076   0.36096   0.00000  Uiso   1.00
N460   N     0.79461   0.61845   0.17848   0.00000  Uiso   1.00
O461   O     0.80976   0.62018   0.13884   0.00000  Uiso   1.00
O462   O     0.75795   0.60174   0.18261   0.00000  Uiso   1.00
N463   N     0.79347   0.37968   0.17924   0.00000  Uiso   1.00
O464   O     0.75373   0.38430   0.18002   0.00000  Uiso   1.00
O465   O     0.81115   0.38335   0.14111   0.00000  Uiso   1.00
N466   N     0.87239   0.62016   0.32103   0.00000  Uiso   1.00
O467   O     0.85569   0.61910   0.35988   0.00000  Uiso   1.00
O468   O     0.91106   0.60992   0.31832   0.00000  Uiso   1.00
O469   O     0.10559   0.87154   0.25000   0.00000  Uiso   1.00
O470   O     0.22774   0.79513   0.25000   0.00000  Uiso   1.00
O471   O     0.22774   0.87154   0.25000   0.00000  Uiso   1.00
O472   O     0.10559   0.79513   0.24999   0.00000  Uiso   1.00
C473   C     0.08669   0.83329   0.25061   0.00000  Uiso   1.00
C474   C     0.24663   0.83338   0.24913   0.00000  Uiso   1.00
O475   O     0.16666   0.87156   0.18392   0.00000  Uiso   1.00
O476   O     0.16667   0.79511   0.31607   0.00000  Uiso   1.00
O477   O     0.16667   0.87156   0.31607   0.00000  Uiso   1.00
O478   O     0.16666   0.79511   0.18392   0.00000  Uiso   1.00
C479   C     0.16501   0.83314   0.16360   0.00000  Uiso   1.00
C480   C     0.16814   0.83338   0.33649   0.00000  Uiso   1.00
Zn481  Zn    0.16667   0.88437   0.25000   0.00000  Uiso   1.00
Zn482  Zn    0.16667   0.78229   0.25000   0.00000  Uiso   1.00
C483   C     0.20535   0.84272   0.40965   0.00000  Uiso   1.00
C484   C     0.12869   0.82197   0.09061   0.00000  Uiso   1.00
C485   C     0.16917   0.83218   0.38444   0.00000  Uiso   1.00
C486   C     0.16494   0.83201   0.11588   0.00000  Uiso   1.00
C487   C     0.13467   0.81469   0.40392   0.00000  Uiso   1.00
C488   C     0.20251   0.83780   0.09647   0.00000  Uiso   1.00
C489   C     0.13370   0.81154   0.45054   0.00000  Uiso   1.00
C490   C     0.20503   0.83364   0.05005   0.00000  Uiso   1.00
C491   C     0.16970   0.82318   0.47686   0.00000  Uiso   1.00
C492   C     0.16874   0.82305   0.02376   0.00000  Uiso   1.00
C493   C     0.20669   0.83506   0.45624   0.00000  Uiso   1.00
C494   C     0.13121   0.81343   0.04438   0.00000  Uiso   1.00
C495   C     0.09845   0.79540   0.47137   0.00000  Uiso   1.00
C496   C     0.24302   0.83842   0.02946   0.00000  Uiso   1.00
C497   C     0.09749   0.79536   0.01831   0.00000  Uiso   1.00
C498   C     0.24400   0.83772   0.48257   0.00000  Uiso   1.00
C499   C     0.02091   0.79228   0.24905   0.00000  Uiso   1.00
C500   C     0.31238   0.87438   0.24980   0.00000  Uiso   1.00
C501   C     0.31198   0.79234   0.24732   0.00000  Uiso   1.00
C502   C     0.02129   0.87432   0.25165   0.00000  Uiso   1.00
C503   C     0.29079   0.83339   0.24840   0.00000  Uiso   1.00
C504   C     0.04249   0.83327   0.25078   0.00000  Uiso   1.00
C505   C     0.18538   0.69102   0.28476   0.00000  Uiso   1.00
C506   C     0.14788   0.97564   0.21528   0.00000  Uiso   1.00
C507   C     0.14785   0.69016   0.21532   0.00000  Uiso   1.00
C508   C     0.18527   0.97649   0.28475   0.00000  Uiso   1.00
N509   N     0.16667   0.95240   0.25000   0.00000  Uiso   1.00
N510   N     0.16667   0.71427   0.25000   0.00000  Uiso   1.00
N511   N     0.23951   0.86306   0.38827   0.00000  Uiso   1.00
O512   O     0.25547   0.84372   0.35382   0.00000  Uiso   1.00
O513   O     0.25544   0.90054   0.40405   0.00000  Uiso   1.00
N514   N     0.08935   0.82728   0.11043   0.00000  Uiso   1.00
O515   O     0.08128   0.80719   0.14760   0.00000  Uiso   1.00
O516   O     0.06241   0.85497   0.09269   0.00000  Uiso   1.00
F517   F     0.10213   0.80172   0.37639   0.00000  Uiso   1.00
F518   F     0.23585   0.84943   0.12349   0.00000  Uiso   1.00
N519   N     0.06395   0.77753   0.44526   0.00000  Uiso   1.00
O520   O     0.03831   0.80463   0.42457   0.00000  Uiso   1.00
O521   O     0.05647   0.73450   0.44487   0.00000  Uiso   1.00
N522   N     0.28108   0.84019   0.05579   0.00000  Uiso   1.00
O523   O     0.30103   0.87807   0.06081   0.00000  Uiso   1.00
O524   O     0.29322   0.80533   0.07885   0.00000  Uiso   1.00
N525   N     0.06386   0.77341   0.03916   0.00000  Uiso   1.00
O526   O     0.02596   0.78141   0.02573   0.00000  Uiso   1.00
O527   O     0.07128   0.74183   0.06836   0.00000  Uiso   1.00
N528   N     0.28287   0.83202   0.46225   0.00000  Uiso   1.00
O529   O     0.31307   0.86015   0.47077   0.00000  Uiso   1.00
O530   O     0.28865   0.79693   0.43692   0.00000  Uiso   1.00
F531   F     0.04027   0.75187   0.24930   0.00000  Uiso   1.00
F532   F     0.29303   0.91479   0.24921   0.00000  Uiso   1.00
F533   F     0.29223   0.75199   0.24427   0.00000  Uiso   1.00
F534   F     0.04103   0.91469   0.25470   0.00000  Uiso   1.00
N535   N     0.20555   0.71486   0.32142   0.00000  Uiso   1.00
O536   O     0.24236   0.73111   0.31720   0.00000  Uiso   1.00
O537   O     0.19015   0.71409   0.36096   0.00000  Uiso   1.00
N538   N     0.12795   0.95179   0.17848   0.00000  Uiso   1.00
O539   O     0.14309   0.95352   0.13884   0.00000  Uiso   1.00
O540   O     0.09128   0.93508   0.18261   0.00000  Uiso   1.00
N541   N     0.12680   0.71301   0.17924   0.00000  Uiso   1.00
O542   O     0.08707   0.71763   0.18002   0.00000  Uiso   1.00
O543   O     0.14448   0.71668   0.14111   0.00000  Uiso   1.00
N544   N     0.20572   0.95349   0.32103   0.00000  Uiso   1.00
O545   O     0.18903   0.95243   0.35988   0.00000  Uiso   1.00
O546   O     0.24440   0.94326   0.31832   0.00000  Uiso   1.00
O547   O     0.43892   0.87154   0.25000   0.00000  Uiso   1.00
O548   O     0.56108   0.79513   0.25000   0.00000  Uiso   1.00
O549   O     0.56108   0.87154   0.25000   0.00000  Uiso   1.00
O550   O     0.43892   0.79513   0.24999   0.00000  Uiso   1.00
C551   C     0.42002   0.83329   0.25061   0.00000  Uiso   1.00
C552   C     0.57996   0.83338   0.24913   0.00000  Uiso   1.00
O553   O     0.49999   0.87156   0.18392   0.00000  Uiso   1.00
O554   O     0.50001   0.79511   0.31607   0.00000  Uiso   1.00
O555   O     0.50001   0.87156   0.31607   0.00000  Uiso   1.00
O556   O     0.49999   0.79511   0.18392   0.00000  Uiso   1.00
C557   C     0.49835   0.83314   0.16360   0.00000  Uiso   1.00
C558   C     0.50147   0.83338   0.33649   0.00000  Uiso   1.00
Zn559  Zn    0.50000   0.88437   0.25000   0.00000  Uiso   1.00
Zn560  Zn    0.50000   0.78229   0.25000   0.00000  Uiso   1.00
C561   C     0.53869   0.84272   0.40965   0.00000  Uiso   1.00
C562   C     0.46202   0.82197   0.09061   0.00000  Uiso   1.00
C563   C     0.50250   0.83218   0.38444   0.00000  Uiso   1.00
C564   C     0.49827   0.83201   0.11588   0.00000  Uiso   1.00
C565   C     0.46800   0.81469   0.40392   0.00000  Uiso   1.00
C566   C     0.53585   0.83780   0.09647   0.00000  Uiso   1.00
C567   C     0.46704   0.81154   0.45054   0.00000  Uiso   1.00
C568   C     0.53837   0.83364   0.05005   0.00000  Uiso   1.00
C569   C     0.50303   0.82318   0.47686   0.00000  Uiso   1.00
C570   C     0.50207   0.82305   0.02376   0.00000  Uiso   1.00
C571   C     0.54002   0.83506   0.45624   0.00000  Uiso   1.00
C572   C     0.46455   0.81343   0.04438   0.00000  Uiso   1.00
C573   C     0.43179   0.79540   0.47137   0.00000  Uiso   1.00
C574   C     0.57635   0.83842   0.02946   0.00000  Uiso   1.00
C575   C     0.43083   0.79536   0.01831   0.00000  Uiso   1.00
C576   C     0.57734   0.83772   0.48257   0.00000  Uiso   1.00
C577   C     0.35424   0.79228   0.24905   0.00000  Uiso   1.00
C578   C     0.64571   0.87438   0.24980   0.00000  Uiso   1.00
C579   C     0.64532   0.79234   0.24732   0.00000  Uiso   1.00
C580   C     0.35463   0.87432   0.25165   0.00000  Uiso   1.00
C581   C     0.62413   0.83339   0.24840   0.00000  Uiso   1.00
C582   C     0.37583   0.83327   0.25078   0.00000  Uiso   1.00
C583   C     0.51871   0.69102   0.28476   0.00000  Uiso   1.00
C584   C     0.48122   0.97564   0.21528   0.00000  Uiso   1.00
C585   C     0.48119   0.69016   0.21532   0.00000  Uiso   1.00
C586   C     0.51861   0.97649   0.28475   0.00000  Uiso   1.00
N587   N     0.50000   0.95240   0.25000   0.00000  Uiso   1.00
N588   N     0.50000   0.71427   0.25000   0.00000  Uiso   1.00
N589   N     0.57285   0.86306   0.38827   0.00000  Uiso   1.00
O590   O     0.58880   0.84372   0.35382   0.00000  Uiso   1.00
O591   O     0.58877   0.90054   0.40405   0.00000  Uiso   1.00
N592   N     0.42268   0.82728   0.11043   0.00000  Uiso   1.00
O593   O     0.41462   0.80719   0.14760   0.00000  Uiso   1.00
O594   O     0.39574   0.85497   0.09269   0.00000  Uiso   1.00
F595   F     0.43546   0.80172   0.37639   0.00000  Uiso   1.00
F596   F     0.56919   0.84943   0.12349   0.00000  Uiso   1.00
N597   N     0.39728   0.77753   0.44526   0.00000  Uiso   1.00
O598   O     0.37164   0.80463   0.42457   0.00000  Uiso   1.00
O599   O     0.38980   0.73450   0.44487   0.00000  Uiso   1.00
N600   N     0.61441   0.84019   0.05579   0.00000  Uiso   1.00
O601   O     0.63436   0.87807   0.06081   0.00000  Uiso   1.00
O602   O     0.62655   0.80533   0.07885   0.00000  Uiso   1.00
N603   N     0.39719   0.77341   0.03916   0.00000  Uiso   1.00
O604   O     0.35929   0.78141   0.02573   0.00000  Uiso   1.00
O605   O     0.40461   0.74183   0.06836   0.00000  Uiso   1.00
N606   N     0.61620   0.83202   0.46225   0.00000  Uiso   1.00
O607   O     0.64640   0.86015   0.47077   0.00000  Uiso   1.00
O608   O     0.62199   0.79693   0.43692   0.00000  Uiso   1.00
F609   F     0.37360   0.75187   0.24930   0.00000  Uiso   1.00
F610   F     0.62636   0.91479   0.24921   0.00000  Uiso   1.00
F611   F     0.62556   0.75199   0.24427   0.00000  Uiso   1.00
F612   F     0.37436   0.91469   0.25470   0.00000  Uiso   1.00
N613   N     0.53889   0.71486   0.32142   0.00000  Uiso   1.00
O614   O     0.57569   0.73111   0.31720   0.00000  Uiso   1.00
O615   O     0.52348   0.71409   0.36096   0.00000  Uiso   1.00
N616   N     0.46128   0.95179   0.17848   0.00000  Uiso   1.00
O617   O     0.47642   0.95352   0.13884   0.00000  Uiso   1.00
O618   O     0.42461   0.93508   0.18261   0.00000  Uiso   1.00
N619   N     0.46014   0.71301   0.17924   0.00000  Uiso   1.00
O620   O     0.42040   0.71763   0.18002   0.00000  Uiso   1.00
O621   O     0.47781   0.71668   0.14111   0.00000  Uiso   1.00
N622   N     0.53906   0.95349   0.32103   0.00000  Uiso   1.00
O623   O     0.52236   0.95243   0.35988   0.00000  Uiso   1.00
O624   O     0.57773   0.94326   0.31832   0.00000  Uiso   1.00
O625   O     0.77226   0.87154   0.25000   0.00000  Uiso   1.00
O626   O     0.89441   0.79513   0.25000   0.00000  Uiso   1.00
O627   O     0.89441   0.87154   0.25000   0.00000  Uiso   1.00
O628   O     0.77226   0.79513   0.24999   0.00000  Uiso   1.00
C629   C     0.75336   0.83329   0.25061   0.00000  Uiso   1.00
C630   C     0.91329   0.83338   0.24913   0.00000  Uiso   1.00
O631   O     0.83333   0.87156   0.18392   0.00000  Uiso   1.00
O632   O     0.83334   0.79511   0.31607   0.00000  Uiso   1.00
O633   O     0.83334   0.87156   0.31607   0.00000  Uiso   1.00
O634   O     0.83333   0.79511   0.18392   0.00000  Uiso   1.00
C635   C     0.83168   0.83314   0.16360   0.00000  Uiso   1.00
C636   C     0.83481   0.83338   0.33649   0.00000  Uiso   1.00
Zn637  Zn    0.83333   0.88437   0.25000   0.00000  Uiso   1.00
Zn638  Zn    0.83333   0.78229   0.25000   0.00000  Uiso   1.00
C639   C     0.87202   0.84272   0.40965   0.00000  Uiso   1.00
C640   C     0.79536   0.82197   0.09061   0.00000  Uiso   1.00
C641   C     0.83583   0.83218   0.38444   0.00000  Uiso   1.00
C642   C     0.83160   0.83201   0.11588   0.00000  Uiso   1.00
C643   C     0.80133   0.81469   0.40392   0.00000  Uiso   1.00
C644   C     0.86918   0.83780   0.09647   0.00000  Uiso   1.00
C645   C     0.80037   0.81154   0.45054   0.00000  Uiso   1.00
C646   C     0.87170   0.83364   0.05005   0.00000  Uiso   1.00
C647   C     0.83636   0.82318   0.47686   0.00000  Uiso   1.00
C648   C     0.83540   0.82305   0.02376   0.00000  Uiso   1.00
C649   C     0.87336   0.83506   0.45624   0.00000  Uiso   1.00
C650   C     0.79788   0.81343   0.04438   0.00000  Uiso   1.00
C651   C     0.76512   0.79540   0.47137   0.00000  Uiso   1.00
C652   C     0.90968   0.83842   0.02946   0.00000  Uiso   1.00
C653   C     0.76416   0.79536   0.01831   0.00000  Uiso   1.00
C654   C     0.91067   0.83772   0.48257   0.00000  Uiso   1.00
C655   C     0.68757   0.79228   0.24905   0.00000  Uiso   1.00
C656   C     0.97905   0.87438   0.24980   0.00000  Uiso   1.00
C657   C     0.97865   0.79234   0.24732   0.00000  Uiso   1.00
C658   C     0.68796   0.87432   0.25165   0.00000  Uiso   1.00
C659   C     0.95746   0.83339   0.24840   0.00000  Uiso   1.00
C660   C     0.70916   0.83327   0.25078   0.00000  Uiso   1.00
C661   C     0.85205   0.69102   0.28476   0.00000  Uiso   1.00
C662   C     0.81455   0.97564   0.21528   0.00000  Uiso   1.00
C663   C     0.81452   0.69016   0.21532   0.00000  Uiso   1.00
C664   C     0.85194   0.97649   0.28475   0.00000  Uiso   1.00
N665   N     0.83333   0.95240   0.25000   0.00000  Uiso   1.00
N666   N     0.83333   0.71427   0.25000   0.00000  Uiso   1.00
N667   N     0.90618   0.86306   0.38827   0.00000  Uiso   1.00
O668   O     0.92213   0.84372   0.35382   0.00000  Uiso   1.00
O669   O     0.92210   0.90054   0.40405   0.00000  Uiso   1.00
N670   N     0.75602   0.82728   0.11043   0.00000  Uiso   1.00
O671   O     0.74795   0.80719   0.14760   0.00000  Uiso   1.00
O672   O     0.72907   0.85497   0.09269   0.00000  Uiso   1.00
F673   F     0.76880   0.80172   0.37639   0.00000  Uiso   1.00
F674   F     0.90252   0.84943   0.12349   0.00000  Uiso   1.00
N675   N     0.73062   0.77753   0.44526   0.00000  Uiso   1.00
O676   O     0.70498   0.80463   0.42457   0.00000  Uiso   1.00
O677   O     0.72313   0.73450   0.44487   0.00000  Uiso   1.00
N678   N     0.94774   0.84019   0.05579   0.00000  Uiso   1.00
O679   O     0.96769   0.87807   0.06081   0.00000  Uiso   1.00
O680   O     0.95988   0.80533   0.07885   0.00000  Uiso   1.00
N681   N     0.73053   0.77341   0.03916   0.00000  Uiso   1.00
O682   O     0.69262   0.78141   0.02573   0.00000  Uiso   1.00
O683   O     0.73795   0.74183   0.06836   0.00000  Uiso   1.00
N684   N     0.94953   0.83202   0.46225   0.00000  Uiso   1.00
O685   O     0.97974   0.86015   0.47077   0.00000  Uiso   1.00
O686   O     0.95532   0.79693   0.43692   0.00000  Uiso   1.00
F687   F     0.70694   0.75187   0.24930   0.00000  Uiso   1.00
F688   F     0.95969   0.91479   0.24921   0.00000  Uiso   1.00
F689   F     0.95890   0.75199   0.24427   0.00000  Uiso   1.00
F690   F     0.70769   0.91469   0.25470   0.00000  Uiso   1.00
N691   N     0.87222   0.71486   0.32142   0.00000  Uiso   1.00
O692   O     0.90903   0.73111   0.31720   0.00000  Uiso   1.00
O693   O     0.85681   0.71409   0.36096   0.00000  Uiso   1.00
N694   N     0.79461   0.95179   0.17848   0.00000  Uiso   1.00
O695   O     0.80976   0.95352   0.13884   0.00000  Uiso   1.00
O696   O     0.75795   0.93508   0.18261   0.00000  Uiso   1.00
N697   N     0.79347   0.71301   0.17924   0.00000  Uiso   1.00
O698   O     0.75373   0.71763   0.18002   0.00000  Uiso   1.00
O699   O     0.81115   0.71668   0.14111   0.00000  Uiso   1.00
N700   N     0.87239   0.95349   0.32103   0.00000  Uiso   1.00
O701   O     0.85569   0.95243   0.35988   0.00000  Uiso   1.00
O702   O     0.91106   0.94326   0.31832   0.00000  Uiso   1.00
O703   O     0.10559   0.20487   0.75000   0.00000  Uiso   1.00
O704   O     0.22774   0.12846   0.75000   0.00000  Uiso   1.00
O705   O     0.22774   0.20487   0.75000   0.00000  Uiso   1.00
O706   O     0.10559   0.12846   0.74999   0.00000  Uiso   1.00
C707   C     0.08669   0.16662   0.75061   0.00000  Uiso   1.00
C708   C     0.24663   0.16671   0.74913   0.00000  Uiso   1.00
O709   O     0.16666   0.20489   0.68392   0.00000  Uiso   1.00
O710   O     0.16667   0.12844   0.81607   0.00000  Uiso   1.00
O711   O     0.16667   0.20489   0.81607   0.00000  Uiso   1.00
O712   O     0.16666   0.12844   0.68392   0.00000  Uiso   1.00
C713   C     0.16501   0.16647   0.66360   0.00000  Uiso   1.00
C714   C     0.16814   0.16671   0.83649   0.00000  Uiso   1.00
Zn715  Zn    0.16667   0.21771   0.75000   0.00000  Uiso   1.00
Zn716  Zn    0.16667   0.11563   0.75000   0.00000  Uiso   1.00
C717   C     0.20535   0.17605   0.90965   0.00000  Uiso   1.00
C718   C     0.12869   0.15531   0.59061   0.00000  Uiso   1.00
C719   C     0.16917   0.16552   0.88444   0.00000  Uiso   1.00
C720   C     0.16494   0.16535   0.61588   0.00000  Uiso   1.00
C721   C     0.13467   0.14802   0.90392   0.00000  Uiso   1.00
C722   C     0.20251   0.17113   0.59647   0.00000  Uiso   1.00
C723   C     0.13370   0.14487   0.95054   0.00000  Uiso   1.00
C724   C     0.20503   0.16697   0.55005   0.00000  Uiso   1.00
C725   C     0.16970   0.15651   0.97686   0.00000  Uiso   1.00
C726   C     0.16874   0.15639   0.52376   0.00000  Uiso   1.00
C727   C     0.20669   0.16839   0.95624   0.00000  Uiso   1.00
C728   C     0.13121   0.14676   0.54438   0.00000  Uiso   1.00
C729   C     0.09845   0.12873   0.97137   0.00000  Uiso   1.00
C730   C     0.24302   0.17175   0.52946   0.00000  Uiso   1.00
C731   C     0.09749   0.12870   0.51831   0.00000  Uiso   1.00
C732   C     0.24400   0.17105   0.98257   0.00000  Uiso   1.00
C733   C     0.02091   0.12562   0.74905   0.00000  Uiso   1.00
C734   C     0.31238   0.20771   0.74980   0.00000  Uiso   1.00
C735   C     0.31198   0.12568   0.74732   0.00000  Uiso   1.00
C736   C     0.02129   0.20765   0.75165   0.00000  Uiso   1.00
C737   C     0.29079   0.16672   0.74840   0.00000  Uiso   1.00
C738   C     0.04249   0.16661   0.75078   0.00000  Uiso   1.00
C739   C     0.18538   0.02435   0.78476   0.00000  Uiso   1.00
C740   C     0.14788   0.30897   0.71528   0.00000  Uiso   1.00
C741   C     0.14785   0.02349   0.71532   0.00000  Uiso   1.00
C742   C     0.18527   0.30983   0.78475   0.00000  Uiso   1.00
N743   N     0.16667   0.28573   0.75000   0.00000  Uiso   1.00
N744   N     0.16667   0.04760   0.75000   0.00000  Uiso   1.00
N745   N     0.23951   0.19640   0.88827   0.00000  Uiso   1.00
O746   O     0.25547   0.17706   0.85382   0.00000  Uiso   1.00
O747   O     0.25544   0.23387   0.90405   0.00000  Uiso   1.00
N748   N     0.08935   0.16062   0.61043   0.00000  Uiso   1.00
O749   O     0.08128   0.14052   0.64760   0.00000  Uiso   1.00
O750   O     0.06241   0.18830   0.59269   0.00000  Uiso   1.00
F751   F     0.10213   0.13506   0.87639   0.00000  Uiso   1.00
F752   F     0.23585   0.18276   0.62349   0.00000  Uiso   1.00
N753   N     0.06395   0.11086   0.94526   0.00000  Uiso   1.00
O754   O     0.03831   0.13796   0.92457   0.00000  Uiso   1.00
O755   O     0.05647   0.06783   0.94487   0.00000  Uiso   1.00
N756   N     0.28108   0.17353   0.55579   0.00000  Uiso   1.00
O757   O     0.30103   0.21140   0.56081   0.00000  Uiso   1.00
O758   O     0.29322   0.13866   0.57885   0.00000  Uiso   1.00
N759   N     0.06386   0.10674   0.53916   0.00000  Uiso   1.00
O760   O     0.02596   0.11474   0.52573   0.00000  Uiso   1.00
O761   O     0.07128   0.07517   0.56836   0.00000  Uiso   1.00
N762   N     0.28287   0.16535   0.96225   0.00000  Uiso   1.00
O763   O     0.31307   0.19348   0.97077   0.00000  Uiso   1.00
O764   O     0.28865   0.13026   0.93692   0.00000  Uiso   1.00
F765   F     0.04027   0.08520   0.74930   0.00000  Uiso   1.00
F766   F     0.29303   0.24813   0.74921   0.00000  Uiso   1.00
F767   F     0.29223   0.08532   0.74427   0.00000  Uiso   1.00
F768   F     0.04103   0.24802   0.75470   0.00000  Uiso   1.00
N769   N     0.20555   0.04819   0.82142   0.00000  Uiso   1.00
O770   O     0.24236   0.06445   0.81720   0.00000  Uiso   1.00
O771   O     0.19015   0.04743   0.86096   0.00000  Uiso   1.00
N772   N     0.12795   0.28512   0.67848   0.00000  Uiso   1.00
O773   O     0.14309   0.28685   0.63884   0.00000  Uiso   1.00
O774   O     0.09128   0.26841   0.68261   0.00000  Uiso   1.00
N775   N     0.12680   0.04635   0.67924   0.00000  Uiso   1.00
O776   O     0.08707   0.05097   0.68002   0.00000  Uiso   1.00
O777   O     0.14448   0.05002   0.64111   0.00000  Uiso   1.00
N778   N     0.20572   0.28682   0.82103   0.00000  Uiso   1.00
O779   O     0.18903   0.28576   0.85988   0.00000  Uiso   1.00
O780   O     0.24440   0.27659   0.81832   0.00000  Uiso   1.00
O781   O     0.43892   0.20487   0.75000   0.00000  Uiso   1.00
O782   O     0.56108   0.12846   0.75000   0.00000  Uiso   1.00
O783   O     0.56108   0.20487   0.75000   0.00000  Uiso   1.00
O784   O     0.43892   0.12846   0.74999   0.00000  Uiso   1.00
C785   C     0.42002   0.16662   0.75061   0.00000  Uiso   1.00
C786   C     0.57996   0.16671   0.74913   0.00000  Uiso   1.00
O787   O     0.49999   0.20489   0.68392   0.00000  Uiso   1.00
O788   O     0.50001   0.12844   0.81607   0.00000  Uiso   1.00
O789   O     0.50001   0.20489   0.81607   0.00000  Uiso   1.00
O790   O     0.49999   0.12844   0.68392   0.00000  Uiso   1.00
C791   C     0.49835   0.16647   0.66360   0.00000  Uiso   1.00
C792   C     0.50147   0.16671   0.83649   0.00000  Uiso   1.00
Zn793  Zn    0.50000   0.21771   0.75000   0.00000  Uiso   1.00
Zn794  Zn    0.50000   0.11563   0.75000   0.00000  Uiso   1.00
C795   C     0.53869   0.17605   0.90965   0.00000  Uiso   1.00
C796   C     0.46202   0.15531   0.59061   0.00000  Uiso   1.00
C797   C     0.50250   0.16552   0.88444   0.00000  Uiso   1.00
C798   C     0.49827   0.16535   0.61588   0.00000  Uiso   1.00
C799   C     0.46800   0.14802   0.90392   0.00000  Uiso   1.00
C800   C     0.53585   0.17113   0.59647   0.00000  Uiso   1.00
C801   C     0.46704   0.14487   0.95054   0.00000  Uiso   1.00
C802   C     0.53837   0.16697   0.55005   0.00000  Uiso   1.00
C803   C     0.50303   0.15651   0.97686   0.00000  Uiso   1.00
C804   C     0.50207   0.15639   0.52376   0.00000  Uiso   1.00
C805   C     0.54002   0.16839   0.95624   0.00000  Uiso   1.00
C806   C     0.46455   0.14676   0.54438   0.00000  Uiso   1.00
C807   C     0.43179   0.12873   0.97137   0.00000  Uiso   1.00
C808   C     0.57635   0.17175   0.52946   0.00000  Uiso   1.00
C809   C     0.43083   0.12870   0.51831   0.00000  Uiso   1.00
C810   C     0.57734   0.17105   0.98257   0.00000  Uiso   1.00
C811   C     0.35424   0.12562   0.74905   0.00000  Uiso   1.00
C812   C     0.64571   0.20771   0.74980   0.00000  Uiso   1.00
C813   C     0.64532   0.12568   0.74732   0.00000  Uiso   1.00
C814   C     0.35463   0.20765   0.75165   0.00000  Uiso   1.00
C815   C     0.62413   0.16672   0.74840   0.00000  Uiso   1.00
C816   C     0.37583   0.16661   0.75078   0.00000  Uiso   1.00
C817   C     0.51871   0.02435   0.78476   0.00000  Uiso   1.00
C818   C     0.48122   0.30897   0.71528   0.00000  Uiso   1.00
C819   C     0.48119   0.02349   0.71532   0.00000  Uiso   1.00
C820   C     0.51861   0.30983   0.78475   0.00000  Uiso   1.00
N821   N     0.50000   0.28573   0.75000   0.00000  Uiso   1.00
N822   N     0.50000   0.04760   0.75000   0.00000  Uiso   1.00
N823   N     0.57285   0.19640   0.88827   0.00000  Uiso   1.00
O824   O     0.58880   0.17706   0.85382   0.00000  Uiso   1.00
O825   O     0.58877   0.23387   0.90405   0.00000  Uiso   1.00
N826   N     0.42268   0.16062   0.61043   0.00000  Uiso   1.00
O827   O     0.41462   0.14052   0.64760   0.00000  Uiso   1.00
O828   O     0.39574   0.18830   0.59269   0.00000  Uiso   1.00
F829   F     0.43546   0.13506   0.87639   0.00000  Uiso   1.00
F830   F     0.56919   0.18276   0.62349   0.00000  Uiso   1.00
N831   N     0.39728   0.11086   0.94526   0.00000  Uiso   1.00
O832   O     0.37164   0.13796   0.92457   0.00000  Uiso   1.00
O833   O     0.38980   0.06783   0.94487   0.00000  Uiso   1.00
N834   N     0.61441   0.17353   0.55579   0.00000  Uiso   1.00
O835   O     0.63436   0.21140   0.56081   0.00000  Uiso   1.00
O836   O     0.62655   0.13866   0.57885   0.00000  Uiso   1.00
N837   N     0.39719   0.10674   0.53916   0.00000  Uiso   1.00
O838   O     0.35929   0.11474   0.52573   0.00000  Uiso   1.00
O839   O     0.40461   0.07517   0.56836   0.00000  Uiso   1.00
N840   N     0.61620   0.16535   0.96225   0.00000  Uiso   1.00
O841   O     0.64640   0.19348   0.97077   0.00000  Uiso   1.00
O842   O     0.62199   0.13026   0.93692   0.00000  Uiso   1.00
F843   F     0.37360   0.08520   0.74930   0.00000  Uiso   1.00
F844   F     0.62636   0.24813   0.74921   0.00000  Uiso   1.00
F845   F     0.62556   0.08532   0.74427   0.00000  Uiso   1.00
F846   F     0.37436   0.24802   0.75470   0.00000  Uiso   1.00
N847   N     0.53889   0.04819   0.82142   0.00000  Uiso   1.00
O848   O     0.57569   0.06445   0.81720   0.00000  Uiso   1.00
O849   O     0.52348   0.04743   0.86096   0.00000  Uiso   1.00
N850   N     0.46128   0.28512   0.67848   0.00000  Uiso   1.00
O851   O     0.47642   0.28685   0.63884   0.00000  Uiso   1.00
O852   O     0.42461   0.26841   0.68261   0.00000  Uiso   1.00
N853   N     0.46014   0.04635   0.67924   0.00000  Uiso   1.00
O854   O     0.42040   0.05097   0.68002   0.00000  Uiso   1.00
O855   O     0.47781   0.05002   0.64111   0.00000  Uiso   1.00
N856   N     0.53906   0.28682   0.82103   0.00000  Uiso   1.00
O857   O     0.52236   0.28576   0.85988   0.00000  Uiso   1.00
O858   O     0.57773   0.27659   0.81832   0.00000  Uiso   1.00
O859   O     0.77226   0.20487   0.75000   0.00000  Uiso   1.00
O860   O     0.89441   0.12846   0.75000   0.00000  Uiso   1.00
O861   O     0.89441   0.20487   0.75000   0.00000  Uiso   1.00
O862   O     0.77226   0.12846   0.74999   0.00000  Uiso   1.00
C863   C     0.75336   0.16662   0.75061   0.00000  Uiso   1.00
C864   C     0.91329   0.16671   0.74913   0.00000  Uiso   1.00
O865   O     0.83333   0.20489   0.68392   0.00000  Uiso   1.00
O866   O     0.83334   0.12844   0.81607   0.00000  Uiso   1.00
O867   O     0.83334   0.20489   0.81607   0.00000  Uiso   1.00
O868   O     0.83333   0.12844   0.68392   0.00000  Uiso   1.00
C869   C     0.83168   0.16647   0.66360   0.00000  Uiso   1.00
C870   C     0.83481   0.16671   0.83649   0.00000  Uiso   1.00
Zn871  Zn    0.83333   0.21771   0.75000   0.00000  Uiso   1.00
Zn872  Zn    0.83333   0.11563   0.75000   0.00000  Uiso   1.00
C873   C     0.87202   0.17605   0.90965   0.00000  Uiso   1.00
C874   C     0.79536   0.15531   0.59061   0.00000  Uiso   1.00
C875   C     0.83583   0.16552   0.88444   0.00000  Uiso   1.00
C876   C     0.83160   0.16535   0.61588   0.00000  Uiso   1.00
C877   C     0.80133   0.14802   0.90392   0.00000  Uiso   1.00
C878   C     0.86918   0.17113   0.59647   0.00000  Uiso   1.00
C879   C     0.80037   0.14487   0.95054   0.00000  Uiso   1.00
C880   C     0.87170   0.16697   0.55005   0.00000  Uiso   1.00
C881   C     0.83636   0.15651   0.97686   0.00000  Uiso   1.00
C882   C     0.83540   0.15639   0.52376   0.00000  Uiso   1.00
C883   C     0.87336   0.16839   0.95624   0.00000  Uiso   1.00
C884   C     0.79788   0.14676   0.54438   0.00000  Uiso   1.00
C885   C     0.76512   0.12873   0.97137   0.00000  Uiso   1.00
C886   C     0.90968   0.17175   0.52946   0.00000  Uiso   1.00
C887   C     0.76416   0.12870   0.51831   0.00000  Uiso   1.00
C888   C     0.91067   0.17105   0.98257   0.00000  Uiso   1.00
C889   C     0.68757   0.12562   0.74905   0.00000  Uiso   1.00
C890   C     0.97905   0.20771   0.74980   0.00000  Uiso   1.00
C891   C     0.97865   0.12568   0.74732   0.00000  Uiso   1.00
C892   C     0.68796   0.20765   0.75165   0.00000  Uiso   1.00
C893   C     0.95746   0.16672   0.74840   0.00000  Uiso   1.00
C894   C     0.70916   0.16661   0.75078   0.00000  Uiso   1.00
C895   C     0.85205   0.02435   0.78476   0.00000  Uiso   1.00
C896   C     0.81455   0.30897   0.71528   0.00000  Uiso   1.00
C897   C     0.81452   0.02349   0.71532   0.00000  Uiso   1.00
C898   C     0.85194   0.30983   0.78475   0.00000  Uiso   1.00
N899   N     0.83333   0.28573   0.75000   0.00000  Uiso   1.00
N900   N     0.83333   0.04760   0.75000   0.00000  Uiso   1.00
N901   N     0.90618   0.19640   0.88827   0.00000  Uiso   1.00
O902   O     0.92213   0.17706   0.85382   0.00000  Uiso   1.00
O903   O     0.92210   0.23387   0.90405   0.00000  Uiso   1.00
N904   N     0.75602   0.16062   0.61043   0.00000  Uiso   1.00
O905   O     0.74795   0.14052   0.64760   0.00000  Uiso   1.00
O906   O     0.72907   0.18830   0.59269   0.00000  Uiso   1.00
F907   F     0.76880   0.13506   0.87639   0.00000  Uiso   1.00
F908   F     0.90252   0.18276   0.62349   0.00000  Uiso   1.00
N909   N     0.73062   0.11086   0.94526   0.00000  Uiso   1.00
O910   O     0.70498   0.13796   0.92457   0.00000  Uiso   1.00
O911   O     0.72313   0.06783   0.94487   0.00000  Uiso   1.00
N912   N     0.94774   0.17353   0.55579   0.00000  Uiso   1.00
O913   O     0.96769   0.21140   0.56081   0.00000  Uiso   1.00
O914   O     0.95988   0.13866   0.57885   0.00000  Uiso   1.00
N915   N     0.73053   0.10674   0.53916   0.00000  Uiso   1.00
O916   O     0.69262   0.11474   0.52573   0.00000  Uiso   1.00
O917   O     0.73795   0.07517   0.56836   0.00000  Uiso   1.00
N918   N     0.94953   0.16535   0.96225   0.00000  Uiso   1.00
O919   O     0.97974   0.19348   0.97077   0.00000  Uiso   1.00
O920   O     0.95532   0.13026   0.93692   0.00000  Uiso   1.00
F921   F     0.70694   0.08520   0.74930   0.00000  Uiso   1.00
F922   F     0.95969   0.24813   0.74921   0.00000  Uiso   1.00
F923   F     0.95890   0.08532   0.74427   0.00000  Uiso   1.00
F924   F     0.70769   0.24802   0.75470   0.00000  Uiso   1.00
N925   N     0.87222   0.04819   0.82142   0.00000  Uiso   1.00
O926   O     0.90903   0.06445   0.81720   0.00000  Uiso   1.00
O927   O     0.85681   0.04743   0.86096   0.00000  Uiso   1.00
N928   N     0.79461   0.28512   0.67848   0.00000  Uiso   1.00
O929   O     0.80976   0.28685   0.63884   0.00000  Uiso   1.00
O930   O     0.75795   0.26841   0.68261   0.00000  Uiso   1.00
N931   N     0.79347   0.04635   0.67924   0.00000  Uiso   1.00
O932   O     0.75373   0.05097   0.68002   0.00000  Uiso   1.00
O933   O     0.81115   0.05002   0.64111   0.00000  Uiso   1.00
N934   N     0.87239   0.28682   0.82103   0.00000  Uiso   1.00
O935   O     0.85569   0.28576   0.85988   0.00000  Uiso   1.00
O936   O     0.91106   0.27659   0.81832   0.00000  Uiso   1.00
O937   O     0.10559   0.53821   0.75000   0.00000  Uiso   1.00
O938   O     0.22774   0.46179   0.75000   0.00000  Uiso   1.00
O939   O     0.22774   0.53821   0.75000   0.00000  Uiso   1.00
O940   O     0.10559   0.46179   0.74999   0.00000  Uiso   1.00
C941   C     0.08669   0.49996   0.75061   0.00000  Uiso   1.00
C942   C     0.24663   0.50004   0.74913   0.00000  Uiso   1.00
O943   O     0.16666   0.53823   0.68392   0.00000  Uiso   1.00
O944   O     0.16667   0.46177   0.81607   0.00000  Uiso   1.00
O945   O     0.16667   0.53823   0.81607   0.00000  Uiso   1.00
O946   O     0.16666   0.46177   0.68392   0.00000  Uiso   1.00
C947   C     0.16501   0.49980   0.66360   0.00000  Uiso   1.00
C948   C     0.16814   0.50005   0.83649   0.00000  Uiso   1.00
Zn949  Zn    0.16667   0.55104   0.75000   0.00000  Uiso   1.00
Zn950  Zn    0.16667   0.44896   0.75000   0.00000  Uiso   1.00
C951   C     0.20535   0.50938   0.90965   0.00000  Uiso   1.00
C952   C     0.12869   0.48864   0.59061   0.00000  Uiso   1.00
C953   C     0.16917   0.49885   0.88444   0.00000  Uiso   1.00
C954   C     0.16494   0.49868   0.61588   0.00000  Uiso   1.00
C955   C     0.13467   0.48135   0.90392   0.00000  Uiso   1.00
C956   C     0.20251   0.50446   0.59647   0.00000  Uiso   1.00
C957   C     0.13370   0.47821   0.95054   0.00000  Uiso   1.00
C958   C     0.20503   0.50030   0.55005   0.00000  Uiso   1.00
C959   C     0.16970   0.48985   0.97686   0.00000  Uiso   1.00
C960   C     0.16874   0.48972   0.52376   0.00000  Uiso   1.00
C961   C     0.20669   0.50173   0.95624   0.00000  Uiso   1.00
C962   C     0.13121   0.48009   0.54438   0.00000  Uiso   1.00
C963   C     0.09845   0.46207   0.97137   0.00000  Uiso   1.00
C964   C     0.24302   0.50509   0.52946   0.00000  Uiso   1.00
C965   C     0.09749   0.46203   0.51831   0.00000  Uiso   1.00
C966   C     0.24400   0.50438   0.98257   0.00000  Uiso   1.00
C967   C     0.02091   0.45895   0.74905   0.00000  Uiso   1.00
C968   C     0.31238   0.54104   0.74980   0.00000  Uiso   1.00
C969   C     0.31198   0.45901   0.74732   0.00000  Uiso   1.00
C970   C     0.02129   0.54099   0.75165   0.00000  Uiso   1.00
C971   C     0.29079   0.50005   0.74840   0.00000  Uiso   1.00
C972   C     0.04249   0.49994   0.75078   0.00000  Uiso   1.00
C973   C     0.18538   0.35768   0.78476   0.00000  Uiso   1.00
C974   C     0.14788   0.64230   0.71528   0.00000  Uiso   1.00
C975   C     0.14785   0.35682   0.71532   0.00000  Uiso   1.00
C976   C     0.18527   0.64316   0.78475   0.00000  Uiso   1.00
N977   N     0.16667   0.61907   0.75000   0.00000  Uiso   1.00
N978   N     0.16667   0.38093   0.75000   0.00000  Uiso   1.00
N979   N     0.23951   0.52973   0.88827   0.00000  Uiso   1.00
O980   O     0.25547   0.51039   0.85382   0.00000  Uiso   1.00
O981   O     0.25544   0.56721   0.90405   0.00000  Uiso   1.00
N982   N     0.08935   0.49395   0.61043   0.00000  Uiso   1.00
O983   O     0.08128   0.47386   0.64760   0.00000  Uiso   1.00
O984   O     0.06241   0.52164   0.59269   0.00000  Uiso   1.00
F985   F     0.10213   0.46839   0.87639   0.00000  Uiso   1.00
F986   F     0.23585   0.51610   0.62349   0.00000  Uiso   1.00
N987   N     0.06395   0.44419   0.94526   0.00000  Uiso   1.00
O988   O     0.03831   0.47130   0.92457   0.00000  Uiso   1.00
O989   O     0.05647   0.40117   0.94487   0.00000  Uiso   1.00
N990   N     0.28108   0.50686   0.55579   0.00000  Uiso   1.00
O991   O     0.30103   0.54473   0.56081   0.00000  Uiso   1.00
O992   O     0.29322   0.47200   0.57885   0.00000  Uiso   1.00
N993   N     0.06386   0.44008   0.53916   0.00000  Uiso   1.00
O994   O     0.02596   0.44808   0.52573   0.00000  Uiso   1.00
O995   O     0.07128   0.40850   0.56836   0.00000  Uiso   1.00
N996   N     0.28287   0.49869   0.96225   0.00000  Uiso   1.00
O997   O     0.31307   0.52681   0.97077   0.00000  Uiso   1.00
O998   O     0.28865   0.46360   0.93692   0.00000  Uiso   1.00
F999   F     0.04027   0.41854   0.74930   0.00000  Uiso   1.00
F1000  F     0.29303   0.58146   0.74921   0.00000  Uiso   1.00
F1001  F     0.29223   0.41865   0.74427   0.00000  Uiso   1.00
F1002  F     0.04103   0.58135   0.75470   0.00000  Uiso   1.00
N1003  N     0.20555   0.38153   0.82142   0.00000  Uiso   1.00
O1004  O     0.24236   0.39778   0.81720   0.00000  Uiso   1.00
O1005  O     0.19015   0.38076   0.86096   0.00000  Uiso   1.00
N1006  N     0.12795   0.61845   0.67848   0.00000  Uiso   1.00
O1007  O     0.14309   0.62018   0.63884   0.00000  Uiso   1.00
O1008  O     0.09128   0.60174   0.68261   0.00000  Uiso   1.00
N1009  N     0.12680   0.37968   0.67924   0.00000  Uiso   1.00
O1010  O     0.08707   0.38430   0.68002   0.00000  Uiso   1.00
O1011  O     0.14448   0.38335   0.64111   0.00000  Uiso   1.00
N1012  N     0.20572   0.62016   0.82103   0.00000  Uiso   1.00
O1013  O     0.18903   0.61910   0.85988   0.00000  Uiso   1.00
O1014  O     0.24440   0.60992   0.81832   0.00000  Uiso   1.00
O1015  O     0.43892   0.53821   0.75000   0.00000  Uiso   1.00
O1016  O     0.56108   0.46179   0.75000   0.00000  Uiso   1.00
O1017  O     0.56108   0.53821   0.75000   0.00000  Uiso   1.00
O1018  O     0.43892   0.46179   0.74999   0.00000  Uiso   1.00
C1019  C     0.42002   0.49996   0.75061   0.00000  Uiso   1.00
C1020  C     0.57996   0.50004   0.74913   0.00000  Uiso   1.00
O1021  O     0.49999   0.53823   0.68392   0.00000  Uiso   1.00
O1022  O     0.50001   0.46177   0.81607   0.00000  Uiso   1.00
O1023  O     0.50001   0.53823   0.81607   0.00000  Uiso   1.00
O1024  O     0.49999   0.46177   0.68392   0.00000  Uiso   1.00
C1025  C     0.49835   0.49980   0.66360   0.00000  Uiso   1.00
C1026  C     0.50147   0.50005   0.83649   0.00000  Uiso   1.00
Zn1027 Zn    0.50000   0.55104   0.75000   0.00000  Uiso   1.00
Zn1028 Zn    0.50000   0.44896   0.75000   0.00000  Uiso   1.00
C1029  C     0.53869   0.50938   0.90965   0.00000  Uiso   1.00
C1030  C     0.46202   0.48864   0.59061   0.00000  Uiso   1.00
C1031  C     0.50250   0.49885   0.88444   0.00000  Uiso   1.00
C1032  C     0.49827   0.49868   0.61588   0.00000  Uiso   1.00
C1033  C     0.46800   0.48135   0.90392   0.00000  Uiso   1.00
C1034  C     0.53585   0.50446   0.59647   0.00000  Uiso   1.00
C1035  C     0.46704   0.47821   0.95054   0.00000  Uiso   1.00
C1036  C     0.53837   0.50030   0.55005   0.00000  Uiso   1.00
C1037  C     0.50303   0.48985   0.97686   0.00000  Uiso   1.00
C1038  C     0.50207   0.48972   0.52376   0.00000  Uiso   1.00
C1039  C     0.54002   0.50173   0.95624   0.00000  Uiso   1.00
C1040  C     0.46455   0.48009   0.54438   0.00000  Uiso   1.00
C1041  C     0.43179   0.46207   0.97137   0.00000  Uiso   1.00
C1042  C     0.57635   0.50509   0.52946   0.00000  Uiso   1.00
C1043  C     0.43083   0.46203   0.51831   0.00000  Uiso   1.00
C1044  C     0.57734   0.50438   0.98257   0.00000  Uiso   1.00
C1045  C     0.35424   0.45895   0.74905   0.00000  Uiso   1.00
C1046  C     0.64571   0.54104   0.74980   0.00000  Uiso   1.00
C1047  C     0.64532   0.45901   0.74732   0.00000  Uiso   1.00
C1048  C     0.35463   0.54099   0.75165   0.00000  Uiso   1.00
C1049  C     0.62413   0.50005   0.74840   0.00000  Uiso   1.00
C1050  C     0.37583   0.49994   0.75078   0.00000  Uiso   1.00
C1051  C     0.51871   0.35768   0.78476   0.00000  Uiso   1.00
C1052  C     0.48122   0.64230   0.71528   0.00000  Uiso   1.00
C1053  C     0.48119   0.35682   0.71532   0.00000  Uiso   1.00
C1054  C     0.51861   0.64316   0.78475   0.00000  Uiso   1.00
N1055  N     0.50000   0.61907   0.75000   0.00000  Uiso   1.00
N1056  N     0.50000   0.38093   0.75000   0.00000  Uiso   1.00
N1057  N     0.57285   0.52973   0.88827   0.00000  Uiso   1.00
O1058  O     0.58880   0.51039   0.85382   0.00000  Uiso   1.00
O1059  O     0.58877   0.56721   0.90405   0.00000  Uiso   1.00
N1060  N     0.42268   0.49395   0.61043   0.00000  Uiso   1.00
O1061  O     0.41462   0.47386   0.64760   0.00000  Uiso   1.00
O1062  O     0.39574   0.52164   0.59269   0.00000  Uiso   1.00
F1063  F     0.43546   0.46839   0.87639   0.00000  Uiso   1.00
F1064  F     0.56919   0.51610   0.62349   0.00000  Uiso   1.00
N1065  N     0.39728   0.44419   0.94526   0.00000  Uiso   1.00
O1066  O     0.37164   0.47130   0.92457   0.00000  Uiso   1.00
O1067  O     0.38980   0.40117   0.94487   0.00000  Uiso   1.00
N1068  N     0.61441   0.50686   0.55579   0.00000  Uiso   1.00
O1069  O     0.63436   0.54473   0.56081   0.00000  Uiso   1.00
O1070  O     0.62655   0.47200   0.57885   0.00000  Uiso   1.00
N1071  N     0.39719   0.44008   0.53916   0.00000  Uiso   1.00
O1072  O     0.35929   0.44808   0.52573   0.00000  Uiso   1.00
O1073  O     0.40461   0.40850   0.56836   0.00000  Uiso   1.00
N1074  N     0.61620   0.49869   0.96225   0.00000  Uiso   1.00
O1075  O     0.64640   0.52681   0.97077   0.00000  Uiso   1.00
O1076  O     0.62199   0.46360   0.93692   0.00000  Uiso   1.00
F1077  F     0.37360   0.41854   0.74930   0.00000  Uiso   1.00
F1078  F     0.62636   0.58146   0.74921   0.00000  Uiso   1.00
F1079  F     0.62556   0.41865   0.74427   0.00000  Uiso   1.00
F1080  F     0.37436   0.58135   0.75470   0.00000  Uiso   1.00
N1081  N     0.53889   0.38153   0.82142   0.00000  Uiso   1.00
O1082  O     0.57569   0.39778   0.81720   0.00000  Uiso   1.00
O1083  O     0.52348   0.38076   0.86096   0.00000  Uiso   1.00
N1084  N     0.46128   0.61845   0.67848   0.00000  Uiso   1.00
O1085  O     0.47642   0.62018   0.63884   0.00000  Uiso   1.00
O1086  O     0.42461   0.60174   0.68261   0.00000  Uiso   1.00
N1087  N     0.46014   0.37968   0.67924   0.00000  Uiso   1.00
O1088  O     0.42040   0.38430   0.68002   0.00000  Uiso   1.00
O1089  O     0.47781   0.38335   0.64111   0.00000  Uiso   1.00
N1090  N     0.53906   0.62016   0.82103   0.00000  Uiso   1.00
O1091  O     0.52236   0.61910   0.85988   0.00000  Uiso   1.00
O1092  O     0.57773   0.60992   0.81832   0.00000  Uiso   1.00
O1093  O     0.77226   0.53821   0.75000   0.00000  Uiso   1.00
O1094  O     0.89441   0.46179   0.75000   0.00000  Uiso   1.00
O1095  O     0.89441   0.53821   0.75000   0.00000  Uiso   1.00
O1096  O     0.77226   0.46179   0.74999   0.00000  Uiso   1.00
C1097  C     0.75336   0.49996   0.75061   0.00000  Uiso   1.00
C1098  C     0.91329   0.50004   0.74913   0.00000  Uiso   1.00
O1099  O     0.83333   0.53823   0.68392   0.00000  Uiso   1.00
O1100  O     0.83334   0.46177   0.81607   0.00000  Uiso   1.00
O1101  O     0.83334   0.53823   0.81607   0.00000  Uiso   1.00
O1102  O     0.83333   0.46177   0.68392   0.00000  Uiso   1.00
C1103  C     0.83168   0.49980   0.66360   0.00000  Uiso   1.00
C1104  C     0.83481   0.50005   0.83649   0.00000  Uiso   1.00
Zn1105 Zn    0.83333   0.55104   0.75000   0.00000  Uiso   1.00
Zn1106 Zn    0.83333   0.44896   0.75000   0.00000  Uiso   1.00
C1107  C     0.87202   0.50938   0.90965   0.00000  Uiso   1.00
C1108  C     0.79536   0.48864   0.59061   0.00000  Uiso   1.00
C1109  C     0.83583   0.49885   0.88444   0.00000  Uiso   1.00
C1110  C     0.83160   0.49868   0.61588   0.00000  Uiso   1.00
C1111  C     0.80133   0.48135   0.90392   0.00000  Uiso   1.00
C1112  C     0.86918   0.50446   0.59647   0.00000  Uiso   1.00
C1113  C     0.80037   0.47821   0.95054   0.00000  Uiso   1.00
C1114  C     0.87170   0.50030   0.55005   0.00000  Uiso   1.00
C1115  C     0.83636   0.48985   0.97686   0.00000  Uiso   1.00
C1116  C     0.83540   0.48972   0.52376   0.00000  Uiso   1.00
C1117  C     0.87336   0.50173   0.95624   0.00000  Uiso   1.00
C1118  C     0.79788   0.48009   0.54438   0.00000  Uiso   1.00
C1119  C     0.76512   0.46207   0.97137   0.00000  Uiso   1.00
C1120  C     0.90968   0.50509   0.52946   0.00000  Uiso   1.00
C1121  C     0.76416   0.46203   0.51831   0.00000  Uiso   1.00
C1122  C     0.91067   0.50438   0.98257   0.00000  Uiso   1.00
C1123  C     0.68757   0.45895   0.74905   0.00000  Uiso   1.00
C1124  C     0.97905   0.54104   0.74980   0.00000  Uiso   1.00
C1125  C     0.97865   0.45901   0.74732   0.00000  Uiso   1.00
C1126  C     0.68796   0.54099   0.75165   0.00000  Uiso   1.00
C1127  C     0.95746   0.50005   0.74840   0.00000  Uiso   1.00
C1128  C     0.70916   0.49994   0.75078   0.00000  Uiso   1.00
C1129  C     0.85205   0.35768   0.78476   0.00000  Uiso   1.00
C1130  C     0.81455   0.64230   0.71528   0.00000  Uiso   1.00
C1131  C     0.81452   0.35682   0.71532   0.00000  Uiso   1.00
C1132  C     0.85194   0.64316   0.78475   0.00000  Uiso   1.00
N1133  N     0.83333   0.61907   0.75000   0.00000  Uiso   1.00
N1134  N     0.83333   0.38093   0.75000   0.00000  Uiso   1.00
N1135  N     0.90618   0.52973   0.88827   0.00000  Uiso   1.00
O1136  O     0.92213   0.51039   0.85382   0.00000  Uiso   1.00
O1137  O     0.92210   0.56721   0.90405   0.00000  Uiso   1.00
N1138  N     0.75602   0.49395   0.61043   0.00000  Uiso   1.00
O1139  O     0.74795   0.47386   0.64760   0.00000  Uiso   1.00
O1140  O     0.72907   0.52164   0.59269   0.00000  Uiso   1.00
F1141  F     0.76880   0.46839   0.87639   0.00000  Uiso   1.00
F1142  F     0.90252   0.51610   0.62349   0.00000  Uiso   1.00
N1143  N     0.73062   0.44419   0.94526   0.00000  Uiso   1.00
O1144  O     0.70498   0.47130   0.92457   0.00000  Uiso   1.00
O1145  O     0.72313   0.40117   0.94487   0.00000  Uiso   1.00
N1146  N     0.94774   0.50686   0.55579   0.00000  Uiso   1.00
O1147  O     0.96769   0.54473   0.56081   0.00000  Uiso   1.00
O1148  O     0.95988   0.47200   0.57885   0.00000  Uiso   1.00
N1149  N     0.73053   0.44008   0.53916   0.00000  Uiso   1.00
O1150  O     0.69262   0.44808   0.52573   0.00000  Uiso   1.00
O1151  O     0.73795   0.40850   0.56836   0.00000  Uiso   1.00
N1152  N     0.94953   0.49869   0.96225   0.00000  Uiso   1.00
O1153  O     0.97974   0.52681   0.97077   0.00000  Uiso   1.00
O1154  O     0.95532   0.46360   0.93692   0.00000  Uiso   1.00
F1155  F     0.70694   0.41854   0.74930   0.00000  Uiso   1.00
F1156  F     0.95969   0.58146   0.74921   0.00000  Uiso   1.00
F1157  F     0.95890   0.41865   0.74427   0.00000  Uiso   1.00
F1158  F     0.70769   0.58135   0.75470   0.00000  Uiso   1.00
N1159  N     0.87222   0.38153   0.82142   0.00000  Uiso   1.00
O1160  O     0.90903   0.39778   0.81720   0.00000  Uiso   1.00
O1161  O     0.85681   0.38076   0.86096   0.00000  Uiso   1.00
N1162  N     0.79461   0.61845   0.67848   0.00000  Uiso   1.00
O1163  O     0.80976   0.62018   0.63884   0.00000  Uiso   1.00
O1164  O     0.75795   0.60174   0.68261   0.00000  Uiso   1.00
N1165  N     0.79347   0.37968   0.67924   0.00000  Uiso   1.00
O1166  O     0.75373   0.38430   0.68002   0.00000  Uiso   1.00
O1167  O     0.81115   0.38335   0.64111   0.00000  Uiso   1.00
N1168  N     0.87239   0.62016   0.82103   0.00000  Uiso   1.00
O1169  O     0.85569   0.61910   0.85988   0.00000  Uiso   1.00
O1170  O     0.91106   0.60992   0.81832   0.00000  Uiso   1.00
O1171  O     0.10559   0.87154   0.75000   0.00000  Uiso   1.00
O1172  O     0.22774   0.79513   0.75000   0.00000  Uiso   1.00
O1173  O     0.22774   0.87154   0.75000   0.00000  Uiso   1.00
O1174  O     0.10559   0.79513   0.74999   0.00000  Uiso   1.00
C1175  C     0.08669   0.83329   0.75061   0.00000  Uiso   1.00
C1176  C     0.24663   0.83338   0.74913   0.00000  Uiso   1.00
O1177  O     0.16666   0.87156   0.68392   0.00000  Uiso   1.00
O1178  O     0.16667   0.79511   0.81607   0.00000  Uiso   1.00
O1179  O     0.16667   0.87156   0.81607   0.00000  Uiso   1.00
O1180  O     0.16666   0.79511   0.68392   0.00000  Uiso   1.00
C1181  C     0.16501   0.83314   0.66360   0.00000  Uiso   1.00
C1182  C     0.16814   0.83338   0.83649   0.00000  Uiso   1.00
Zn1183 Zn    0.16667   0.88437   0.75000   0.00000  Uiso   1.00
Zn1184 Zn    0.16667   0.78229   0.75000   0.00000  Uiso   1.00
C1185  C     0.20535   0.84272   0.90965   0.00000  Uiso   1.00
C1186  C     0.12869   0.82197   0.59061   0.00000  Uiso   1.00
C1187  C     0.16917   0.83218   0.88444   0.00000  Uiso   1.00
C1188  C     0.16494   0.83201   0.61588   0.00000  Uiso   1.00
C1189  C     0.13467   0.81469   0.90392   0.00000  Uiso   1.00
C1190  C     0.20251   0.83780   0.59647   0.00000  Uiso   1.00
C1191  C     0.13370   0.81154   0.95054   0.00000  Uiso   1.00
C1192  C     0.20503   0.83364   0.55005   0.00000  Uiso   1.00
C1193  C     0.16970   0.82318   0.97686   0.00000  Uiso   1.00
C1194  C     0.16874   0.82305   0.52376   0.00000  Uiso   1.00
C1195  C     0.20669   0.83506   0.95624   0.00000  Uiso   1.00
C1196  C     0.13121   0.81343   0.54438   0.00000  Uiso   1.00
C1197  C     0.09845   0.79540   0.97137   0.00000  Uiso   1.00
C1198  C     0.24302   0.83842   0.52946   0.00000  Uiso   1.00
C1199  C     0.09749   0.79536   0.51831   0.00000  Uiso   1.00
C1200  C     0.24400   0.83772   0.98257   0.00000  Uiso   1.00
C1201  C     0.02091   0.79228   0.74905   0.00000  Uiso   1.00
C1202  C     0.31238   0.87438   0.74980   0.00000  Uiso   1.00
C1203  C     0.31198   0.79234   0.74732   0.00000  Uiso   1.00
C1204  C     0.02129   0.87432   0.75165   0.00000  Uiso   1.00
C1205  C     0.29079   0.83339   0.74840   0.00000  Uiso   1.00
C1206  C     0.04249   0.83327   0.75078   0.00000  Uiso   1.00
C1207  C     0.18538   0.69102   0.78476   0.00000  Uiso   1.00
C1208  C     0.14788   0.97564   0.71528   0.00000  Uiso   1.00
C1209  C     0.14785   0.69016   0.71532   0.00000  Uiso   1.00
C1210  C     0.18527   0.97649   0.78475   0.00000  Uiso   1.00
N1211  N     0.16667   0.95240   0.75000   0.00000  Uiso   1.00
N1212  N     0.16667   0.71427   0.75000   0.00000  Uiso   1.00
N1213  N     0.23951   0.86306   0.88827   0.00000  Uiso   1.00
O1214  O     0.25547   0.84372   0.85382   0.00000  Uiso   1.00
O1215  O     0.25544   0.90054   0.90405   0.00000  Uiso   1.00
N1216  N     0.08935   0.82728   0.61043   0.00000  Uiso   1.00
O1217  O     0.08128   0.80719   0.64760   0.00000  Uiso   1.00
O1218  O     0.06241   0.85497   0.59269   0.00000  Uiso   1.00
F1219  F     0.10213   0.80172   0.87639   0.00000  Uiso   1.00
F1220  F     0.23585   0.84943   0.62349   0.00000  Uiso   1.00
N1221  N     0.06395   0.77753   0.94526   0.00000  Uiso   1.00
O1222  O     0.03831   0.80463   0.92457   0.00000  Uiso   1.00
O1223  O     0.05647   0.73450   0.94487   0.00000  Uiso   1.00
N1224  N     0.28108   0.84019   0.55579   0.00000  Uiso   1.00
O1225  O     0.30103   0.87807   0.56081   0.00000  Uiso   1.00
O1226  O     0.29322   0.80533   0.57885   0.00000  Uiso   1.00
N1227  N     0.06386   0.77341   0.53916   0.00000  Uiso   1.00
O1228  O     0.02596   0.78141   0.52573   0.00000  Uiso   1.00
O1229  O     0.07128   0.74183   0.56836   0.00000  Uiso   1.00
N1230  N     0.28287   0.83202   0.96225   0.00000  Uiso   1.00
O1231  O     0.31307   0.86015   0.97077   0.00000  Uiso   1.00
O1232  O     0.28865   0.79693   0.93692   0.00000  Uiso   1.00
F1233  F     0.04027   0.75187   0.74930   0.00000  Uiso   1.00
F1234  F     0.29303   0.91479   0.74921   0.00000  Uiso   1.00
F1235  F     0.29223   0.75199   0.74427   0.00000  Uiso   1.00
F1236  F     0.04103   0.91469   0.75470   0.00000  Uiso   1.00
N1237  N     0.20555   0.71486   0.82142   0.00000  Uiso   1.00
O1238  O     0.24236   0.73111   0.81720   0.00000  Uiso   1.00
O1239  O     0.19015   0.71409   0.86096   0.00000  Uiso   1.00
N1240  N     0.12795   0.95179   0.67848   0.00000  Uiso   1.00
O1241  O     0.14309   0.95352   0.63884   0.00000  Uiso   1.00
O1242  O     0.09128   0.93508   0.68261   0.00000  Uiso   1.00
N1243  N     0.12680   0.71301   0.67924   0.00000  Uiso   1.00
O1244  O     0.08707   0.71763   0.68002   0.00000  Uiso   1.00
O1245  O     0.14448   0.71668   0.64111   0.00000  Uiso   1.00
N1246  N     0.20572   0.95349   0.82103   0.00000  Uiso   1.00
O1247  O     0.18903   0.95243   0.85988   0.00000  Uiso   1.00
O1248  O     0.24440   0.94326   0.81832   0.00000  Uiso   1.00
O1249  O     0.43892   0.87154   0.75000   0.00000  Uiso   1.00
O1250  O     0.56108   0.79513   0.75000   0.00000  Uiso   1.00
O1251  O     0.56108   0.87154   0.75000   0.00000  Uiso   1.00
O1252  O     0.43892   0.79513   0.74999   0.00000  Uiso   1.00
C1253  C     0.42002   0.83329   0.75061   0.00000  Uiso   1.00
C1254  C     0.57996   0.83338   0.74913   0.00000  Uiso   1.00
O1255  O     0.49999   0.87156   0.68392   0.00000  Uiso   1.00
O1256  O     0.50001   0.79511   0.81607   0.00000  Uiso   1.00
O1257  O     0.50001   0.87156   0.81607   0.00000  Uiso   1.00
O1258  O     0.49999   0.79511   0.68392   0.00000  Uiso   1.00
C1259  C     0.49835   0.83314   0.66360   0.00000  Uiso   1.00
C1260  C     0.50147   0.83338   0.83649   0.00000  Uiso   1.00
Zn1261 Zn    0.50000   0.88437   0.75000   0.00000  Uiso   1.00
Zn1262 Zn    0.50000   0.78229   0.75000   0.00000  Uiso   1.00
C1263  C     0.53869   0.84272   0.90965   0.00000  Uiso   1.00
C1264  C     0.46202   0.82197   0.59061   0.00000  Uiso   1.00
C1265  C     0.50250   0.83218   0.88444   0.00000  Uiso   1.00
C1266  C     0.49827   0.83201   0.61588   0.00000  Uiso   1.00
C1267  C     0.46800   0.81469   0.90392   0.00000  Uiso   1.00
C1268  C     0.53585   0.83780   0.59647   0.00000  Uiso   1.00
C1269  C     0.46704   0.81154   0.95054   0.00000  Uiso   1.00
C1270  C     0.53837   0.83364   0.55005   0.00000  Uiso   1.00
C1271  C     0.50303   0.82318   0.97686   0.00000  Uiso   1.00
C1272  C     0.50207   0.82305   0.52376   0.00000  Uiso   1.00
C1273  C     0.54002   0.83506   0.95624   0.00000  Uiso   1.00
C1274  C     0.46455   0.81343   0.54438   0.00000  Uiso   1.00
C1275  C     0.43179   0.79540   0.97137   0.00000  Uiso   1.00
C1276  C     0.57635   0.83842   0.52946   0.00000  Uiso   1.00
C1277  C     0.43083   0.79536   0.51831   0.00000  Uiso   1.00
C1278  C     0.57734   0.83772   0.98257   0.00000  Uiso   1.00
C1279  C     0.35424   0.79228   0.74905   0.00000  Uiso   1.00
C1280  C     0.64571   0.87438   0.74980   0.00000  Uiso   1.00
C1281  C     0.64532   0.79234   0.74732   0.00000  Uiso   1.00
C1282  C     0.35463   0.87432   0.75165   0.00000  Uiso   1.00
C1283  C     0.62413   0.83339   0.74840   0.00000  Uiso   1.00
C1284  C     0.37583   0.83327   0.75078   0.00000  Uiso   1.00
C1285  C     0.51871   0.69102   0.78476   0.00000  Uiso   1.00
C1286  C     0.48122   0.97564   0.71528   0.00000  Uiso   1.00
C1287  C     0.48119   0.69016   0.71532   0.00000  Uiso   1.00
C1288  C     0.51861   0.97649   0.78475   0.00000  Uiso   1.00
N1289  N     0.50000   0.95240   0.75000   0.00000  Uiso   1.00
N1290  N     0.50000   0.71427   0.75000   0.00000  Uiso   1.00
N1291  N     0.57285   0.86306   0.88827   0.00000  Uiso   1.00
O1292  O     0.58880   0.84372   0.85382   0.00000  Uiso   1.00
O1293  O     0.58877   0.90054   0.90405   0.00000  Uiso   1.00
N1294  N     0.42268   0.82728   0.61043   0.00000  Uiso   1.00
O1295  O     0.41462   0.80719   0.64760   0.00000  Uiso   1.00
O1296  O     0.39574   0.85497   0.59269   0.00000  Uiso   1.00
F1297  F     0.43546   0.80172   0.87639   0.00000  Uiso   1.00
F1298  F     0.56919   0.84943   0.62349   0.00000  Uiso   1.00
N1299  N     0.39728   0.77753   0.94526   0.00000  Uiso   1.00
O1300  O     0.37164   0.80463   0.92457   0.00000  Uiso   1.00
O1301  O     0.38980   0.73450   0.94487   0.00000  Uiso   1.00
N1302  N     0.61441   0.84019   0.55579   0.00000  Uiso   1.00
O1303  O     0.63436   0.87807   0.56081   0.00000  Uiso   1.00
O1304  O     0.62655   0.80533   0.57885   0.00000  Uiso   1.00
N1305  N     0.39719   0.77341   0.53916   0.00000  Uiso   1.00
O1306  O     0.35929   0.78141   0.52573   0.00000  Uiso   1.00
O1307  O     0.40461   0.74183   0.56836   0.00000  Uiso   1.00
N1308  N     0.61620   0.83202   0.96225   0.00000  Uiso   1.00
O1309  O     0.64640   0.86015   0.97077   0.00000  Uiso   1.00
O1310  O     0.62199   0.79693   0.93692   0.00000  Uiso   1.00
F1311  F     0.37360   0.75187   0.74930   0.00000  Uiso   1.00
F1312  F     0.62636   0.91479   0.74921   0.00000  Uiso   1.00
F1313  F     0.62556   0.75199   0.74427   0.00000  Uiso   1.00
F1314  F     0.37436   0.91469   0.75470   0.00000  Uiso   1.00
N1315  N     0.53889   0.71486   0.82142   0.00000  Uiso   1.00
O1316  O     0.57569   0.73111   0.81720   0.00000  Uiso   1.00
O1317  O     0.52348   0.71409   0.86096   0.00000  Uiso   1.00
N1318  N     0.46128   0.95179   0.67848   0.00000  Uiso   1.00
O1319  O     0.47642   0.95352   0.63884   0.00000  Uiso   1.00
O1320  O     0.42461   0.93508   0.68261   0.00000  Uiso   1.00
N1321  N     0.46014   0.71301   0.67924   0.00000  Uiso   1.00
O1322  O     0.42040   0.71763   0.68002   0.00000  Uiso   1.00
O1323  O     0.47781   0.71668   0.64111   0.00000  Uiso   1.00
N1324  N     0.53906   0.95349   0.82103   0.00000  Uiso   1.00
O1325  O     0.52236   0.95243   0.85988   0.00000  Uiso   1.00
O1326  O     0.57773   0.94326   0.81832   0.00000  Uiso   1.00
O1327  O     0.77226   0.87154   0.75000   0.00000  Uiso   1.00
O1328  O     0.89441   0.79513   0.75000   0.00000  Uiso   1.00
O1329  O     0.89441   0.87154   0.75000   0.00000  Uiso   1.00
O1330  O     0.77226   0.79513   0.74999   0.00000  Uiso   1.00
C1331  C     0.75336   0.83329   0.75061   0.00000  Uiso   1.00
C1332  C     0.91329   0.83338   0.74913   0.00000  Uiso   1.00
O1333  O     0.83333   0.87156   0.68392   0.00000  Uiso   1.00
O1334  O     0.83334   0.79511   0.81607   0.00000  Uiso   1.00
O1335  O     0.83334   0.87156   0.81607   0.00000  Uiso   1.00
O1336  O     0.83333   0.79511   0.68392   0.00000  Uiso   1.00
C1337  C     0.83168   0.83314   0.66360   0.00000  Uiso   1.00
C1338  C     0.83481   0.83338   0.83649   0.00000  Uiso   1.00
Zn1339 Zn    0.83333   0.88437   0.75000   0.00000  Uiso   1.00
Zn1340 Zn    0.83333   0.78229   0.75000   0.00000  Uiso   1.00
C1341  C     0.87202   0.84272   0.90965   0.00000  Uiso   1.00
C1342  C     0.79536   0.82197   0.59061   0.00000  Uiso   1.00
C1343  C     0.83583   0.83218   0.88444   0.00000  Uiso   1.00
C1344  C     0.83160   0.83201   0.61588   0.00000  Uiso   1.00
C1345  C     0.80133   0.81469   0.90392   0.00000  Uiso   1.00
C1346  C     0.86918   0.83780   0.59647   0.00000  Uiso   1.00
C1347  C     0.80037   0.81154   0.95054   0.00000  Uiso   1.00
C1348  C     0.87170   0.83364   0.55005   0.00000  Uiso   1.00
C1349  C     0.83636   0.82318   0.97686   0.00000  Uiso   1.00
C1350  C     0.83540   0.82305   0.52376   0.00000  Uiso   1.00
C1351  C     0.87336   0.83506   0.95624   0.00000  Uiso   1.00
C1352  C     0.79788   0.81343   0.54438   0.00000  Uiso   1.00
C1353  C     0.76512   0.79540   0.97137   0.00000  Uiso   1.00
C1354  C     0.90968   0.83842   0.52946   0.00000  Uiso   1.00
C1355  C     0.76416   0.79536   0.51831   0.00000  Uiso   1.00
C1356  C     0.91067   0.83772   0.98257   0.00000  Uiso   1.00
C1357  C     0.68757   0.79228   0.74905   0.00000  Uiso   1.00
C1358  C     0.97905   0.87438   0.74980   0.00000  Uiso   1.00
C1359  C     0.97865   0.79234   0.74732   0.00000  Uiso   1.00
C1360  C     0.68796   0.87432   0.75165   0.00000  Uiso   1.00
C1361  C     0.95746   0.83339   0.74840   0.00000  Uiso   1.00
C1362  C     0.70916   0.83327   0.75078   0.00000  Uiso   1.00
C1363  C     0.85205   0.69102   0.78476   0.00000  Uiso   1.00
C1364  C     0.81455   0.97564   0.71528   0.00000  Uiso   1.00
C1365  C     0.81452   0.69016   0.71532   0.00000  Uiso   1.00
C1366  C     0.85194   0.97649   0.78475   0.00000  Uiso   1.00
N1367  N     0.83333   0.95240   0.75000   0.00000  Uiso   1.00
N1368  N     0.83333   0.71427   0.75000   0.00000  Uiso   1.00
N1369  N     0.90618   0.86306   0.88827   0.00000  Uiso   1.00
O1370  O     0.92213   0.84372   0.85382   0.00000  Uiso   1.00
O1371  O     0.92210   0.90054   0.90405   0.00000  Uiso   1.00
N1372  N     0.75602   0.82728   0.61043   0.00000  Uiso   1.00
O1373  O     0.74795   0.80719   0.64760   0.00000  Uiso   1.00
O1374  O     0.72907   0.85497   0.59269   0.00000  Uiso   1.00
F1375  F     0.76880   0.80172   0.87639   0.00000  Uiso   1.00
F1376  F     0.90252   0.84943   0.62349   0.00000  Uiso   1.00
N1377  N     0.73062   0.77753   0.94526   0.00000  Uiso   1.00
O1378  O     0.70498   0.80463   0.92457   0.00000  Uiso   1.00
O1379  O     0.72313   0.73450   0.94487   0.00000  Uiso   1.00
N1380  N     0.94774   0.84019   0.55579   0.00000  Uiso   1.00
O1381  O     0.96769   0.87807   0.56081   0.00000  Uiso   1.00
O1382  O     0.95988   0.80533   0.57885   0.00000  Uiso   1.00
N1383  N     0.73053   0.77341   0.53916   0.00000  Uiso   1.00
O1384  O     0.69262   0.78141   0.52573   0.00000  Uiso   1.00
O1385  O     0.73795   0.74183   0.56836   0.00000  Uiso   1.00
N1386  N     0.94953   0.83202   0.96225   0.00000  Uiso   1.00
O1387  O     0.97974   0.86015   0.97077   0.00000  Uiso   1.00
O1388  O     0.95532   0.79693   0.93692   0.00000  Uiso   1.00
F1389  F     0.70694   0.75187   0.74930   0.00000  Uiso   1.00
F1390  F     0.95969   0.91479   0.74921   0.00000  Uiso   1.00
F1391  F     0.95890   0.75199   0.74427   0.00000  Uiso   1.00
F1392  F     0.70769   0.91469   0.75470   0.00000  Uiso   1.00
N1393  N     0.87222   0.71486   0.82142   0.00000  Uiso   1.00
O1394  O     0.90903   0.73111   0.81720   0.00000  Uiso   1.00
O1395  O     0.85681   0.71409   0.86096   0.00000  Uiso   1.00
N1396  N     0.79461   0.95179   0.67848   0.00000  Uiso   1.00
O1397  O     0.80976   0.95352   0.63884   0.00000  Uiso   1.00
O1398  O     0.75795   0.93508   0.68261   0.00000  Uiso   1.00
N1399  N     0.79347   0.71301   0.67924   0.00000  Uiso   1.00
O1400  O     0.75373   0.71763   0.68002   0.00000  Uiso   1.00
O1401  O     0.81115   0.71668   0.64111   0.00000  Uiso   1.00
N1402  N     0.87239   0.95349   0.82103   0.00000  Uiso   1.00
O1403  O     0.85569   0.95243   0.85988   0.00000  Uiso   1.00
O1404  O     0.91106   0.94326   0.81832   0.00000  Uiso   1.00
loop_
_geom_bond_atom_site_label_1
_geom_bond_atom_site_label_2
_geom_bond_distance
_geom_bond_site_symmetry_2
_ccdc_geom_bond_type
O1     C5      1.291   .     A
O1     Zn13    2.018   .     S
O2     C6      1.291   .     A
O2     Zn14    2.018   .     S
O3     C6      1.292   .     A
O3     Zn13    2.021   .     S
O4     C5      1.292   .     A
O4     Zn14    2.021   .     S
C5     C36     1.435   .     S
C6     C35     1.436   .     S
O7     C11     1.288   .     A
O7     Zn13    2.002   .     S
O8     C12     1.285   .     A
O8     Zn14    2.002   .     S
O9     Zn13    2.008   .     S
O9     C12     1.292   .     A
O10    Zn14    2.008   .     S
O10    C11     1.287   .     A
C11    C18     1.422   .     S
C12    C17     1.428   .     S
Zn13   N41     2.022   .     S
Zn14   N42     2.022   .     S
C15    C17     1.399   .     A
C15    N43     1.438   .     S
C15    C25     1.407   .     A
C16    C26     1.404   .     A
C16    N46     1.440   .     S
C16    C18     1.398   .     A
C17    C19     1.387   .     A
C18    C20     1.385   .     A
C19    C21     1.395   .     A
C19    F49     1.360   .     S
C20    F50     1.361   .     S
C20    C22     1.393   .     A
C21    C27     1.411   .     A
C21    C23     1.418   .     A
C22    C28     1.410   .     A
C22    C24     1.418   .     A
C23    C25     1.419   .     A
C23    C726    1.399   .     S
C24    C26     1.419   .     A
C24    C725    1.399   1_554 S
C25    C30     1.415   .     A
C26    C29     1.415   .     A
C27    N51     1.432   .     S
C27    C731    1.400   .     S
C28    N54     1.434   .     S
C28    C732    1.399   1_554 S
C29    N57     1.438   .     S
C29    C729    1.400   1_554 S
C30    N60     1.434   .     S
C30    C730    1.399   .     S
C31    F63     1.358   .     S
C31    C36     1.403   .     A
C31    C189    1.371   1_455 S
C32    C35     1.403   .     A
C32    F64     1.358   .     S
C32    C112    1.371   .     S
C33    F65     1.359   .     S
C33    C35     1.404   .     A
C33    C109    1.371   .     S
C34    F66     1.359   .     S
C34    C36     1.404   .     A
C34    C188    1.371   1_455 S
C37    N42     1.371   .     A
C37    N67     1.429   .     S
C37    C508    1.423   1_545 S
C38    N70     1.429   .     S
C38    N41     1.370   .     A
C38    C273    1.422   .     S
C39    N73     1.426   .     S
C39    N42     1.371   .     A
C39    C506    1.422   1_545 S
C40    N76     1.424   .     S
C40    N41     1.370   .     A
C40    C271    1.423   .     S
N43    O44     1.301   .     A
N43    O45     1.301   .     A
N46    O47     1.300   .     A
N46    O48     1.301   .     A
N51    O52     1.300   .     A
N51    O53     1.301   .     A
N54    O56     1.301   .     A
N54    O55     1.301   .     A
N57    O59     1.301   .     A
N57    O58     1.300   .     A
N60    O62     1.301   .     A
N60    O61     1.301   .     A
N67    O68     1.299   .     A
N67    O69     1.301   .     A
N70    O71     1.301   .     A
N70    O72     1.300   .     A
N73    O74     1.300   .     A
N73    O75     1.301   .     A
N76    O78     1.299   .     A
N76    O77     1.301   .     A
O79    C83     1.291   .     A
O79    Zn91    2.018   .     S
O80    C84     1.291   .     A
O80    Zn92    2.018   .     S
O81    C84     1.292   .     A
O81    Zn91    2.021   .     S
O82    C83     1.292   .     A
O82    Zn92    2.021   .     S
C83    C114    1.435   .     S
C84    C113    1.436   .     S
O85    C89     1.288   .     A
O85    Zn91    2.002   .     S
O86    C90     1.285   .     A
O86    Zn92    2.002   .     S
O87    Zn91    2.008   .     S
O87    C90     1.292   .     A
O88    Zn92    2.008   .     S
O88    C89     1.287   .     A
C89    C96     1.422   .     S
C90    C95     1.428   .     S
Zn91   N119    2.022   .     S
Zn92   N120    2.022   .     S
C93    C95     1.399   .     A
C93    N121    1.438   .     S
C93    C103    1.407   .     A
C94    C104    1.404   .     A
C94    N124    1.440   .     S
C94    C96     1.398   .     A
C95    C97     1.387   .     A
C96    C98     1.385   .     A
C97    C99     1.395   .     A
C97    F127    1.360   .     S
C98    F128    1.361   .     S
C98    C100    1.393   .     A
C99    C105    1.411   .     A
C99    C101    1.418   .     A
C100   C106    1.410   .     A
C100   C102    1.418   .     A
C101   C103    1.419   .     A
C101   C804    1.399   .     S
C102   C104    1.419   .     A
C102   C803    1.399   1_554 S
C103   C108    1.415   .     A
C104   C107    1.415   .     A
C105   N129    1.432   .     S
C105   C809    1.400   .     S
C106   N132    1.434   .     S
C106   C810    1.399   1_554 S
C107   N135    1.438   .     S
C107   C807    1.400   1_554 S
C108   N138    1.434   .     S
C108   C808    1.399   .     S
C109   F141    1.358   .     S
C109   C114    1.403   .     A
C110   C113    1.403   .     A
C110   F142    1.358   .     S
C110   C190    1.371   .     S
C111   F143    1.359   .     S
C111   C113    1.404   .     A
C111   C187    1.371   .     S
C112   F144    1.359   .     S
C112   C114    1.404   .     A
C115   N120    1.371   .     A
C115   N145    1.429   .     S
C115   C586    1.423   1_545 S
C116   N148    1.429   .     S
C116   N119    1.370   .     A
C116   C351    1.422   .     S
C117   N151    1.426   .     S
C117   N120    1.371   .     A
C117   C584    1.422   1_545 S
C118   N154    1.424   .     S
C118   N119    1.370   .     A
C118   C349    1.423   .     S
N121   O122    1.301   .     A
N121   O123    1.301   .     A
N124   O125    1.300   .     A
N124   O126    1.301   .     A
N129   O130    1.300   .     A
N129   O131    1.301   .     A
N132   O134    1.301   .     A
N132   O133    1.301   .     A
N135   O137    1.301   .     A
N135   O136    1.300   .     A
N138   O140    1.301   .     A
N138   O139    1.301   .     A
N145   O146    1.299   .     A
N145   O147    1.301   .     A
N148   O149    1.301   .     A
N148   O150    1.300   .     A
N151   O152    1.300   .     A
N151   O153    1.301   .     A
N154   O156    1.299   .     A
N154   O155    1.301   .     A
O157   C161    1.291   .     A
O157   Zn169   2.018   .     S
O158   C162    1.291   .     A
O158   Zn170   2.018   .     S
O159   C162    1.292   .     A
O159   Zn169   2.021   .     S
O160   C161    1.292   .     A
O160   Zn170   2.021   .     S
C161   C192    1.435   .     S
C162   C191    1.436   .     S
O163   C167    1.288   .     A
O163   Zn169   2.002   .     S
O164   C168    1.285   .     A
O164   Zn170   2.002   .     S
O165   Zn169   2.008   .     S
O165   C168    1.292   .     A
O166   Zn170   2.008   .     S
O166   C167    1.287   .     A
C167   C174    1.422   .     S
C168   C173    1.428   .     S
Zn169  N197    2.022   .     S
Zn170  N198    2.022   .     S
C171   C173    1.399   .     A
C171   N199    1.438   .     S
C171   C181    1.407   .     A
C172   C182    1.404   .     A
C172   N202    1.440   .     S
C172   C174    1.398   .     A
C173   C175    1.387   .     A
C174   C176    1.385   .     A
C175   C177    1.395   .     A
C175   F205    1.360   .     S
C176   F206    1.361   .     S
C176   C178    1.393   .     A
C177   C183    1.411   .     A
C177   C179    1.418   .     A
C178   C184    1.410   .     A
C178   C180    1.418   .     A
C179   C181    1.419   .     A
C179   C882    1.399   .     S
C180   C182    1.419   .     A
C180   C881    1.399   1_554 S
C181   C186    1.415   .     A
C182   C185    1.415   .     A
C183   N207    1.432   .     S
C183   C887    1.400   .     S
C184   N210    1.434   .     S
C184   C888    1.399   1_554 S
C185   N213    1.438   .     S
C185   C885    1.400   1_554 S
C186   N216    1.434   .     S
C186   C886    1.399   .     S
C187   F219    1.358   .     S
C187   C192    1.403   .     A
C188   C191    1.403   .     A
C188   F220    1.358   .     S
C188   C34     1.371   1_655 S
C189   F221    1.359   .     S
C189   C191    1.404   .     A
C189   C31     1.371   1_655 S
C190   F222    1.359   .     S
C190   C192    1.404   .     A
C193   N198    1.371   .     A
C193   N223    1.429   .     S
C193   C664    1.423   1_545 S
C194   N226    1.429   .     S
C194   N197    1.370   .     A
C194   C429    1.422   .     S
C195   N229    1.426   .     S
C195   N198    1.371   .     A
C195   C662    1.422   1_545 S
C196   N232    1.424   .     S
C196   N197    1.370   .     A
C196   C427    1.423   .     S
N199   O200    1.301   .     A
N199   O201    1.301   .     A
N202   O203    1.300   .     A
N202   O204    1.301   .     A
N207   O208    1.300   .     A
N207   O209    1.301   .     A
N210   O212    1.301   .     A
N210   O211    1.301   .     A
N213   O215    1.301   .     A
N213   O214    1.300   .     A
N216   O218    1.301   .     A
N216   O217    1.301   .     A
N223   O224    1.299   .     A
N223   O225    1.301   .     A
N226   O227    1.301   .     A
N226   O228    1.300   .     A
N229   O230    1.300   .     A
N229   O231    1.301   .     A
N232   O234    1.299   .     A
N232   O233    1.301   .     A
O235   C239    1.291   .     A
O235   Zn247   2.018   .     S
O236   C240    1.291   .     A
O236   Zn248   2.018   .     S
O237   C240    1.292   .     A
O237   Zn247   2.021   .     S
O238   C239    1.292   .     A
O238   Zn248   2.021   .     S
C239   C270    1.435   .     S
C240   C269    1.436   .     S
O241   C245    1.288   .     A
O241   Zn247   2.002   .     S
O242   C246    1.285   .     A
O242   Zn248   2.002   .     S
O243   Zn247   2.008   .     S
O243   C246    1.292   .     A
O244   Zn248   2.008   .     S
O244   C245    1.287   .     A
C245   C252    1.422   .     S
C246   C251    1.428   .     S
Zn247  N275    2.022   .     S
Zn248  N276    2.022   .     S
C249   C251    1.399   .     A
C249   N277    1.438   .     S
C249   C259    1.407   .     A
C250   C260    1.404   .     A
C250   N280    1.440   .     S
C250   C252    1.398   .     A
C251   C253    1.387   .     A
C252   C254    1.385   .     A
C253   C255    1.395   .     A
C253   F283    1.360   .     S
C254   F284    1.361   .     S
C254   C256    1.393   .     A
C255   C261    1.411   .     A
C255   C257    1.418   .     A
C256   C262    1.410   .     A
C256   C258    1.418   .     A
C257   C259    1.419   .     A
C257   C960    1.399   .     S
C258   C260    1.419   .     A
C258   C959    1.399   1_554 S
C259   C264    1.415   .     A
C260   C263    1.415   .     A
C261   N285    1.432   .     S
C261   C965    1.400   .     S
C262   N288    1.434   .     S
C262   C966    1.399   1_554 S
C263   N291    1.438   .     S
C263   C963    1.400   1_554 S
C264   N294    1.434   .     S
C264   C964    1.399   .     S
C265   F297    1.358   .     S
C265   C270    1.403   .     A
C265   C423    1.371   1_455 S
C266   C269    1.403   .     A
C266   F298    1.358   .     S
C266   C346    1.371   .     S
C267   F299    1.359   .     S
C267   C269    1.404   .     A
C267   C343    1.371   .     S
C268   F300    1.359   .     S
C268   C270    1.404   .     A
C268   C422    1.371   1_455 S
C271   N276    1.371   .     A
C271   N301    1.429   .     S
C272   N304    1.429   .     S
C272   N275    1.370   .     A
C272   C507    1.422   .     S
C273   N307    1.426   .     S
C273   N276    1.371   .     A
C274   N310    1.424   .     S
C274   N275    1.370   .     A
C274   C505    1.423   .     S
N277   O278    1.301   .     A
N277   O279    1.301   .     A
N280   O281    1.300   .     A
N280   O282    1.301   .     A
N285   O286    1.300   .     A
N285   O287    1.301   .     A
N288   O290    1.301   .     A
N288   O289    1.301   .     A
N291   O293    1.301   .     A
N291   O292    1.300   .     A
N294   O296    1.301   .     A
N294   O295    1.301   .     A
N301   O302    1.299   .     A
N301   O303    1.301   .     A
N304   O305    1.301   .     A
N304   O306    1.300   .     A
N307   O308    1.300   .     A
N307   O309    1.301   .     A
N310   O312    1.299   .     A
N310   O311    1.301   .     A
O313   C317    1.291   .     A
O313   Zn325   2.018   .     S
O314   C318    1.291   .     A
O314   Zn326   2.018   .     S
O315   C318    1.292   .     A
O315   Zn325   2.021   .     S
O316   C317    1.292   .     A
O316   Zn326   2.021   .     S
C317   C348    1.435   .     S
C318   C347    1.436   .     S
O319   C323    1.288   .     A
O319   Zn325   2.002   .     S
O320   C324    1.285   .     A
O320   Zn326   2.002   .     S
O321   Zn325   2.008   .     S
O321   C324    1.292   .     A
O322   Zn326   2.008   .     S
O322   C323    1.287   .     A
C323   C330    1.422   .     S
C324   C329    1.428   .     S
Zn325  N353    2.022   .     S
Zn326  N354    2.022   .     S
C327   C329    1.399   .     A
C327   N355    1.438   .     S
C327   C337    1.407   .     A
C328   C338    1.404   .     A
C328   N358    1.440   .     S
C328   C330    1.398   .     A
C329   C331    1.387   .     A
C330   C332    1.385   .     A
C331   C333    1.395   .     A
C331   F361    1.360   .     S
C332   F362    1.361   .     S
C332   C334    1.393   .     A
C333   C339    1.411   .     A
C333   C335    1.418   .     A
C334   C340    1.410   .     A
C334   C336    1.418   .     A
C335   C337    1.419   .     A
C335   C1038   1.399   .     S
C336   C338    1.419   .     A
C336   C1037   1.399   1_554 S
C337   C342    1.415   .     A
C338   C341    1.415   .     A
C339   N363    1.432   .     S
C339   C1043   1.400   .     S
C340   N366    1.434   .     S
C340   C1044   1.399   1_554 S
C341   N369    1.438   .     S
C341   C1041   1.400   1_554 S
C342   N372    1.434   .     S
C342   C1042   1.399   .     S
C343   F375    1.358   .     S
C343   C348    1.403   .     A
C344   C347    1.403   .     A
C344   F376    1.358   .     S
C344   C424    1.371   .     S
C345   F377    1.359   .     S
C345   C347    1.404   .     A
C345   C421    1.371   .     S
C346   F378    1.359   .     S
C346   C348    1.404   .     A
C349   N354    1.371   .     A
C349   N379    1.429   .     S
C350   N382    1.429   .     S
C350   N353    1.370   .     A
C350   C585    1.422   .     S
C351   N385    1.426   .     S
C351   N354    1.371   .     A
C352   N388    1.424   .     S
C352   N353    1.370   .     A
C352   C583    1.423   .     S
N355   O356    1.301   .     A
N355   O357    1.301   .     A
N358   O359    1.300   .     A
N358   O360    1.301   .     A
N363   O364    1.300   .     A
N363   O365    1.301   .     A
N366   O368    1.301   .     A
N366   O367    1.301   .     A
N369   O371    1.301   .     A
N369   O370    1.300   .     A
N372   O374    1.301   .     A
N372   O373    1.301   .     A
N379   O380    1.299   .     A
N379   O381    1.301   .     A
N382   O383    1.301   .     A
N382   O384    1.300   .     A
N385   O386    1.300   .     A
N385   O387    1.301   .     A
N388   O390    1.299   .     A
N388   O389    1.301   .     A
O391   C395    1.291   .     A
O391   Zn403   2.018   .     S
O392   C396    1.291   .     A
O392   Zn404   2.018   .     S
O393   C396    1.292   .     A
O393   Zn403   2.021   .     S
O394   C395    1.292   .     A
O394   Zn404   2.021   .     S
C395   C426    1.435   .     S
C396   C425    1.436   .     S
O397   C401    1.288   .     A
O397   Zn403   2.002   .     S
O398   C402    1.285   .     A
O398   Zn404   2.002   .     S
O399   Zn403   2.008   .     S
O399   C402    1.292   .     A
O400   Zn404   2.008   .     S
O400   C401    1.287   .     A
C401   C408    1.422   .     S
C402   C407    1.428   .     S
Zn403  N431    2.022   .     S
Zn404  N432    2.022   .     S
C405   C407    1.399   .     A
C405   N433    1.438   .     S
C405   C415    1.407   .     A
C406   C416    1.404   .     A
C406   N436    1.440   .     S
C406   C408    1.398   .     A
C407   C409    1.387   .     A
C408   C410    1.385   .     A
C409   C411    1.395   .     A
C409   F439    1.360   .     S
C410   F440    1.361   .     S
C410   C412    1.393   .     A
C411   C417    1.411   .     A
C411   C413    1.418   .     A
C412   C418    1.410   .     A
C412   C414    1.418   .     A
C413   C415    1.419   .     A
C413   C1116   1.399   .     S
C414   C416    1.419   .     A
C414   C1115   1.399   1_554 S
C415   C420    1.415   .     A
C416   C419    1.415   .     A
C417   N441    1.432   .     S
C417   C1121   1.400   .     S
C418   N444    1.434   .     S
C418   C1122   1.399   1_554 S
C419   N447    1.438   .     S
C419   C1119   1.400   1_554 S
C420   N450    1.434   .     S
C420   C1120   1.399   .     S
C421   F453    1.358   .     S
C421   C426    1.403   .     A
C422   C425    1.403   .     A
C422   F454    1.358   .     S
C422   C268    1.371   1_655 S
C423   F455    1.359   .     S
C423   C425    1.404   .     A
C423   C265    1.371   1_655 S
C424   F456    1.359   .     S
C424   C426    1.404   .     A
C427   N432    1.371   .     A
C427   N457    1.429   .     S
C428   N460    1.429   .     S
C428   N431    1.370   .     A
C428   C663    1.422   .     S
C429   N463    1.426   .     S
C429   N432    1.371   .     A
C430   N466    1.424   .     S
C430   N431    1.370   .     A
C430   C661    1.423   .     S
N433   O434    1.301   .     A
N433   O435    1.301   .     A
N436   O437    1.300   .     A
N436   O438    1.301   .     A
N441   O442    1.300   .     A
N441   O443    1.301   .     A
N444   O446    1.301   .     A
N444   O445    1.301   .     A
N447   O449    1.301   .     A
N447   O448    1.300   .     A
N450   O452    1.301   .     A
N450   O451    1.301   .     A
N457   O458    1.299   .     A
N457   O459    1.301   .     A
N460   O461    1.301   .     A
N460   O462    1.300   .     A
N463   O464    1.300   .     A
N463   O465    1.301   .     A
N466   O468    1.299   .     A
N466   O467    1.301   .     A
O469   C473    1.291   .     A
O469   Zn481   2.018   .     S
O470   C474    1.291   .     A
O470   Zn482   2.018   .     S
O471   C474    1.292   .     A
O471   Zn481   2.021   .     S
O472   C473    1.292   .     A
O472   Zn482   2.021   .     S
C473   C504    1.435   .     S
C474   C503    1.436   .     S
O475   C479    1.288   .     A
O475   Zn481   2.002   .     S
O476   C480    1.285   .     A
O476   Zn482   2.002   .     S
O477   Zn481   2.008   .     S
O477   C480    1.292   .     A
O478   Zn482   2.008   .     S
O478   C479    1.287   .     A
C479   C486    1.422   .     S
C480   C485    1.428   .     S
Zn481  N509    2.022   .     S
Zn482  N510    2.022   .     S
C483   C485    1.399   .     A
C483   N511    1.438   .     S
C483   C493    1.407   .     A
C484   C494    1.404   .     A
C484   N514    1.440   .     S
C484   C486    1.398   .     A
C485   C487    1.387   .     A
C486   C488    1.385   .     A
C487   C489    1.395   .     A
C487   F517    1.360   .     S
C488   F518    1.361   .     S
C488   C490    1.393   .     A
C489   C495    1.411   .     A
C489   C491    1.418   .     A
C490   C496    1.410   .     A
C490   C492    1.418   .     A
C491   C493    1.419   .     A
C491   C1194   1.399   .     S
C492   C494    1.419   .     A
C492   C1193   1.399   1_554 S
C493   C498    1.415   .     A
C494   C497    1.415   .     A
C495   N519    1.432   .     S
C495   C1199   1.400   .     S
C496   N522    1.434   .     S
C496   C1200   1.399   1_554 S
C497   N525    1.438   .     S
C497   C1197   1.400   1_554 S
C498   N528    1.434   .     S
C498   C1198   1.399   .     S
C499   F531    1.358   .     S
C499   C504    1.403   .     A
C499   C657    1.371   1_455 S
C500   C503    1.403   .     A
C500   F532    1.358   .     S
C500   C580    1.371   .     S
C501   F533    1.359   .     S
C501   C503    1.404   .     A
C501   C577    1.371   .     S
C502   F534    1.359   .     S
C502   C504    1.404   .     A
C502   C656    1.371   1_455 S
C505   N510    1.371   .     A
C505   N535    1.429   .     S
C506   N538    1.429   .     S
C506   N509    1.370   .     A
C506   C39     1.422   1_565 S
C507   N541    1.426   .     S
C507   N510    1.371   .     A
C508   N544    1.424   .     S
C508   N509    1.370   .     A
C508   C37     1.423   1_565 S
N511   O512    1.301   .     A
N511   O513    1.301   .     A
N514   O515    1.300   .     A
N514   O516    1.301   .     A
N519   O520    1.300   .     A
N519   O521    1.301   .     A
N522   O524    1.301   .     A
N522   O523    1.301   .     A
N525   O527    1.301   .     A
N525   O526    1.300   .     A
N528   O530    1.301   .     A
N528   O529    1.301   .     A
N535   O536    1.299   .     A
N535   O537    1.301   .     A
N538   O539    1.301   .     A
N538   O540    1.300   .     A
N541   O542    1.300   .     A
N541   O543    1.301   .     A
N544   O546    1.299   .     A
N544   O545    1.301   .     A
O547   C551    1.291   .     A
O547   Zn559   2.018   .     S
O548   C552    1.291   .     A
O548   Zn560   2.018   .     S
O549   C552    1.292   .     A
O549   Zn559   2.021   .     S
O550   C551    1.292   .     A
O550   Zn560   2.021   .     S
C551   C582    1.435   .     S
C552   C581    1.436   .     S
O553   C557    1.288   .     A
O553   Zn559   2.002   .     S
O554   C558    1.285   .     A
O554   Zn560   2.002   .     S
O555   Zn559   2.008   .     S
O555   C558    1.292   .     A
O556   Zn560   2.008   .     S
O556   C557    1.287   .     A
C557   C564    1.422   .     S
C558   C563    1.428   .     S
Zn559  N587    2.022   .     S
Zn560  N588    2.022   .     S
C561   C563    1.399   .     A
C561   N589    1.438   .     S
C561   C571    1.407   .     A
C562   C572    1.404   .     A
C562   N592    1.440   .     S
C562   C564    1.398   .     A
C563   C565    1.387   .     A
C564   C566    1.385   .     A
C565   C567    1.395   .     A
C565   F595    1.360   .     S
C566   F596    1.361   .     S
C566   C568    1.393   .     A
C567   C573    1.411   .     A
C567   C569    1.418   .     A
C568   C574    1.410   .     A
C568   C570    1.418   .     A
C569   C571    1.419   .     A
C569   C1272   1.399   .     S
C570   C572    1.419   .     A
C570   C1271   1.399   1_554 S
C571   C576    1.415   .     A
C572   C575    1.415   .     A
C573   N597    1.432   .     S
C573   C1277   1.400   .     S
C574   N600    1.434   .     S
C574   C1278   1.399   1_554 S
C575   N603    1.438   .     S
C575   C1275   1.400   1_554 S
C576   N606    1.434   .     S
C576   C1276   1.399   .     S
C577   F609    1.358   .     S
C577   C582    1.403   .     A
C578   C581    1.403   .     A
C578   F610    1.358   .     S
C578   C658    1.371   .     S
C579   F611    1.359   .     S
C579   C581    1.404   .     A
C579   C655    1.371   .     S
C580   F612    1.359   .     S
C580   C582    1.404   .     A
C583   N588    1.371   .     A
C583   N613    1.429   .     S
C584   N616    1.429   .     S
C584   N587    1.370   .     A
C584   C117    1.422   1_565 S
C585   N619    1.426   .     S
C585   N588    1.371   .     A
C586   N622    1.424   .     S
C586   N587    1.370   .     A
C586   C115    1.423   1_565 S
N589   O590    1.301   .     A
N589   O591    1.301   .     A
N592   O593    1.300   .     A
N592   O594    1.301   .     A
N597   O598    1.300   .     A
N597   O599    1.301   .     A
N600   O602    1.301   .     A
N600   O601    1.301   .     A
N603   O605    1.301   .     A
N603   O604    1.300   .     A
N606   O608    1.301   .     A
N606   O607    1.301   .     A
N613   O614    1.299   .     A
N613   O615    1.301   .     A
N616   O617    1.301   .     A
N616   O618    1.300   .     A
N619   O620    1.300   .     A
N619   O621    1.301   .     A
N622   O624    1.299   .     A
N622   O623    1.301   .     A
O625   C629    1.291   .     A
O625   Zn637   2.018   .     S
O626   C630    1.291   .     A
O626   Zn638   2.018   .     S
O627   C630    1.292   .     A
O627   Zn637   2.021   .     S
O628   C629    1.292   .     A
O628   Zn638   2.021   .     S
C629   C660    1.435   .     S
C630   C659    1.436   .     S
O631   C635    1.288   .     A
O631   Zn637   2.002   .     S
O632   C636    1.285   .     A
O632   Zn638   2.002   .     S
O633   Zn637   2.008   .     S
O633   C636    1.292   .     A
O634   Zn638   2.008   .     S
O634   C635    1.287   .     A
C635   C642    1.422   .     S
C636   C641    1.428   .     S
Zn637  N665    2.022   .     S
Zn638  N666    2.022   .     S
C639   C641    1.399   .     A
C639   N667    1.438   .     S
C639   C649    1.407   .     A
C640   C650    1.404   .     A
C640   N670    1.440   .     S
C640   C642    1.398   .     A
C641   C643    1.387   .     A
C642   C644    1.385   .     A
C643   C645    1.395   .     A
C643   F673    1.360   .     S
C644   F674    1.361   .     S
C644   C646    1.393   .     A
C645   C651    1.411   .     A
C645   C647    1.418   .     A
C646   C652    1.410   .     A
C646   C648    1.418   .     A
C647   C649    1.419   .     A
C647   C1350   1.399   .     S
C648   C650    1.419   .     A
C648   C1349   1.399   1_554 S
C649   C654    1.415   .     A
C650   C653    1.415   .     A
C651   N675    1.432   .     S
C651   C1355   1.400   .     S
C652   N678    1.434   .     S
C652   C1356   1.399   1_554 S
C653   N681    1.438   .     S
C653   C1353   1.400   1_554 S
C654   N684    1.434   .     S
C654   C1354   1.399   .     S
C655   F687    1.358   .     S
C655   C660    1.403   .     A
C656   C659    1.403   .     A
C656   F688    1.358   .     S
C656   C502    1.371   1_655 S
C657   F689    1.359   .     S
C657   C659    1.404   .     A
C657   C499    1.371   1_655 S
C658   F690    1.359   .     S
C658   C660    1.404   .     A
C661   N666    1.371   .     A
C661   N691    1.429   .     S
C662   N694    1.429   .     S
C662   N665    1.370   .     A
C662   C195    1.422   1_565 S
C663   N697    1.426   .     S
C663   N666    1.371   .     A
C664   N700    1.424   .     S
C664   N665    1.370   .     A
C664   C193    1.423   1_565 S
N667   O668    1.301   .     A
N667   O669    1.301   .     A
N670   O671    1.300   .     A
N670   O672    1.301   .     A
N675   O676    1.300   .     A
N675   O677    1.301   .     A
N678   O680    1.301   .     A
N678   O679    1.301   .     A
N681   O683    1.301   .     A
N681   O682    1.300   .     A
N684   O686    1.301   .     A
N684   O685    1.301   .     A
N691   O692    1.299   .     A
N691   O693    1.301   .     A
N694   O695    1.301   .     A
N694   O696    1.300   .     A
N697   O698    1.300   .     A
N697   O699    1.301   .     A
N700   O702    1.299   .     A
N700   O701    1.301   .     A
O703   C707    1.291   .     A
O703   Zn715   2.018   .     S
O704   C708    1.291   .     A
O704   Zn716   2.018   .     S
O705   C708    1.292   .     A
O705   Zn715   2.021   .     S
O706   C707    1.292   .     A
O706   Zn716   2.021   .     S
C707   C738    1.435   .     S
C708   C737    1.436   .     S
O709   C713    1.288   .     A
O709   Zn715   2.002   .     S
O710   C714    1.285   .     A
O710   Zn716   2.002   .     S
O711   Zn715   2.008   .     S
O711   C714    1.292   .     A
O712   Zn716   2.008   .     S
O712   C713    1.287   .     A
C713   C720    1.422   .     S
C714   C719    1.428   .     S
Zn715  N743    2.022   .     S
Zn716  N744    2.022   .     S
C717   C719    1.399   .     A
C717   N745    1.438   .     S
C717   C727    1.407   .     A
C718   C728    1.404   .     A
C718   N748    1.440   .     S
C718   C720    1.398   .     A
C719   C721    1.387   .     A
C720   C722    1.385   .     A
C721   C723    1.395   .     A
C721   F751    1.360   .     S
C722   F752    1.361   .     S
C722   C724    1.393   .     A
C723   C729    1.411   .     A
C723   C725    1.418   .     A
C724   C730    1.410   .     A
C724   C726    1.418   .     A
C725   C727    1.419   .     A
C725   C24     1.399   1_556 S
C726   C728    1.419   .     A
C727   C732    1.415   .     A
C728   C731    1.415   .     A
C729   N753    1.432   .     S
C729   C29     1.400   1_556 S
C730   N756    1.434   .     S
C731   N759    1.438   .     S
C732   N762    1.434   .     S
C732   C28     1.399   1_556 S
C733   F765    1.358   .     S
C733   C738    1.403   .     A
C733   C891    1.371   1_455 S
C734   C737    1.403   .     A
C734   F766    1.358   .     S
C734   C814    1.371   .     S
C735   F767    1.359   .     S
C735   C737    1.404   .     A
C735   C811    1.371   .     S
C736   F768    1.359   .     S
C736   C738    1.404   .     A
C736   C890    1.371   1_455 S
C739   N744    1.371   .     A
C739   N769    1.429   .     S
C739   C1210   1.423   1_545 S
C740   N772    1.429   .     S
C740   N743    1.370   .     A
C740   C975    1.422   .     S
C741   N775    1.426   .     S
C741   N744    1.371   .     A
C741   C1208   1.422   1_545 S
C742   N778    1.424   .     S
C742   N743    1.370   .     A
C742   C973    1.423   .     S
N745   O746    1.301   .     A
N745   O747    1.301   .     A
N748   O749    1.300   .     A
N748   O750    1.301   .     A
N753   O754    1.300   .     A
N753   O755    1.301   .     A
N756   O758    1.301   .     A
N756   O757    1.301   .     A
N759   O761    1.301   .     A
N759   O760    1.300   .     A
N762   O764    1.301   .     A
N762   O763    1.301   .     A
N769   O770    1.299   .     A
N769   O771    1.301   .     A
N772   O773    1.301   .     A
N772   O774    1.300   .     A
N775   O776    1.300   .     A
N775   O777    1.301   .     A
N778   O780    1.299   .     A
N778   O779    1.301   .     A
O781   C785    1.291   .     A
O781   Zn793   2.018   .     S
O782   C786    1.291   .     A
O782   Zn794   2.018   .     S
O783   C786    1.292   .     A
O783   Zn793   2.021   .     S
O784   C785    1.292   .     A
O784   Zn794   2.021   .     S
C785   C816    1.435   .     S
C786   C815    1.436   .     S
O787   C791    1.288   .     A
O787   Zn793   2.002   .     S
O788   C792    1.285   .     A
O788   Zn794   2.002   .     S
O789   Zn793   2.008   .     S
O789   C792    1.292   .     A
O790   Zn794   2.008   .     S
O790   C791    1.287   .     A
C791   C798    1.422   .     S
C792   C797    1.428   .     S
Zn793  N821    2.022   .     S
Zn794  N822    2.022   .     S
C795   C797    1.399   .     A
C795   N823    1.438   .     S
C795   C805    1.407   .     A
C796   C806    1.404   .     A
C796   N826    1.440   .     S
C796   C798    1.398   .     A
C797   C799    1.387   .     A
C798   C800    1.385   .     A
C799   C801    1.395   .     A
C799   F829    1.360   .     S
C800   F830    1.361   .     S
C800   C802    1.393   .     A
C801   C807    1.411   .     A
C801   C803    1.418   .     A
C802   C808    1.410   .     A
C802   C804    1.418   .     A
C803   C805    1.419   .     A
C803   C102    1.399   1_556 S
C804   C806    1.419   .     A
C805   C810    1.415   .     A
C806   C809    1.415   .     A
C807   N831    1.432   .     S
C807   C107    1.400   1_556 S
C808   N834    1.434   .     S
C809   N837    1.438   .     S
C810   N840    1.434   .     S
C810   C106    1.399   1_556 S
C811   F843    1.358   .     S
C811   C816    1.403   .     A
C812   C815    1.403   .     A
C812   F844    1.358   .     S
C812   C892    1.371   .     S
C813   F845    1.359   .     S
C813   C815    1.404   .     A
C813   C889    1.371   .     S
C814   F846    1.359   .     S
C814   C816    1.404   .     A
C817   N822    1.371   .     A
C817   N847    1.429   .     S
C817   C1288   1.423   1_545 S
C818   N850    1.429   .     S
C818   N821    1.370   .     A
C818   C1053   1.422   .     S
C819   N853    1.426   .     S
C819   N822    1.371   .     A
C819   C1286   1.422   1_545 S
C820   N856    1.424   .     S
C820   N821    1.370   .     A
C820   C1051   1.423   .     S
N823   O824    1.301   .     A
N823   O825    1.301   .     A
N826   O827    1.300   .     A
N826   O828    1.301   .     A
N831   O832    1.300   .     A
N831   O833    1.301   .     A
N834   O836    1.301   .     A
N834   O835    1.301   .     A
N837   O839    1.301   .     A
N837   O838    1.300   .     A
N840   O842    1.301   .     A
N840   O841    1.301   .     A
N847   O848    1.299   .     A
N847   O849    1.301   .     A
N850   O851    1.301   .     A
N850   O852    1.300   .     A
N853   O854    1.300   .     A
N853   O855    1.301   .     A
N856   O858    1.299   .     A
N856   O857    1.301   .     A
O859   C863    1.291   .     A
O859   Zn871   2.018   .     S
O860   C864    1.291   .     A
O860   Zn872   2.018   .     S
O861   C864    1.292   .     A
O861   Zn871   2.021   .     S
O862   C863    1.292   .     A
O862   Zn872   2.021   .     S
C863   C894    1.435   .     S
C864   C893    1.436   .     S
O865   C869    1.288   .     A
O865   Zn871   2.002   .     S
O866   C870    1.285   .     A
O866   Zn872   2.002   .     S
O867   Zn871   2.008   .     S
O867   C870    1.292   .     A
O868   Zn872   2.008   .     S
O868   C869    1.287   .     A
C869   C876    1.422   .     S
C870   C875    1.428   .     S
Zn871  N899    2.022   .     S
Zn872  N900    2.022   .     S
C873   C875    1.399   .     A
C873   N901    1.438   .     S
C873   C883    1.407   .     A
C874   C884    1.404   .     A
C874   N904    1.440   .     S
C874   C876    1.398   .     A
C875   C877    1.387   .     A
C876   C878    1.385   .     A
C877   C879    1.395   .     A
C877   F907    1.360   .     S
C878   F908    1.361   .     S
C878   C880    1.393   .     A
C879   C885    1.411   .     A
C879   C881    1.418   .     A
C880   C886    1.410   .     A
C880   C882    1.418   .     A
C881   C883    1.419   .     A
C881   C180    1.399   1_556 S
C882   C884    1.419   .     A
C883   C888    1.415   .     A
C884   C887    1.415   .     A
C885   N909    1.432   .     S
C885   C185    1.400   1_556 S
C886   N912    1.434   .     S
C887   N915    1.438   .     S
C888   N918    1.434   .     S
C888   C184    1.399   1_556 S
C889   F921    1.358   .     S
C889   C894    1.403   .     A
C890   C893    1.403   .     A
C890   F922    1.358   .     S
C890   C736    1.371   1_655 S
C891   F923    1.359   .     S
C891   C893    1.404   .     A
C891   C733    1.371   1_655 S
C892   F924    1.359   .     S
C892   C894    1.404   .     A
C895   N900    1.371   .     A
C895   N925    1.429   .     S
C895   C1366   1.423   1_545 S
C896   N928    1.429   .     S
C896   N899    1.370   .     A
C896   C1131   1.422   .     S
C897   N931    1.426   .     S
C897   N900    1.371   .     A
C897   C1364   1.422   1_545 S
C898   N934    1.424   .     S
C898   N899    1.370   .     A
C898   C1129   1.423   .     S
N901   O902    1.301   .     A
N901   O903    1.301   .     A
N904   O905    1.300   .     A
N904   O906    1.301   .     A
N909   O910    1.300   .     A
N909   O911    1.301   .     A
N912   O914    1.301   .     A
N912   O913    1.301   .     A
N915   O917    1.301   .     A
N915   O916    1.300   .     A
N918   O920    1.301   .     A
N918   O919    1.301   .     A
N925   O926    1.299   .     A
N925   O927    1.301   .     A
N928   O929    1.301   .     A
N928   O930    1.300   .     A
N931   O932    1.300   .     A
N931   O933    1.301   .     A
N934   O936    1.299   .     A
N934   O935    1.301   .     A
O937   C941    1.291   .     A
O937   Zn949   2.018   .     S
O938   C942    1.291   .     A
O938   Zn950   2.018   .     S
O939   C942    1.292   .     A
O939   Zn949   2.021   .     S
O940   C941    1.292   .     A
O940   Zn950   2.021   .     S
C941   C972    1.435   .     S
C942   C971    1.436   .     S
O943   C947    1.288   .     A
O943   Zn949   2.002   .     S
O944   C948    1.285   .     A
O944   Zn950   2.002   .     S
O945   Zn949   2.008   .     S
O945   C948    1.292   .     A
O946   Zn950   2.008   .     S
O946   C947    1.287   .     A
C947   C954    1.422   .     S
C948   C953    1.428   .     S
Zn949  N977    2.022   .     S
Zn950  N978    2.022   .     S
C951   C953    1.399   .     A
C951   N979    1.438   .     S
C951   C961    1.407   .     A
C952   C962    1.404   .     A
C952   N982    1.440   .     S
C952   C954    1.398   .     A
C953   C955    1.387   .     A
C954   C956    1.385   .     A
C955   C957    1.395   .     A
C955   F985    1.360   .     S
C956   F986    1.361   .     S
C956   C958    1.393   .     A
C957   C963    1.411   .     A
C957   C959    1.418   .     A
C958   C964    1.410   .     A
C958   C960    1.418   .     A
C959   C961    1.419   .     A
C959   C258    1.399   1_556 S
C960   C962    1.419   .     A
C961   C966    1.415   .     A
C962   C965    1.415   .     A
C963   N987    1.432   .     S
C963   C263    1.400   1_556 S
C964   N990    1.434   .     S
C965   N993    1.438   .     S
C966   N996    1.434   .     S
C966   C262    1.399   1_556 S
C967   F999    1.358   .     S
C967   C972    1.403   .     A
C967   C1125   1.371   1_455 S
C968   C971    1.403   .     A
C968   F1000   1.358   .     S
C968   C1048   1.371   .     S
C969   F1001   1.359   .     S
C969   C971    1.404   .     A
C969   C1045   1.371   .     S
C970   F1002   1.359   .     S
C970   C972    1.404   .     A
C970   C1124   1.371   1_455 S
C973   N978    1.371   .     A
C973   N1003   1.429   .     S
C974   N1006   1.429   .     S
C974   N977    1.370   .     A
C974   C1209   1.422   .     S
C975   N1009   1.426   .     S
C975   N978    1.371   .     A
C976   N1012   1.424   .     S
C976   N977    1.370   .     A
C976   C1207   1.423   .     S
N979   O980    1.301   .     A
N979   O981    1.301   .     A
N982   O983    1.300   .     A
N982   O984    1.301   .     A
N987   O988    1.300   .     A
N987   O989    1.301   .     A
N990   O992    1.301   .     A
N990   O991    1.301   .     A
N993   O995    1.301   .     A
N993   O994    1.300   .     A
N996   O998    1.301   .     A
N996   O997    1.301   .     A
N1003  O1004   1.299   .     A
N1003  O1005   1.301   .     A
N1006  O1007   1.301   .     A
N1006  O1008   1.300   .     A
N1009  O1010   1.300   .     A
N1009  O1011   1.301   .     A
N1012  O1014   1.299   .     A
N1012  O1013   1.301   .     A
O1015  C1019   1.291   .     A
O1015  Zn1027  2.018   .     S
O1016  C1020   1.291   .     A
O1016  Zn1028  2.018   .     S
O1017  C1020   1.292   .     A
O1017  Zn1027  2.021   .     S
O1018  C1019   1.292   .     A
O1018  Zn1028  2.021   .     S
C1019  C1050   1.435   .     S
C1020  C1049   1.436   .     S
O1021  C1025   1.288   .     A
O1021  Zn1027  2.002   .     S
O1022  C1026   1.285   .     A
O1022  Zn1028  2.002   .     S
O1023  Zn1027  2.008   .     S
O1023  C1026   1.292   .     A
O1024  Zn1028  2.008   .     S
O1024  C1025   1.287   .     A
C1025  C1032   1.422   .     S
C1026  C1031   1.428   .     S
Zn1027 N1055   2.022   .     S
Zn1028 N1056   2.022   .     S
C1029  C1031   1.399   .     A
C1029  N1057   1.438   .     S
C1029  C1039   1.407   .     A
C1030  C1040   1.404   .     A
C1030  N1060   1.440   .     S
C1030  C1032   1.398   .     A
C1031  C1033   1.387   .     A
C1032  C1034   1.385   .     A
C1033  C1035   1.395   .     A
C1033  F1063   1.360   .     S
C1034  F1064   1.361   .     S
C1034  C1036   1.393   .     A
C1035  C1041   1.411   .     A
C1035  C1037   1.418   .     A
C1036  C1042   1.410   .     A
C1036  C1038   1.418   .     A
C1037  C1039   1.419   .     A
C1037  C336    1.399   1_556 S
C1038  C1040   1.419   .     A
C1039  C1044   1.415   .     A
C1040  C1043   1.415   .     A
C1041  N1065   1.432   .     S
C1041  C341    1.400   1_556 S
C1042  N1068   1.434   .     S
C1043  N1071   1.438   .     S
C1044  N1074   1.434   .     S
C1044  C340    1.399   1_556 S
C1045  F1077   1.358   .     S
C1045  C1050   1.403   .     A
C1046  C1049   1.403   .     A
C1046  F1078   1.358   .     S
C1046  C1126   1.371   .     S
C1047  F1079   1.359   .     S
C1047  C1049   1.404   .     A
C1047  C1123   1.371   .     S
C1048  F1080   1.359   .     S
C1048  C1050   1.404   .     A
C1051  N1056   1.371   .     A
C1051  N1081   1.429   .     S
C1052  N1084   1.429   .     S
C1052  N1055   1.370   .     A
C1052  C1287   1.422   .     S
C1053  N1087   1.426   .     S
C1053  N1056   1.371   .     A
C1054  N1090   1.424   .     S
C1054  N1055   1.370   .     A
C1054  C1285   1.423   .     S
N1057  O1058   1.301   .     A
N1057  O1059   1.301   .     A
N1060  O1061   1.300   .     A
N1060  O1062   1.301   .     A
N1065  O1066   1.300   .     A
N1065  O1067   1.301   .     A
N1068  O1070   1.301   .     A
N1068  O1069   1.301   .     A
N1071  O1073   1.301   .     A
N1071  O1072   1.300   .     A
N1074  O1076   1.301   .     A
N1074  O1075   1.301   .     A
N1081  O1082   1.299   .     A
N1081  O1083   1.301   .     A
N1084  O1085   1.301   .     A
N1084  O1086   1.300   .     A
N1087  O1088   1.300   .     A
N1087  O1089   1.301   .     A
N1090  O1092   1.299   .     A
N1090  O1091   1.301   .     A
O1093  C1097   1.291   .     A
O1093  Zn1105  2.018   .     S
O1094  C1098   1.291   .     A
O1094  Zn1106  2.018   .     S
O1095  C1098   1.292   .     A
O1095  Zn1105  2.021   .     S
O1096  C1097   1.292   .     A
O1096  Zn1106  2.021   .     S
C1097  C1128   1.435   .     S
C1098  C1127   1.436   .     S
O1099  C1103   1.288   .     A
O1099  Zn1105  2.002   .     S
O1100  C1104   1.285   .     A
O1100  Zn1106  2.002   .     S
O1101  Zn1105  2.008   .     S
O1101  C1104   1.292   .     A
O1102  Zn1106  2.008   .     S
O1102  C1103   1.287   .     A
C1103  C1110   1.422   .     S
C1104  C1109   1.428   .     S
Zn1105 N1133   2.022   .     S
Zn1106 N1134   2.022   .     S
C1107  C1109   1.399   .     A
C1107  N1135   1.438   .     S
C1107  C1117   1.407   .     A
C1108  C1118   1.404   .     A
C1108  N1138   1.440   .     S
C1108  C1110   1.398   .     A
C1109  C1111   1.387   .     A
C1110  C1112   1.385   .     A
C1111  C1113   1.395   .     A
C1111  F1141   1.360   .     S
C1112  F1142   1.361   .     S
C1112  C1114   1.393   .     A
C1113  C1119   1.411   .     A
C1113  C1115   1.418   .     A
C1114  C1120   1.410   .     A
C1114  C1116   1.418   .     A
C1115  C1117   1.419   .     A
C1115  C414    1.399   1_556 S
C1116  C1118   1.419   .     A
C1117  C1122   1.415   .     A
C1118  C1121   1.415   .     A
C1119  N1143   1.432   .     S
C1119  C419    1.400   1_556 S
C1120  N1146   1.434   .     S
C1121  N1149   1.438   .     S
C1122  N1152   1.434   .     S
C1122  C418    1.399   1_556 S
C1123  F1155   1.358   .     S
C1123  C1128   1.403   .     A
C1124  C1127   1.403   .     A
C1124  F1156   1.358   .     S
C1124  C970    1.371   1_655 S
C1125  F1157   1.359   .     S
C1125  C1127   1.404   .     A
C1125  C967    1.371   1_655 S
C1126  F1158   1.359   .     S
C1126  C1128   1.404   .     A
C1129  N1134   1.371   .     A
C1129  N1159   1.429   .     S
C1130  N1162   1.429   .     S
C1130  N1133   1.370   .     A
C1130  C1365   1.422   .     S
C1131  N1165   1.426   .     S
C1131  N1134   1.371   .     A
C1132  N1168   1.424   .     S
C1132  N1133   1.370   .     A
C1132  C1363   1.423   .     S
N1135  O1136   1.301   .     A
N1135  O1137   1.301   .     A
N1138  O1139   1.300   .     A
N1138  O1140   1.301   .     A
N1143  O1144   1.300   .     A
N1143  O1145   1.301   .     A
N1146  O1148   1.301   .     A
N1146  O1147   1.301   .     A
N1149  O1151   1.301   .     A
N1149  O1150   1.300   .     A
N1152  O1154   1.301   .     A
N1152  O1153   1.301   .     A
N1159  O1160   1.299   .     A
N1159  O1161   1.301   .     A
N1162  O1163   1.301   .     A
N1162  O1164   1.300   .     A
N1165  O1166   1.300   .     A
N1165  O1167   1.301   .     A
N1168  O1170   1.299   .     A
N1168  O1169   1.301   .     A
O1171  C1175   1.291   .     A
O1171  Zn1183  2.018   .     S
O1172  C1176   1.291   .     A
O1172  Zn1184  2.018   .     S
O1173  C1176   1.292   .     A
O1173  Zn1183  2.021   .     S
O1174  C1175   1.292   .     A
O1174  Zn1184  2.021   .     S
C1175  C1206   1.435   .     S
C1176  C1205   1.436   .     S
O1177  C1181   1.288   .     A
O1177  Zn1183  2.002   .     S
O1178  C1182   1.285   .     A
O1178  Zn1184  2.002   .     S
O1179  Zn1183  2.008   .     S
O1179  C1182   1.292   .     A
O1180  Zn1184  2.008   .     S
O1180  C1181   1.287   .     A
C1181  C1188   1.422   .     S
C1182  C1187   1.428   .     S
Zn1183 N1211   2.022   .     S
Zn1184 N1212   2.022   .     S
C1185  C1187   1.399   .     A
C1185  N1213   1.438   .     S
C1185  C1195   1.407   .     A
C1186  C1196   1.404   .     A
C1186  N1216   1.440   .     S
C1186  C1188   1.398   .     A
C1187  C1189   1.387   .     A
C1188  C1190   1.385   .     A
C1189  C1191   1.395   .     A
C1189  F1219   1.360   .     S
C1190  F1220   1.361   .     S
C1190  C1192   1.393   .     A
C1191  C1197   1.411   .     A
C1191  C1193   1.418   .     A
C1192  C1198   1.410   .     A
C1192  C1194   1.418   .     A
C1193  C1195   1.419   .     A
C1193  C492    1.399   1_556 S
C1194  C1196   1.419   .     A
C1195  C1200   1.415   .     A
C1196  C1199   1.415   .     A
C1197  N1221   1.432   .     S
C1197  C497    1.400   1_556 S
C1198  N1224   1.434   .     S
C1199  N1227   1.438   .     S
C1200  N1230   1.434   .     S
C1200  C496    1.399   1_556 S
C1201  F1233   1.358   .     S
C1201  C1206   1.403   .     A
C1201  C1359   1.371   1_455 S
C1202  C1205   1.403   .     A
C1202  F1234   1.358   .     S
C1202  C1282   1.371   .     S
C1203  F1235   1.359   .     S
C1203  C1205   1.404   .     A
C1203  C1279   1.371   .     S
C1204  F1236   1.359   .     S
C1204  C1206   1.404   .     A
C1204  C1358   1.371   1_455 S
C1207  N1212   1.371   .     A
C1207  N1237   1.429   .     S
C1208  N1240   1.429   .     S
C1208  N1211   1.370   .     A
C1208  C741    1.422   1_565 S
C1209  N1243   1.426   .     S
C1209  N1212   1.371   .     A
C1210  N1246   1.424   .     S
C1210  N1211   1.370   .     A
C1210  C739    1.423   1_565 S
N1213  O1214   1.301   .     A
N1213  O1215   1.301   .     A
N1216  O1217   1.300   .     A
N1216  O1218   1.301   .     A
N1221  O1222   1.300   .     A
N1221  O1223   1.301   .     A
N1224  O1226   1.301   .     A
N1224  O1225   1.301   .     A
N1227  O1229   1.301   .     A
N1227  O1228   1.300   .     A
N1230  O1232   1.301   .     A
N1230  O1231   1.301   .     A
N1237  O1238   1.299   .     A
N1237  O1239   1.301   .     A
N1240  O1241   1.301   .     A
N1240  O1242   1.300   .     A
N1243  O1244   1.300   .     A
N1243  O1245   1.301   .     A
N1246  O1248   1.299   .     A
N1246  O1247   1.301   .     A
O1249  C1253   1.291   .     A
O1249  Zn1261  2.018   .     S
O1250  C1254   1.291   .     A
O1250  Zn1262  2.018   .     S
O1251  C1254   1.292   .     A
O1251  Zn1261  2.021   .     S
O1252  C1253   1.292   .     A
O1252  Zn1262  2.021   .     S
C1253  C1284   1.435   .     S
C1254  C1283   1.436   .     S
O1255  C1259   1.288   .     A
O1255  Zn1261  2.002   .     S
O1256  C1260   1.285   .     A
O1256  Zn1262  2.002   .     S
O1257  Zn1261  2.008   .     S
O1257  C1260   1.292   .     A
O1258  Zn1262  2.008   .     S
O1258  C1259   1.287   .     A
C1259  C1266   1.422   .     S
C1260  C1265   1.428   .     S
Zn1261 N1289   2.022   .     S
Zn1262 N1290   2.022   .     S
C1263  C1265   1.399   .     A
C1263  N1291   1.438   .     S
C1263  C1273   1.407   .     A
C1264  C1274   1.404   .     A
C1264  N1294   1.440   .     S
C1264  C1266   1.398   .     A
C1265  C1267   1.387   .     A
C1266  C1268   1.385   .     A
C1267  C1269   1.395   .     A
C1267  F1297   1.360   .     S
C1268  F1298   1.361   .     S
C1268  C1270   1.393   .     A
C1269  C1275   1.411   .     A
C1269  C1271   1.418   .     A
C1270  C1276   1.410   .     A
C1270  C1272   1.418   .     A
C1271  C1273   1.419   .     A
C1271  C570    1.399   1_556 S
C1272  C1274   1.419   .     A
C1273  C1278   1.415   .     A
C1274  C1277   1.415   .     A
C1275  N1299   1.432   .     S
C1275  C575    1.400   1_556 S
C1276  N1302   1.434   .     S
C1277  N1305   1.438   .     S
C1278  N1308   1.434   .     S
C1278  C574    1.399   1_556 S
C1279  F1311   1.358   .     S
C1279  C1284   1.403   .     A
C1280  C1283   1.403   .     A
C1280  F1312   1.358   .     S
C1280  C1360   1.371   .     S
C1281  F1313   1.359   .     S
C1281  C1283   1.404   .     A
C1281  C1357   1.371   .     S
C1282  F1314   1.359   .     S
C1282  C1284   1.404   .     A
C1285  N1290   1.371   .     A
C1285  N1315   1.429   .     S
C1286  N1318   1.429   .     S
C1286  N1289   1.370   .     A
C1286  C819    1.422   1_565 S
C1287  N1321   1.426   .     S
C1287  N1290   1.371   .     A
C1288  N1324   1.424   .     S
C1288  N1289   1.370   .     A
C1288  C817    1.423   1_565 S
N1291  O1292   1.301   .     A
N1291  O1293   1.301   .     A
N1294  O1295   1.300   .     A
N1294  O1296   1.301   .     A
N1299  O1300   1.300   .     A
N1299  O1301   1.301   .     A
N1302  O1304   1.301   .     A
N1302  O1303   1.301   .     A
N1305  O1307   1.301   .     A
N1305  O1306   1.300   .     A
N1308  O1310   1.301   .     A
N1308  O1309   1.301   .     A
N1315  O1316   1.299   .     A
N1315  O1317   1.301   .     A
N1318  O1319   1.301   .     A
N1318  O1320   1.300   .     A
N1321  O1322   1.300   .     A
N1321  O1323   1.301   .     A
N1324  O1326   1.299   .     A
N1324  O1325   1.301   .     A
O1327  C1331   1.291   .     A
O1327  Zn1339  2.018   .     S
O1328  C1332   1.291   .     A
O1328  Zn1340  2.018   .     S
O1329  C1332   1.292   .     A
O1329  Zn1339  2.021   .     S
O1330  C1331   1.292   .     A
O1330  Zn1340  2.021   .     S
C1331  C1362   1.435   .     S
C1332  C1361   1.436   .     S
O1333  C1337   1.288   .     A
O1333  Zn1339  2.002   .     S
O1334  C1338   1.285   .     A
O1334  Zn1340  2.002   .     S
O1335  Zn1339  2.008   .     S
O1335  C1338   1.292   .     A
O1336  Zn1340  2.008   .     S
O1336  C1337   1.287   .     A
C1337  C1344   1.422   .     S
C1338  C1343   1.428   .     S
Zn1339 N1367   2.022   .     S
Zn1340 N1368   2.022   .     S
C1341  C1343   1.399   .     A
C1341  N1369   1.438   .     S
C1341  C1351   1.407   .     A
C1342  C1352   1.404   .     A
C1342  N1372   1.440   .     S
C1342  C1344   1.398   .     A
C1343  C1345   1.387   .     A
C1344  C1346   1.385   .     A
C1345  C1347   1.395   .     A
C1345  F1375   1.360   .     S
C1346  F1376   1.361   .     S
C1346  C1348   1.393   .     A
C1347  C1353   1.411   .     A
C1347  C1349   1.418   .     A
C1348  C1354   1.410   .     A
C1348  C1350   1.418   .     A
C1349  C1351   1.419   .     A
C1349  C648    1.399   1_556 S
C1350  C1352   1.419   .     A
C1351  C1356   1.415   .     A
C1352  C1355   1.415   .     A
C1353  N1377   1.432   .     S
C1353  C653    1.400   1_556 S
C1354  N1380   1.434   .     S
C1355  N1383   1.438   .     S
C1356  N1386   1.434   .     S
C1356  C652    1.399   1_556 S
C1357  F1389   1.358   .     S
C1357  C1362   1.403   .     A
C1358  C1361   1.403   .     A
C1358  F1390   1.358   .     S
C1358  C1204   1.371   1_655 S
C1359  F1391   1.359   .     S
C1359  C1361   1.404   .     A
C1359  C1201   1.371   1_655 S
C1360  F1392   1.359   .     S
C1360  C1362   1.404   .     A
C1363  N1368   1.371   .     A
C1363  N1393   1.429   .     S
C1364  N1396   1.429   .     S
C1364  N1367   1.370   .     A
C1364  C897    1.422   1_565 S
C1365  N1399   1.426   .     S
C1365  N1368   1.371   .     A
C1366  N1402   1.424   .     S
C1366  N1367   1.370   .     A
C1366  C895    1.423   1_565 S
N1369  O1370   1.301   .     A
N1369  O1371   1.301   .     A
N1372  O1373   1.300   .     A
N1372  O1374   1.301   .     A
N1377  O1378   1.300   .     A
N1377  O1379   1.301   .     A
N1380  O1382   1.301   .     A
N1380  O1381   1.301   .     A
N1383  O1385   1.301   .     A
N1383  O1384   1.300   .     A
N1386  O1388   1.301   .     A
N1386  O1387   1.301   .     A
N1393  O1394   1.299   .     A
N1393  O1395   1.301   .     A
N1396  O1397   1.301   .     A
N1396  O1398   1.300   .     A
N1399  O1400   1.300   .     A
N1399  O1401   1.301   .     A
N1402  O1404   1.299   .     A
N1402  O1403   1.301   .     A
