data_str_m3_o1_o17_pcu_sym.42
_audit_creation_date              2020-01-03
_audit_creation_method            'Materials Studio'
_symmetry_space_group_name_H-M    'P1'
_symmetry_Int_Tables_number       1
_symmetry_cell_setting            triclinic
loop_
_symmetry_equiv_pos_as_xyz
  x,y,z
_cell_length_a                    32.3620
_cell_length_b                    29.8234
_cell_length_c                    29.8059
_cell_angle_alpha                 90.0501
_cell_angle_beta                  91.9369
_cell_angle_gamma                 89.9386
loop_
_atom_site_label
_atom_site_type_symbol
_atom_site_fract_x
_atom_site_fract_y
_atom_site_fract_z
_atom_site_U_iso_or_equiv
_atom_site_adp_type
_atom_site_occupancy
C1     C     0.08685   0.16671   0.24990   0.00000  Uiso   1.00
C2     C     0.04274   0.16655   0.24839   0.00000  Uiso   1.00
C3     C     0.17310   0.02383   0.28905   0.00000  Uiso   1.00
C4     C     0.16218   0.30963   0.21080   0.00000  Uiso   1.00
C5     C     0.15652   0.02373   0.21203   0.00000  Uiso   1.00
C6     C     0.16892   0.30965   0.28930   0.00000  Uiso   1.00
C7     C     0.16442   0.16678   0.16358   0.00000  Uiso   1.00
C8     C     0.16813   0.16686   0.33646   0.00000  Uiso   1.00
C9     C     0.20316   0.18474   0.40815   0.00000  Uiso   1.00
C10    C     0.12528   0.17483   0.09197   0.00000  Uiso   1.00
C11    C     0.16806   0.16832   0.38450   0.00000  Uiso   1.00
C12    C     0.24657   0.16657   0.24846   0.00000  Uiso   1.00
C13    C     0.16310   0.16791   0.11555   0.00000  Uiso   1.00
C14    C     0.13061   0.16073   0.40530   0.00000  Uiso   1.00
C15    C     0.20081   0.16955   0.09452   0.00000  Uiso   1.00
C16    C     0.12758   0.17081   0.45104   0.00000  Uiso   1.00
C17    C     0.20130   0.18188   0.04906   0.00000  Uiso   1.00
C18    C     0.16448   0.17994   0.47649   0.00000  Uiso   1.00
C19    C     0.16359   0.17996   0.02351   0.00000  Uiso   1.00
C20    C     0.20212   0.18923   0.45515   0.00000  Uiso   1.00
C21    C     0.12519   0.17781   0.04494   0.00000  Uiso   1.00
C22    C     0.08903   0.17400   0.47215   0.00000  Uiso   1.00
C23    C     0.08804   0.17940   0.01868   0.00000  Uiso   1.00
C24    C     0.23709   0.19789   0.02835   0.00000  Uiso   1.00
C25    C     0.26274   0.16385   0.37417   0.00000  Uiso   1.00
C26    C     0.30358   0.18265   0.35847   0.00000  Uiso   1.00
C27    C     0.07450   0.13852   0.12956   0.00000  Uiso   1.00
C28    C     0.02745   0.13888   0.13197   0.00000  Uiso   1.00
C29    C     0.21584   0.04141   0.34887   0.00000  Uiso   1.00
C30    C     0.21501   0.05047   0.39906   0.00000  Uiso   1.00
C31    C     0.18988   0.29597   0.14257   0.00000  Uiso   1.00
C32    C     0.17502   0.29477   0.09361   0.00000  Uiso   1.00
C33    C     0.09267   0.03293   0.17851   0.00000  Uiso   1.00
C34    C     0.23675   0.20371   0.48199   0.00000  Uiso   1.00
C35    C     0.07717   0.01388   0.13355   0.00000  Uiso   1.00
C36    C     0.12324   0.28991   0.34192   0.00000  Uiso   1.00
C37    C     0.12058   0.28519   0.39255   0.00000  Uiso   1.00
C38    C     0.02211   0.12888   0.26478   0.00000  Uiso   1.00
C39    C     0.31191   0.20358   0.22910   0.00000  Uiso   1.00
C40    C     0.31274   0.12783   0.26209   0.00000  Uiso   1.00
C41    C     0.02123   0.20339   0.22964   0.00000  Uiso   1.00
C42    C     0.29086   0.16595   0.24601   0.00000  Uiso   1.00
H43    H     0.24869   0.14350   0.34652   0.00000  Uiso   1.00
H44    H     0.01610   0.17236   0.14196   0.00000  Uiso   1.00
H45    H     0.10408   0.11181   0.36657   0.00000  Uiso   1.00
H46    H     0.08818   0.16482   0.35335   0.00000  Uiso   1.00
H47    H     0.25389   0.13239   0.09989   0.00000  Uiso   1.00
H48    H     0.25506   0.18191   0.12988   0.00000  Uiso   1.00
H49    H     0.05191   0.19930   0.42162   0.00000  Uiso   1.00
H50    H     0.04279   0.14385   0.43482   0.00000  Uiso   1.00
H51    H     0.26374   0.23546   0.07891   0.00000  Uiso   1.00
H52    H     0.29028   0.18689   0.06588   0.00000  Uiso   1.00
H53    H     0.03578   0.21567   0.02625   0.00000  Uiso   1.00
H54    H     0.26925   0.14172   0.40371   0.00000  Uiso   1.00
H55    H     0.02938   0.15945   0.02944   0.00000  Uiso   1.00
H56    H     0.26336   0.25016   0.44121   0.00000  Uiso   1.00
H57    H     0.29133   0.20090   0.45062   0.00000  Uiso   1.00
H58    H     0.03779   0.06258   0.26873   0.00000  Uiso   1.00
H59    H     0.03638   0.08956   0.31924   0.00000  Uiso   1.00
H60    H     0.26878   0.23216   0.18646   0.00000  Uiso   1.00
H61    H     0.27787   0.26070   0.23596   0.00000  Uiso   1.00
H62    H     0.29979   0.06121   0.25801   0.00000  Uiso   1.00
H63    H     0.30067   0.08255   0.31103   0.00000  Uiso   1.00
H64    H     0.03515   0.26978   0.22776   0.00000  Uiso   1.00
H65    H     0.31806   0.20517   0.38393   0.00000  Uiso   1.00
H66    H     0.03308   0.24421   0.17685   0.00000  Uiso   1.00
H67    H     0.23595   0.06662   0.33363   0.00000  Uiso   1.00
H68    H     0.22961   0.00750   0.34416   0.00000  Uiso   1.00
H69    H     0.19687   0.02413   0.41574   0.00000  Uiso   1.00
H70    H     0.24703   0.05029   0.41367   0.00000  Uiso   1.00
H71    H     0.20083   0.08362   0.40546   0.00000  Uiso   1.00
H72    H     0.21340   0.26925   0.14800   0.00000  Uiso   1.00
H73    H     0.20532   0.32900   0.14858   0.00000  Uiso   1.00
H74    H     0.15492   0.32415   0.08602   0.00000  Uiso   1.00
H75    H     0.20193   0.29586   0.07149   0.00000  Uiso   1.00
H76    H     0.32542   0.15490   0.35204   0.00000  Uiso   1.00
H77    H     0.15726   0.26369   0.08651   0.00000  Uiso   1.00
H78    H     0.07476   0.06340   0.18613   0.00000  Uiso   1.00
H79    H     0.08468   0.00836   0.20521   0.00000  Uiso   1.00
H80    H     0.08776   0.31207   0.12983   0.00000  Uiso   1.00
H81    H     0.04284   0.01414   0.13186   0.00000  Uiso   1.00
H82    H     0.08876   0.03392   0.10531   0.00000  Uiso   1.00
H83    H     0.10608   0.26176   0.32546   0.00000  Uiso   1.00
H84    H     0.10734   0.32192   0.33226   0.00000  Uiso   1.00
H85    H     0.13268   0.31589   0.40940   0.00000  Uiso   1.00
H86    H     0.08788   0.28039   0.40162   0.00000  Uiso   1.00
H87    H     0.29818   0.20277   0.32762   0.00000  Uiso   1.00
H88    H     0.13902   0.25608   0.40465   0.00000  Uiso   1.00
H89    H     0.08756   0.13262   0.16368   0.00000  Uiso   1.00
H90    H     0.08324   0.11023   0.10737   0.00000  Uiso   1.00
H91    H     0.01293   0.13001   0.09896   0.00000  Uiso   1.00
H92    H     0.01741   0.11372   0.15679   0.00000  Uiso   1.00
N93    N     0.16667   0.28573   0.25000   0.00000  Uiso   1.00
N94    N     0.29116   0.24223   0.21035   0.00000  Uiso   1.00
N95    N     0.29167   0.08871   0.27762   0.00000  Uiso   1.00
N96    N     0.04279   0.24056   0.21046   0.00000  Uiso   1.00
N97    N     0.16667   0.04760   0.25000   0.00000  Uiso   1.00
N98    N     0.09590   0.14295   0.37974   0.00000  Uiso   1.00
N99    N     0.23713   0.15468   0.11936   0.00000  Uiso   1.00
N100   N     0.05023   0.17565   0.44735   0.00000  Uiso   1.00
N101   N     0.27279   0.21381   0.05344   0.00000  Uiso   1.00
N102   N     0.04887   0.18600   0.03889   0.00000  Uiso   1.00
N103   N     0.27220   0.22512   0.46408   0.00000  Uiso   1.00
N104   N     0.04466   0.09243   0.28579   0.00000  Uiso   1.00
O105   O     0.10559   0.20487   0.24999   0.00000  Uiso   1.00
O106   O     0.08888   0.18049   0.11470   0.00000  Uiso   1.00
O107   O     0.17552   0.04588   0.32975   0.00000  Uiso   1.00
O108   O     0.15612   0.28757   0.17045   0.00000  Uiso   1.00
O109   O     0.13533   0.04442   0.17681   0.00000  Uiso   1.00
O110   O     0.16527   0.28841   0.33001   0.00000  Uiso   1.00
O111   O     0.22774   0.12846   0.25000   0.00000  Uiso   1.00
O112   O     0.22774   0.20487   0.25000   0.00000  Uiso   1.00
O113   O     0.10559   0.12846   0.24999   0.00000  Uiso   1.00
O114   O     0.16666   0.20489   0.18392   0.00000  Uiso   1.00
O115   O     0.16667   0.12844   0.31607   0.00000  Uiso   1.00
O116   O     0.16667   0.20489   0.31607   0.00000  Uiso   1.00
O117   O     0.16666   0.12844   0.18392   0.00000  Uiso   1.00
O118   O     0.23657   0.20001   0.38463   0.00000  Uiso   1.00
Zn119  Zn    0.16667   0.21771   0.25000   0.00000  Uiso   1.00
Zn120  Zn    0.16667   0.11563   0.25000   0.00000  Uiso   1.00
C121   C     0.42018   0.16671   0.24990   0.00000  Uiso   1.00
C122   C     0.37607   0.16655   0.24839   0.00000  Uiso   1.00
C123   C     0.50644   0.02383   0.28905   0.00000  Uiso   1.00
C124   C     0.49552   0.30963   0.21080   0.00000  Uiso   1.00
C125   C     0.48986   0.02373   0.21203   0.00000  Uiso   1.00
C126   C     0.50225   0.30965   0.28930   0.00000  Uiso   1.00
C127   C     0.49776   0.16678   0.16358   0.00000  Uiso   1.00
C128   C     0.50146   0.16686   0.33646   0.00000  Uiso   1.00
C129   C     0.53649   0.18474   0.40815   0.00000  Uiso   1.00
C130   C     0.45861   0.17483   0.09197   0.00000  Uiso   1.00
C131   C     0.50139   0.16832   0.38450   0.00000  Uiso   1.00
C132   C     0.57991   0.16657   0.24846   0.00000  Uiso   1.00
C133   C     0.49643   0.16791   0.11555   0.00000  Uiso   1.00
C134   C     0.46394   0.16073   0.40530   0.00000  Uiso   1.00
C135   C     0.53414   0.16955   0.09452   0.00000  Uiso   1.00
C136   C     0.46091   0.17081   0.45104   0.00000  Uiso   1.00
C137   C     0.53463   0.18188   0.04906   0.00000  Uiso   1.00
C138   C     0.49781   0.17994   0.47649   0.00000  Uiso   1.00
C139   C     0.49693   0.17996   0.02351   0.00000  Uiso   1.00
C140   C     0.53546   0.18923   0.45515   0.00000  Uiso   1.00
C141   C     0.45852   0.17781   0.04494   0.00000  Uiso   1.00
C142   C     0.42236   0.17400   0.47215   0.00000  Uiso   1.00
C143   C     0.42137   0.17940   0.01868   0.00000  Uiso   1.00
C144   C     0.57042   0.19789   0.02835   0.00000  Uiso   1.00
C145   C     0.59607   0.16385   0.37417   0.00000  Uiso   1.00
C146   C     0.63691   0.18265   0.35847   0.00000  Uiso   1.00
C147   C     0.40783   0.13852   0.12956   0.00000  Uiso   1.00
C148   C     0.36078   0.13888   0.13197   0.00000  Uiso   1.00
C149   C     0.54917   0.04141   0.34887   0.00000  Uiso   1.00
C150   C     0.54834   0.05047   0.39906   0.00000  Uiso   1.00
C151   C     0.52322   0.29597   0.14257   0.00000  Uiso   1.00
C152   C     0.50836   0.29477   0.09361   0.00000  Uiso   1.00
C153   C     0.42601   0.03293   0.17851   0.00000  Uiso   1.00
C154   C     0.57009   0.20371   0.48199   0.00000  Uiso   1.00
C155   C     0.41050   0.01388   0.13355   0.00000  Uiso   1.00
C156   C     0.45658   0.28991   0.34192   0.00000  Uiso   1.00
C157   C     0.45391   0.28519   0.39255   0.00000  Uiso   1.00
C158   C     0.35544   0.12888   0.26478   0.00000  Uiso   1.00
C159   C     0.64525   0.20358   0.22910   0.00000  Uiso   1.00
C160   C     0.64607   0.12783   0.26209   0.00000  Uiso   1.00
C161   C     0.35456   0.20339   0.22964   0.00000  Uiso   1.00
C162   C     0.62420   0.16595   0.24601   0.00000  Uiso   1.00
H163   H     0.58202   0.14350   0.34652   0.00000  Uiso   1.00
H164   H     0.34943   0.17236   0.14196   0.00000  Uiso   1.00
H165   H     0.43741   0.11181   0.36657   0.00000  Uiso   1.00
H166   H     0.42151   0.16482   0.35335   0.00000  Uiso   1.00
H167   H     0.58722   0.13239   0.09989   0.00000  Uiso   1.00
H168   H     0.58840   0.18191   0.12988   0.00000  Uiso   1.00
H169   H     0.38524   0.19930   0.42162   0.00000  Uiso   1.00
H170   H     0.37612   0.14385   0.43482   0.00000  Uiso   1.00
H171   H     0.59707   0.23546   0.07891   0.00000  Uiso   1.00
H172   H     0.62361   0.18689   0.06588   0.00000  Uiso   1.00
H173   H     0.36912   0.21567   0.02625   0.00000  Uiso   1.00
H174   H     0.60258   0.14172   0.40371   0.00000  Uiso   1.00
H175   H     0.36271   0.15945   0.02944   0.00000  Uiso   1.00
H176   H     0.59669   0.25016   0.44121   0.00000  Uiso   1.00
H177   H     0.62466   0.20090   0.45062   0.00000  Uiso   1.00
H178   H     0.37112   0.06258   0.26873   0.00000  Uiso   1.00
H179   H     0.36971   0.08956   0.31924   0.00000  Uiso   1.00
H180   H     0.60211   0.23216   0.18646   0.00000  Uiso   1.00
H181   H     0.61120   0.26070   0.23596   0.00000  Uiso   1.00
H182   H     0.63312   0.06121   0.25801   0.00000  Uiso   1.00
H183   H     0.63400   0.08255   0.31103   0.00000  Uiso   1.00
H184   H     0.36849   0.26978   0.22776   0.00000  Uiso   1.00
H185   H     0.65139   0.20517   0.38393   0.00000  Uiso   1.00
H186   H     0.36642   0.24421   0.17685   0.00000  Uiso   1.00
H187   H     0.56928   0.06662   0.33363   0.00000  Uiso   1.00
H188   H     0.56294   0.00750   0.34416   0.00000  Uiso   1.00
H189   H     0.53020   0.02413   0.41574   0.00000  Uiso   1.00
H190   H     0.58036   0.05029   0.41367   0.00000  Uiso   1.00
H191   H     0.53417   0.08362   0.40546   0.00000  Uiso   1.00
H192   H     0.54673   0.26925   0.14800   0.00000  Uiso   1.00
H193   H     0.53866   0.32900   0.14858   0.00000  Uiso   1.00
H194   H     0.48826   0.32415   0.08602   0.00000  Uiso   1.00
H195   H     0.53527   0.29586   0.07149   0.00000  Uiso   1.00
H196   H     0.65876   0.15490   0.35204   0.00000  Uiso   1.00
H197   H     0.49059   0.26369   0.08651   0.00000  Uiso   1.00
H198   H     0.40810   0.06340   0.18613   0.00000  Uiso   1.00
H199   H     0.41802   0.00836   0.20521   0.00000  Uiso   1.00
H200   H     0.42109   0.31207   0.12983   0.00000  Uiso   1.00
H201   H     0.37617   0.01414   0.13186   0.00000  Uiso   1.00
H202   H     0.42209   0.03392   0.10531   0.00000  Uiso   1.00
H203   H     0.43941   0.26176   0.32546   0.00000  Uiso   1.00
H204   H     0.44067   0.32192   0.33226   0.00000  Uiso   1.00
H205   H     0.46602   0.31589   0.40940   0.00000  Uiso   1.00
H206   H     0.42121   0.28039   0.40162   0.00000  Uiso   1.00
H207   H     0.63152   0.20277   0.32762   0.00000  Uiso   1.00
H208   H     0.47235   0.25608   0.40465   0.00000  Uiso   1.00
H209   H     0.42089   0.13262   0.16368   0.00000  Uiso   1.00
H210   H     0.41657   0.11023   0.10737   0.00000  Uiso   1.00
H211   H     0.34626   0.13001   0.09896   0.00000  Uiso   1.00
H212   H     0.35074   0.11372   0.15679   0.00000  Uiso   1.00
N213   N     0.50000   0.28573   0.25000   0.00000  Uiso   1.00
N214   N     0.62449   0.24223   0.21035   0.00000  Uiso   1.00
N215   N     0.62500   0.08871   0.27762   0.00000  Uiso   1.00
N216   N     0.37612   0.24056   0.21046   0.00000  Uiso   1.00
N217   N     0.50000   0.04760   0.25000   0.00000  Uiso   1.00
N218   N     0.42923   0.14295   0.37974   0.00000  Uiso   1.00
N219   N     0.57047   0.15468   0.11936   0.00000  Uiso   1.00
N220   N     0.38357   0.17565   0.44735   0.00000  Uiso   1.00
N221   N     0.60612   0.21381   0.05344   0.00000  Uiso   1.00
N222   N     0.38221   0.18600   0.03889   0.00000  Uiso   1.00
N223   N     0.60553   0.22512   0.46408   0.00000  Uiso   1.00
N224   N     0.37799   0.09243   0.28579   0.00000  Uiso   1.00
O225   O     0.43892   0.20487   0.24999   0.00000  Uiso   1.00
O226   O     0.42221   0.18049   0.11470   0.00000  Uiso   1.00
O227   O     0.50886   0.04588   0.32975   0.00000  Uiso   1.00
O228   O     0.48945   0.28757   0.17045   0.00000  Uiso   1.00
O229   O     0.46866   0.04442   0.17681   0.00000  Uiso   1.00
O230   O     0.49860   0.28841   0.33001   0.00000  Uiso   1.00
O231   O     0.56108   0.12846   0.25000   0.00000  Uiso   1.00
O232   O     0.56108   0.20487   0.25000   0.00000  Uiso   1.00
O233   O     0.43892   0.12846   0.24999   0.00000  Uiso   1.00
O234   O     0.49999   0.20489   0.18392   0.00000  Uiso   1.00
O235   O     0.50001   0.12844   0.31607   0.00000  Uiso   1.00
O236   O     0.50001   0.20489   0.31607   0.00000  Uiso   1.00
O237   O     0.49999   0.12844   0.18392   0.00000  Uiso   1.00
O238   O     0.56991   0.20001   0.38463   0.00000  Uiso   1.00
Zn239  Zn    0.50000   0.21771   0.25000   0.00000  Uiso   1.00
Zn240  Zn    0.50000   0.11563   0.25000   0.00000  Uiso   1.00
C241   C     0.75351   0.16671   0.24990   0.00000  Uiso   1.00
C242   C     0.70940   0.16655   0.24839   0.00000  Uiso   1.00
C243   C     0.83977   0.02383   0.28905   0.00000  Uiso   1.00
C244   C     0.82885   0.30963   0.21080   0.00000  Uiso   1.00
C245   C     0.82319   0.02373   0.21203   0.00000  Uiso   1.00
C246   C     0.83558   0.30965   0.28930   0.00000  Uiso   1.00
C247   C     0.83109   0.16678   0.16358   0.00000  Uiso   1.00
C248   C     0.83479   0.16686   0.33646   0.00000  Uiso   1.00
C249   C     0.86982   0.18474   0.40815   0.00000  Uiso   1.00
C250   C     0.79195   0.17483   0.09197   0.00000  Uiso   1.00
C251   C     0.83473   0.16832   0.38450   0.00000  Uiso   1.00
C252   C     0.91324   0.16657   0.24846   0.00000  Uiso   1.00
C253   C     0.82976   0.16791   0.11555   0.00000  Uiso   1.00
C254   C     0.79728   0.16073   0.40530   0.00000  Uiso   1.00
C255   C     0.86747   0.16955   0.09452   0.00000  Uiso   1.00
C256   C     0.79425   0.17081   0.45104   0.00000  Uiso   1.00
C257   C     0.86797   0.18188   0.04906   0.00000  Uiso   1.00
C258   C     0.83114   0.17994   0.47649   0.00000  Uiso   1.00
C259   C     0.83026   0.17996   0.02351   0.00000  Uiso   1.00
C260   C     0.86879   0.18923   0.45515   0.00000  Uiso   1.00
C261   C     0.79186   0.17781   0.04494   0.00000  Uiso   1.00
C262   C     0.75569   0.17400   0.47215   0.00000  Uiso   1.00
C263   C     0.75470   0.17940   0.01868   0.00000  Uiso   1.00
C264   C     0.90376   0.19789   0.02835   0.00000  Uiso   1.00
C265   C     0.92941   0.16385   0.37417   0.00000  Uiso   1.00
C266   C     0.97024   0.18265   0.35847   0.00000  Uiso   1.00
C267   C     0.74117   0.13852   0.12956   0.00000  Uiso   1.00
C268   C     0.69411   0.13888   0.13197   0.00000  Uiso   1.00
C269   C     0.88250   0.04141   0.34887   0.00000  Uiso   1.00
C270   C     0.88167   0.05047   0.39906   0.00000  Uiso   1.00
C271   C     0.85655   0.29597   0.14257   0.00000  Uiso   1.00
C272   C     0.84169   0.29477   0.09361   0.00000  Uiso   1.00
C273   C     0.75934   0.03293   0.17851   0.00000  Uiso   1.00
C274   C     0.90342   0.20371   0.48199   0.00000  Uiso   1.00
C275   C     0.74384   0.01388   0.13355   0.00000  Uiso   1.00
C276   C     0.78991   0.28991   0.34192   0.00000  Uiso   1.00
C277   C     0.78725   0.28519   0.39255   0.00000  Uiso   1.00
C278   C     0.68878   0.12888   0.26478   0.00000  Uiso   1.00
C279   C     0.97858   0.20358   0.22910   0.00000  Uiso   1.00
C280   C     0.97941   0.12783   0.26209   0.00000  Uiso   1.00
C281   C     0.68790   0.20339   0.22964   0.00000  Uiso   1.00
C282   C     0.95753   0.16595   0.24601   0.00000  Uiso   1.00
H283   H     0.91536   0.14350   0.34652   0.00000  Uiso   1.00
H284   H     0.68277   0.17236   0.14196   0.00000  Uiso   1.00
H285   H     0.77074   0.11181   0.36657   0.00000  Uiso   1.00
H286   H     0.75485   0.16482   0.35335   0.00000  Uiso   1.00
H287   H     0.92055   0.13239   0.09989   0.00000  Uiso   1.00
H288   H     0.92173   0.18191   0.12988   0.00000  Uiso   1.00
H289   H     0.71858   0.19930   0.42162   0.00000  Uiso   1.00
H290   H     0.70946   0.14385   0.43482   0.00000  Uiso   1.00
H291   H     0.93041   0.23546   0.07891   0.00000  Uiso   1.00
H292   H     0.95694   0.18689   0.06588   0.00000  Uiso   1.00
H293   H     0.70245   0.21567   0.02625   0.00000  Uiso   1.00
H294   H     0.93591   0.14172   0.40371   0.00000  Uiso   1.00
H295   H     0.69605   0.15945   0.02944   0.00000  Uiso   1.00
H296   H     0.93002   0.25016   0.44121   0.00000  Uiso   1.00
H297   H     0.95800   0.20090   0.45062   0.00000  Uiso   1.00
H298   H     0.70445   0.06258   0.26873   0.00000  Uiso   1.00
H299   H     0.70304   0.08956   0.31924   0.00000  Uiso   1.00
H300   H     0.93545   0.23216   0.18646   0.00000  Uiso   1.00
H301   H     0.94454   0.26070   0.23596   0.00000  Uiso   1.00
H302   H     0.96645   0.06121   0.25801   0.00000  Uiso   1.00
H303   H     0.96733   0.08255   0.31103   0.00000  Uiso   1.00
H304   H     0.70182   0.26978   0.22776   0.00000  Uiso   1.00
H305   H     0.98472   0.20517   0.38393   0.00000  Uiso   1.00
H306   H     0.69975   0.24421   0.17685   0.00000  Uiso   1.00
H307   H     0.90261   0.06662   0.33363   0.00000  Uiso   1.00
H308   H     0.89627   0.00750   0.34416   0.00000  Uiso   1.00
H309   H     0.86354   0.02413   0.41574   0.00000  Uiso   1.00
H310   H     0.91369   0.05029   0.41367   0.00000  Uiso   1.00
H311   H     0.86750   0.08362   0.40546   0.00000  Uiso   1.00
H312   H     0.88007   0.26925   0.14800   0.00000  Uiso   1.00
H313   H     0.87199   0.32900   0.14858   0.00000  Uiso   1.00
H314   H     0.82159   0.32415   0.08602   0.00000  Uiso   1.00
H315   H     0.86860   0.29586   0.07149   0.00000  Uiso   1.00
H316   H     0.99209   0.15490   0.35204   0.00000  Uiso   1.00
H317   H     0.82393   0.26369   0.08651   0.00000  Uiso   1.00
H318   H     0.74143   0.06340   0.18613   0.00000  Uiso   1.00
H319   H     0.75135   0.00836   0.20521   0.00000  Uiso   1.00
H320   H     0.75443   0.31207   0.12983   0.00000  Uiso   1.00
H321   H     0.70950   0.01414   0.13186   0.00000  Uiso   1.00
H322   H     0.75542   0.03392   0.10531   0.00000  Uiso   1.00
H323   H     0.77274   0.26176   0.32546   0.00000  Uiso   1.00
H324   H     0.77401   0.32192   0.33226   0.00000  Uiso   1.00
H325   H     0.79935   0.31589   0.40940   0.00000  Uiso   1.00
H326   H     0.75455   0.28039   0.40162   0.00000  Uiso   1.00
H327   H     0.96485   0.20277   0.32762   0.00000  Uiso   1.00
H328   H     0.80568   0.25608   0.40465   0.00000  Uiso   1.00
H329   H     0.75422   0.13262   0.16368   0.00000  Uiso   1.00
H330   H     0.74991   0.11023   0.10737   0.00000  Uiso   1.00
H331   H     0.67959   0.13001   0.09896   0.00000  Uiso   1.00
H332   H     0.68408   0.11372   0.15679   0.00000  Uiso   1.00
N333   N     0.83333   0.28573   0.25000   0.00000  Uiso   1.00
N334   N     0.95782   0.24223   0.21035   0.00000  Uiso   1.00
N335   N     0.95833   0.08871   0.27762   0.00000  Uiso   1.00
N336   N     0.70946   0.24056   0.21046   0.00000  Uiso   1.00
N337   N     0.83333   0.04760   0.25000   0.00000  Uiso   1.00
N338   N     0.76257   0.14295   0.37974   0.00000  Uiso   1.00
N339   N     0.90380   0.15468   0.11936   0.00000  Uiso   1.00
N340   N     0.71690   0.17565   0.44735   0.00000  Uiso   1.00
N341   N     0.93946   0.21381   0.05344   0.00000  Uiso   1.00
N342   N     0.71554   0.18600   0.03889   0.00000  Uiso   1.00
N343   N     0.93887   0.22512   0.46408   0.00000  Uiso   1.00
N344   N     0.71132   0.09243   0.28579   0.00000  Uiso   1.00
O345   O     0.77226   0.20487   0.24999   0.00000  Uiso   1.00
O346   O     0.75555   0.18049   0.11470   0.00000  Uiso   1.00
O347   O     0.84219   0.04588   0.32975   0.00000  Uiso   1.00
O348   O     0.82279   0.28757   0.17045   0.00000  Uiso   1.00
O349   O     0.80199   0.04442   0.17681   0.00000  Uiso   1.00
O350   O     0.83193   0.28841   0.33001   0.00000  Uiso   1.00
O351   O     0.89441   0.12846   0.25000   0.00000  Uiso   1.00
O352   O     0.89441   0.20487   0.25000   0.00000  Uiso   1.00
O353   O     0.77226   0.12846   0.24999   0.00000  Uiso   1.00
O354   O     0.83333   0.20489   0.18392   0.00000  Uiso   1.00
O355   O     0.83334   0.12844   0.31607   0.00000  Uiso   1.00
O356   O     0.83334   0.20489   0.31607   0.00000  Uiso   1.00
O357   O     0.83333   0.12844   0.18392   0.00000  Uiso   1.00
O358   O     0.90324   0.20001   0.38463   0.00000  Uiso   1.00
Zn359  Zn    0.83333   0.21771   0.25000   0.00000  Uiso   1.00
Zn360  Zn    0.83333   0.11563   0.25000   0.00000  Uiso   1.00
C361   C     0.08685   0.50004   0.24990   0.00000  Uiso   1.00
C362   C     0.04274   0.49988   0.24839   0.00000  Uiso   1.00
C363   C     0.17310   0.35716   0.28905   0.00000  Uiso   1.00
C364   C     0.16218   0.64297   0.21080   0.00000  Uiso   1.00
C365   C     0.15652   0.35706   0.21203   0.00000  Uiso   1.00
C366   C     0.16892   0.64298   0.28930   0.00000  Uiso   1.00
C367   C     0.16442   0.50012   0.16358   0.00000  Uiso   1.00
C368   C     0.16813   0.50019   0.33646   0.00000  Uiso   1.00
C369   C     0.20316   0.51807   0.40815   0.00000  Uiso   1.00
C370   C     0.12528   0.50816   0.09197   0.00000  Uiso   1.00
C371   C     0.16806   0.50165   0.38450   0.00000  Uiso   1.00
C372   C     0.24657   0.49991   0.24846   0.00000  Uiso   1.00
C373   C     0.16310   0.50125   0.11555   0.00000  Uiso   1.00
C374   C     0.13061   0.49406   0.40530   0.00000  Uiso   1.00
C375   C     0.20081   0.50288   0.09452   0.00000  Uiso   1.00
C376   C     0.12758   0.50414   0.45104   0.00000  Uiso   1.00
C377   C     0.20130   0.51522   0.04906   0.00000  Uiso   1.00
C378   C     0.16448   0.51328   0.47649   0.00000  Uiso   1.00
C379   C     0.16359   0.51330   0.02351   0.00000  Uiso   1.00
C380   C     0.20212   0.52256   0.45515   0.00000  Uiso   1.00
C381   C     0.12519   0.51114   0.04494   0.00000  Uiso   1.00
C382   C     0.08903   0.50734   0.47215   0.00000  Uiso   1.00
C383   C     0.08804   0.51273   0.01868   0.00000  Uiso   1.00
C384   C     0.23709   0.53123   0.02835   0.00000  Uiso   1.00
C385   C     0.26274   0.49718   0.37417   0.00000  Uiso   1.00
C386   C     0.30358   0.51598   0.35847   0.00000  Uiso   1.00
C387   C     0.07450   0.47186   0.12956   0.00000  Uiso   1.00
C388   C     0.02745   0.47221   0.13197   0.00000  Uiso   1.00
C389   C     0.21584   0.37474   0.34887   0.00000  Uiso   1.00
C390   C     0.21501   0.38381   0.39906   0.00000  Uiso   1.00
C391   C     0.18988   0.62930   0.14257   0.00000  Uiso   1.00
C392   C     0.17502   0.62810   0.09361   0.00000  Uiso   1.00
C393   C     0.09267   0.36626   0.17851   0.00000  Uiso   1.00
C394   C     0.23675   0.53704   0.48199   0.00000  Uiso   1.00
C395   C     0.07717   0.34722   0.13355   0.00000  Uiso   1.00
C396   C     0.12324   0.62324   0.34192   0.00000  Uiso   1.00
C397   C     0.12058   0.61852   0.39255   0.00000  Uiso   1.00
C398   C     0.02211   0.46222   0.26478   0.00000  Uiso   1.00
C399   C     0.31191   0.53692   0.22910   0.00000  Uiso   1.00
C400   C     0.31274   0.46116   0.26209   0.00000  Uiso   1.00
C401   C     0.02123   0.53672   0.22964   0.00000  Uiso   1.00
C402   C     0.29086   0.49928   0.24601   0.00000  Uiso   1.00
H403   H     0.24869   0.47683   0.34652   0.00000  Uiso   1.00
H404   H     0.01610   0.50570   0.14196   0.00000  Uiso   1.00
H405   H     0.10408   0.44514   0.36657   0.00000  Uiso   1.00
H406   H     0.08818   0.49815   0.35335   0.00000  Uiso   1.00
H407   H     0.25389   0.46572   0.09989   0.00000  Uiso   1.00
H408   H     0.25506   0.51524   0.12988   0.00000  Uiso   1.00
H409   H     0.05191   0.53263   0.42162   0.00000  Uiso   1.00
H410   H     0.04279   0.47718   0.43482   0.00000  Uiso   1.00
H411   H     0.26374   0.56879   0.07891   0.00000  Uiso   1.00
H412   H     0.29028   0.52023   0.06588   0.00000  Uiso   1.00
H413   H     0.03578   0.54900   0.02625   0.00000  Uiso   1.00
H414   H     0.26925   0.47505   0.40371   0.00000  Uiso   1.00
H415   H     0.02938   0.49278   0.02944   0.00000  Uiso   1.00
H416   H     0.26336   0.58349   0.44121   0.00000  Uiso   1.00
H417   H     0.29133   0.53423   0.45062   0.00000  Uiso   1.00
H418   H     0.03779   0.39592   0.26873   0.00000  Uiso   1.00
H419   H     0.03638   0.42289   0.31924   0.00000  Uiso   1.00
H420   H     0.26878   0.56550   0.18646   0.00000  Uiso   1.00
H421   H     0.27787   0.59404   0.23596   0.00000  Uiso   1.00
H422   H     0.29979   0.39454   0.25801   0.00000  Uiso   1.00
H423   H     0.30067   0.41588   0.31103   0.00000  Uiso   1.00
H424   H     0.03515   0.60311   0.22776   0.00000  Uiso   1.00
H425   H     0.31806   0.53850   0.38393   0.00000  Uiso   1.00
H426   H     0.03308   0.57754   0.17685   0.00000  Uiso   1.00
H427   H     0.23595   0.39995   0.33363   0.00000  Uiso   1.00
H428   H     0.22961   0.34083   0.34416   0.00000  Uiso   1.00
H429   H     0.19687   0.35746   0.41574   0.00000  Uiso   1.00
H430   H     0.24703   0.38362   0.41367   0.00000  Uiso   1.00
H431   H     0.20083   0.41695   0.40546   0.00000  Uiso   1.00
H432   H     0.21340   0.60258   0.14800   0.00000  Uiso   1.00
H433   H     0.20532   0.66233   0.14858   0.00000  Uiso   1.00
H434   H     0.15492   0.65748   0.08602   0.00000  Uiso   1.00
H435   H     0.20193   0.62919   0.07149   0.00000  Uiso   1.00
H436   H     0.32542   0.48824   0.35204   0.00000  Uiso   1.00
H437   H     0.15726   0.59702   0.08651   0.00000  Uiso   1.00
H438   H     0.07476   0.39673   0.18613   0.00000  Uiso   1.00
H439   H     0.08468   0.34169   0.20521   0.00000  Uiso   1.00
H440   H     0.08776   0.64540   0.12983   0.00000  Uiso   1.00
H441   H     0.04284   0.34747   0.13186   0.00000  Uiso   1.00
H442   H     0.08876   0.36725   0.10531   0.00000  Uiso   1.00
H443   H     0.10608   0.59510   0.32546   0.00000  Uiso   1.00
H444   H     0.10734   0.65525   0.33226   0.00000  Uiso   1.00
H445   H     0.13268   0.64923   0.40940   0.00000  Uiso   1.00
H446   H     0.08788   0.61372   0.40162   0.00000  Uiso   1.00
H447   H     0.29818   0.53611   0.32762   0.00000  Uiso   1.00
H448   H     0.13902   0.58941   0.40465   0.00000  Uiso   1.00
H449   H     0.08756   0.46596   0.16368   0.00000  Uiso   1.00
H450   H     0.08324   0.44356   0.10737   0.00000  Uiso   1.00
H451   H     0.01293   0.46334   0.09896   0.00000  Uiso   1.00
H452   H     0.01741   0.44705   0.15679   0.00000  Uiso   1.00
N453   N     0.16667   0.61907   0.25000   0.00000  Uiso   1.00
N454   N     0.29116   0.57556   0.21035   0.00000  Uiso   1.00
N455   N     0.29167   0.42204   0.27762   0.00000  Uiso   1.00
N456   N     0.04279   0.57389   0.21046   0.00000  Uiso   1.00
N457   N     0.16667   0.38093   0.25000   0.00000  Uiso   1.00
N458   N     0.09590   0.47628   0.37974   0.00000  Uiso   1.00
N459   N     0.23713   0.48802   0.11936   0.00000  Uiso   1.00
N460   N     0.05023   0.50898   0.44735   0.00000  Uiso   1.00
N461   N     0.27279   0.54715   0.05344   0.00000  Uiso   1.00
N462   N     0.04887   0.51933   0.03889   0.00000  Uiso   1.00
N463   N     0.27220   0.55845   0.46408   0.00000  Uiso   1.00
N464   N     0.04466   0.42576   0.28579   0.00000  Uiso   1.00
O465   O     0.10559   0.53821   0.24999   0.00000  Uiso   1.00
O466   O     0.08888   0.51382   0.11470   0.00000  Uiso   1.00
O467   O     0.17552   0.37922   0.32975   0.00000  Uiso   1.00
O468   O     0.15612   0.62090   0.17045   0.00000  Uiso   1.00
O469   O     0.13533   0.37776   0.17681   0.00000  Uiso   1.00
O470   O     0.16527   0.62174   0.33001   0.00000  Uiso   1.00
O471   O     0.22774   0.46179   0.25000   0.00000  Uiso   1.00
O472   O     0.22774   0.53821   0.25000   0.00000  Uiso   1.00
O473   O     0.10559   0.46179   0.24999   0.00000  Uiso   1.00
O474   O     0.16666   0.53823   0.18392   0.00000  Uiso   1.00
O475   O     0.16667   0.46177   0.31607   0.00000  Uiso   1.00
O476   O     0.16667   0.53823   0.31607   0.00000  Uiso   1.00
O477   O     0.16666   0.46177   0.18392   0.00000  Uiso   1.00
O478   O     0.23657   0.53334   0.38463   0.00000  Uiso   1.00
Zn479  Zn    0.16667   0.55104   0.25000   0.00000  Uiso   1.00
Zn480  Zn    0.16667   0.44896   0.25000   0.00000  Uiso   1.00
C481   C     0.42018   0.50004   0.24990   0.00000  Uiso   1.00
C482   C     0.37607   0.49988   0.24839   0.00000  Uiso   1.00
C483   C     0.50644   0.35716   0.28905   0.00000  Uiso   1.00
C484   C     0.49552   0.64297   0.21080   0.00000  Uiso   1.00
C485   C     0.48986   0.35706   0.21203   0.00000  Uiso   1.00
C486   C     0.50225   0.64298   0.28930   0.00000  Uiso   1.00
C487   C     0.49776   0.50012   0.16358   0.00000  Uiso   1.00
C488   C     0.50146   0.50019   0.33646   0.00000  Uiso   1.00
C489   C     0.53649   0.51807   0.40815   0.00000  Uiso   1.00
C490   C     0.45861   0.50816   0.09197   0.00000  Uiso   1.00
C491   C     0.50139   0.50165   0.38450   0.00000  Uiso   1.00
C492   C     0.57991   0.49991   0.24846   0.00000  Uiso   1.00
C493   C     0.49643   0.50125   0.11555   0.00000  Uiso   1.00
C494   C     0.46394   0.49406   0.40530   0.00000  Uiso   1.00
C495   C     0.53414   0.50288   0.09452   0.00000  Uiso   1.00
C496   C     0.46091   0.50414   0.45104   0.00000  Uiso   1.00
C497   C     0.53463   0.51522   0.04906   0.00000  Uiso   1.00
C498   C     0.49781   0.51328   0.47649   0.00000  Uiso   1.00
C499   C     0.49693   0.51330   0.02351   0.00000  Uiso   1.00
C500   C     0.53546   0.52256   0.45515   0.00000  Uiso   1.00
C501   C     0.45852   0.51114   0.04494   0.00000  Uiso   1.00
C502   C     0.42236   0.50734   0.47215   0.00000  Uiso   1.00
C503   C     0.42137   0.51273   0.01868   0.00000  Uiso   1.00
C504   C     0.57042   0.53123   0.02835   0.00000  Uiso   1.00
C505   C     0.59607   0.49718   0.37417   0.00000  Uiso   1.00
C506   C     0.63691   0.51598   0.35847   0.00000  Uiso   1.00
C507   C     0.40783   0.47186   0.12956   0.00000  Uiso   1.00
C508   C     0.36078   0.47221   0.13197   0.00000  Uiso   1.00
C509   C     0.54917   0.37474   0.34887   0.00000  Uiso   1.00
C510   C     0.54834   0.38381   0.39906   0.00000  Uiso   1.00
C511   C     0.52322   0.62930   0.14257   0.00000  Uiso   1.00
C512   C     0.50836   0.62810   0.09361   0.00000  Uiso   1.00
C513   C     0.42601   0.36626   0.17851   0.00000  Uiso   1.00
C514   C     0.57009   0.53704   0.48199   0.00000  Uiso   1.00
C515   C     0.41050   0.34722   0.13355   0.00000  Uiso   1.00
C516   C     0.45658   0.62324   0.34192   0.00000  Uiso   1.00
C517   C     0.45391   0.61852   0.39255   0.00000  Uiso   1.00
C518   C     0.35544   0.46222   0.26478   0.00000  Uiso   1.00
C519   C     0.64525   0.53692   0.22910   0.00000  Uiso   1.00
C520   C     0.64607   0.46116   0.26209   0.00000  Uiso   1.00
C521   C     0.35456   0.53672   0.22964   0.00000  Uiso   1.00
C522   C     0.62420   0.49928   0.24601   0.00000  Uiso   1.00
H523   H     0.58202   0.47683   0.34652   0.00000  Uiso   1.00
H524   H     0.34943   0.50570   0.14196   0.00000  Uiso   1.00
H525   H     0.43741   0.44514   0.36657   0.00000  Uiso   1.00
H526   H     0.42151   0.49815   0.35335   0.00000  Uiso   1.00
H527   H     0.58722   0.46572   0.09989   0.00000  Uiso   1.00
H528   H     0.58840   0.51524   0.12988   0.00000  Uiso   1.00
H529   H     0.38524   0.53263   0.42162   0.00000  Uiso   1.00
H530   H     0.37612   0.47718   0.43482   0.00000  Uiso   1.00
H531   H     0.59707   0.56879   0.07891   0.00000  Uiso   1.00
H532   H     0.62361   0.52023   0.06588   0.00000  Uiso   1.00
H533   H     0.36912   0.54900   0.02625   0.00000  Uiso   1.00
H534   H     0.60258   0.47505   0.40371   0.00000  Uiso   1.00
H535   H     0.36271   0.49278   0.02944   0.00000  Uiso   1.00
H536   H     0.59669   0.58349   0.44121   0.00000  Uiso   1.00
H537   H     0.62466   0.53423   0.45062   0.00000  Uiso   1.00
H538   H     0.37112   0.39592   0.26873   0.00000  Uiso   1.00
H539   H     0.36971   0.42289   0.31924   0.00000  Uiso   1.00
H540   H     0.60211   0.56550   0.18646   0.00000  Uiso   1.00
H541   H     0.61120   0.59404   0.23596   0.00000  Uiso   1.00
H542   H     0.63312   0.39454   0.25801   0.00000  Uiso   1.00
H543   H     0.63400   0.41588   0.31103   0.00000  Uiso   1.00
H544   H     0.36849   0.60311   0.22776   0.00000  Uiso   1.00
H545   H     0.65139   0.53850   0.38393   0.00000  Uiso   1.00
H546   H     0.36642   0.57754   0.17685   0.00000  Uiso   1.00
H547   H     0.56928   0.39995   0.33363   0.00000  Uiso   1.00
H548   H     0.56294   0.34083   0.34416   0.00000  Uiso   1.00
H549   H     0.53020   0.35746   0.41574   0.00000  Uiso   1.00
H550   H     0.58036   0.38362   0.41367   0.00000  Uiso   1.00
H551   H     0.53417   0.41695   0.40546   0.00000  Uiso   1.00
H552   H     0.54673   0.60258   0.14800   0.00000  Uiso   1.00
H553   H     0.53866   0.66233   0.14858   0.00000  Uiso   1.00
H554   H     0.48826   0.65748   0.08602   0.00000  Uiso   1.00
H555   H     0.53527   0.62919   0.07149   0.00000  Uiso   1.00
H556   H     0.65876   0.48824   0.35204   0.00000  Uiso   1.00
H557   H     0.49059   0.59702   0.08651   0.00000  Uiso   1.00
H558   H     0.40810   0.39673   0.18613   0.00000  Uiso   1.00
H559   H     0.41802   0.34169   0.20521   0.00000  Uiso   1.00
H560   H     0.42109   0.64540   0.12983   0.00000  Uiso   1.00
H561   H     0.37617   0.34747   0.13186   0.00000  Uiso   1.00
H562   H     0.42209   0.36725   0.10531   0.00000  Uiso   1.00
H563   H     0.43941   0.59510   0.32546   0.00000  Uiso   1.00
H564   H     0.44067   0.65525   0.33226   0.00000  Uiso   1.00
H565   H     0.46602   0.64923   0.40940   0.00000  Uiso   1.00
H566   H     0.42121   0.61372   0.40162   0.00000  Uiso   1.00
H567   H     0.63152   0.53611   0.32762   0.00000  Uiso   1.00
H568   H     0.47235   0.58941   0.40465   0.00000  Uiso   1.00
H569   H     0.42089   0.46596   0.16368   0.00000  Uiso   1.00
H570   H     0.41657   0.44356   0.10737   0.00000  Uiso   1.00
H571   H     0.34626   0.46334   0.09896   0.00000  Uiso   1.00
H572   H     0.35074   0.44705   0.15679   0.00000  Uiso   1.00
N573   N     0.50000   0.61907   0.25000   0.00000  Uiso   1.00
N574   N     0.62449   0.57556   0.21035   0.00000  Uiso   1.00
N575   N     0.62500   0.42204   0.27762   0.00000  Uiso   1.00
N576   N     0.37612   0.57389   0.21046   0.00000  Uiso   1.00
N577   N     0.50000   0.38093   0.25000   0.00000  Uiso   1.00
N578   N     0.42923   0.47628   0.37974   0.00000  Uiso   1.00
N579   N     0.57047   0.48802   0.11936   0.00000  Uiso   1.00
N580   N     0.38357   0.50898   0.44735   0.00000  Uiso   1.00
N581   N     0.60612   0.54715   0.05344   0.00000  Uiso   1.00
N582   N     0.38221   0.51933   0.03889   0.00000  Uiso   1.00
N583   N     0.60553   0.55845   0.46408   0.00000  Uiso   1.00
N584   N     0.37799   0.42576   0.28579   0.00000  Uiso   1.00
O585   O     0.43892   0.53821   0.24999   0.00000  Uiso   1.00
O586   O     0.42221   0.51382   0.11470   0.00000  Uiso   1.00
O587   O     0.50886   0.37922   0.32975   0.00000  Uiso   1.00
O588   O     0.48945   0.62090   0.17045   0.00000  Uiso   1.00
O589   O     0.46866   0.37776   0.17681   0.00000  Uiso   1.00
O590   O     0.49860   0.62174   0.33001   0.00000  Uiso   1.00
O591   O     0.56108   0.46179   0.25000   0.00000  Uiso   1.00
O592   O     0.56108   0.53821   0.25000   0.00000  Uiso   1.00
O593   O     0.43892   0.46179   0.24999   0.00000  Uiso   1.00
O594   O     0.49999   0.53823   0.18392   0.00000  Uiso   1.00
O595   O     0.50001   0.46177   0.31607   0.00000  Uiso   1.00
O596   O     0.50001   0.53823   0.31607   0.00000  Uiso   1.00
O597   O     0.49999   0.46177   0.18392   0.00000  Uiso   1.00
O598   O     0.56991   0.53334   0.38463   0.00000  Uiso   1.00
Zn599  Zn    0.50000   0.55104   0.25000   0.00000  Uiso   1.00
Zn600  Zn    0.50000   0.44896   0.25000   0.00000  Uiso   1.00
C601   C     0.75351   0.50004   0.24990   0.00000  Uiso   1.00
C602   C     0.70940   0.49988   0.24839   0.00000  Uiso   1.00
C603   C     0.83977   0.35716   0.28905   0.00000  Uiso   1.00
C604   C     0.82885   0.64297   0.21080   0.00000  Uiso   1.00
C605   C     0.82319   0.35706   0.21203   0.00000  Uiso   1.00
C606   C     0.83558   0.64298   0.28930   0.00000  Uiso   1.00
C607   C     0.83109   0.50012   0.16358   0.00000  Uiso   1.00
C608   C     0.83479   0.50019   0.33646   0.00000  Uiso   1.00
C609   C     0.86982   0.51807   0.40815   0.00000  Uiso   1.00
C610   C     0.79195   0.50816   0.09197   0.00000  Uiso   1.00
C611   C     0.83473   0.50165   0.38450   0.00000  Uiso   1.00
C612   C     0.91324   0.49991   0.24846   0.00000  Uiso   1.00
C613   C     0.82976   0.50125   0.11555   0.00000  Uiso   1.00
C614   C     0.79728   0.49406   0.40530   0.00000  Uiso   1.00
C615   C     0.86747   0.50288   0.09452   0.00000  Uiso   1.00
C616   C     0.79425   0.50414   0.45104   0.00000  Uiso   1.00
C617   C     0.86797   0.51522   0.04906   0.00000  Uiso   1.00
C618   C     0.83114   0.51328   0.47649   0.00000  Uiso   1.00
C619   C     0.83026   0.51330   0.02351   0.00000  Uiso   1.00
C620   C     0.86879   0.52256   0.45515   0.00000  Uiso   1.00
C621   C     0.79186   0.51114   0.04494   0.00000  Uiso   1.00
C622   C     0.75569   0.50734   0.47215   0.00000  Uiso   1.00
C623   C     0.75470   0.51273   0.01868   0.00000  Uiso   1.00
C624   C     0.90376   0.53123   0.02835   0.00000  Uiso   1.00
C625   C     0.92941   0.49718   0.37417   0.00000  Uiso   1.00
C626   C     0.97024   0.51598   0.35847   0.00000  Uiso   1.00
C627   C     0.74117   0.47186   0.12956   0.00000  Uiso   1.00
C628   C     0.69411   0.47221   0.13197   0.00000  Uiso   1.00
C629   C     0.88250   0.37474   0.34887   0.00000  Uiso   1.00
C630   C     0.88167   0.38381   0.39906   0.00000  Uiso   1.00
C631   C     0.85655   0.62930   0.14257   0.00000  Uiso   1.00
C632   C     0.84169   0.62810   0.09361   0.00000  Uiso   1.00
C633   C     0.75934   0.36626   0.17851   0.00000  Uiso   1.00
C634   C     0.90342   0.53704   0.48199   0.00000  Uiso   1.00
C635   C     0.74384   0.34722   0.13355   0.00000  Uiso   1.00
C636   C     0.78991   0.62324   0.34192   0.00000  Uiso   1.00
C637   C     0.78725   0.61852   0.39255   0.00000  Uiso   1.00
C638   C     0.68878   0.46222   0.26478   0.00000  Uiso   1.00
C639   C     0.97858   0.53692   0.22910   0.00000  Uiso   1.00
C640   C     0.97941   0.46116   0.26209   0.00000  Uiso   1.00
C641   C     0.68790   0.53672   0.22964   0.00000  Uiso   1.00
C642   C     0.95753   0.49928   0.24601   0.00000  Uiso   1.00
H643   H     0.91536   0.47683   0.34652   0.00000  Uiso   1.00
H644   H     0.68277   0.50570   0.14196   0.00000  Uiso   1.00
H645   H     0.77074   0.44514   0.36657   0.00000  Uiso   1.00
H646   H     0.75485   0.49815   0.35335   0.00000  Uiso   1.00
H647   H     0.92055   0.46572   0.09989   0.00000  Uiso   1.00
H648   H     0.92173   0.51524   0.12988   0.00000  Uiso   1.00
H649   H     0.71858   0.53263   0.42162   0.00000  Uiso   1.00
H650   H     0.70946   0.47718   0.43482   0.00000  Uiso   1.00
H651   H     0.93041   0.56879   0.07891   0.00000  Uiso   1.00
H652   H     0.95694   0.52023   0.06588   0.00000  Uiso   1.00
H653   H     0.70245   0.54900   0.02625   0.00000  Uiso   1.00
H654   H     0.93591   0.47505   0.40371   0.00000  Uiso   1.00
H655   H     0.69605   0.49278   0.02944   0.00000  Uiso   1.00
H656   H     0.93002   0.58349   0.44121   0.00000  Uiso   1.00
H657   H     0.95800   0.53423   0.45062   0.00000  Uiso   1.00
H658   H     0.70445   0.39592   0.26873   0.00000  Uiso   1.00
H659   H     0.70304   0.42289   0.31924   0.00000  Uiso   1.00
H660   H     0.93545   0.56550   0.18646   0.00000  Uiso   1.00
H661   H     0.94454   0.59404   0.23596   0.00000  Uiso   1.00
H662   H     0.96645   0.39454   0.25801   0.00000  Uiso   1.00
H663   H     0.96733   0.41588   0.31103   0.00000  Uiso   1.00
H664   H     0.70182   0.60311   0.22776   0.00000  Uiso   1.00
H665   H     0.98472   0.53850   0.38393   0.00000  Uiso   1.00
H666   H     0.69975   0.57754   0.17685   0.00000  Uiso   1.00
H667   H     0.90261   0.39995   0.33363   0.00000  Uiso   1.00
H668   H     0.89627   0.34083   0.34416   0.00000  Uiso   1.00
H669   H     0.86354   0.35746   0.41574   0.00000  Uiso   1.00
H670   H     0.91369   0.38362   0.41367   0.00000  Uiso   1.00
H671   H     0.86750   0.41695   0.40546   0.00000  Uiso   1.00
H672   H     0.88007   0.60258   0.14800   0.00000  Uiso   1.00
H673   H     0.87199   0.66233   0.14858   0.00000  Uiso   1.00
H674   H     0.82159   0.65748   0.08602   0.00000  Uiso   1.00
H675   H     0.86860   0.62919   0.07149   0.00000  Uiso   1.00
H676   H     0.99209   0.48824   0.35204   0.00000  Uiso   1.00
H677   H     0.82393   0.59702   0.08651   0.00000  Uiso   1.00
H678   H     0.74143   0.39673   0.18613   0.00000  Uiso   1.00
H679   H     0.75135   0.34169   0.20521   0.00000  Uiso   1.00
H680   H     0.75443   0.64540   0.12983   0.00000  Uiso   1.00
H681   H     0.70950   0.34747   0.13186   0.00000  Uiso   1.00
H682   H     0.75542   0.36725   0.10531   0.00000  Uiso   1.00
H683   H     0.77274   0.59510   0.32546   0.00000  Uiso   1.00
H684   H     0.77401   0.65525   0.33226   0.00000  Uiso   1.00
H685   H     0.79935   0.64923   0.40940   0.00000  Uiso   1.00
H686   H     0.75455   0.61372   0.40162   0.00000  Uiso   1.00
H687   H     0.96485   0.53611   0.32762   0.00000  Uiso   1.00
H688   H     0.80568   0.58941   0.40465   0.00000  Uiso   1.00
H689   H     0.75422   0.46596   0.16368   0.00000  Uiso   1.00
H690   H     0.74991   0.44356   0.10737   0.00000  Uiso   1.00
H691   H     0.67959   0.46334   0.09896   0.00000  Uiso   1.00
H692   H     0.68408   0.44705   0.15679   0.00000  Uiso   1.00
N693   N     0.83333   0.61907   0.25000   0.00000  Uiso   1.00
N694   N     0.95782   0.57556   0.21035   0.00000  Uiso   1.00
N695   N     0.95833   0.42204   0.27762   0.00000  Uiso   1.00
N696   N     0.70946   0.57389   0.21046   0.00000  Uiso   1.00
N697   N     0.83333   0.38093   0.25000   0.00000  Uiso   1.00
N698   N     0.76257   0.47628   0.37974   0.00000  Uiso   1.00
N699   N     0.90380   0.48802   0.11936   0.00000  Uiso   1.00
N700   N     0.71690   0.50898   0.44735   0.00000  Uiso   1.00
N701   N     0.93946   0.54715   0.05344   0.00000  Uiso   1.00
N702   N     0.71554   0.51933   0.03889   0.00000  Uiso   1.00
N703   N     0.93887   0.55845   0.46408   0.00000  Uiso   1.00
N704   N     0.71132   0.42576   0.28579   0.00000  Uiso   1.00
O705   O     0.77226   0.53821   0.24999   0.00000  Uiso   1.00
O706   O     0.75555   0.51382   0.11470   0.00000  Uiso   1.00
O707   O     0.84219   0.37922   0.32975   0.00000  Uiso   1.00
O708   O     0.82279   0.62090   0.17045   0.00000  Uiso   1.00
O709   O     0.80199   0.37776   0.17681   0.00000  Uiso   1.00
O710   O     0.83193   0.62174   0.33001   0.00000  Uiso   1.00
O711   O     0.89441   0.46179   0.25000   0.00000  Uiso   1.00
O712   O     0.89441   0.53821   0.25000   0.00000  Uiso   1.00
O713   O     0.77226   0.46179   0.24999   0.00000  Uiso   1.00
O714   O     0.83333   0.53823   0.18392   0.00000  Uiso   1.00
O715   O     0.83334   0.46177   0.31607   0.00000  Uiso   1.00
O716   O     0.83334   0.53823   0.31607   0.00000  Uiso   1.00
O717   O     0.83333   0.46177   0.18392   0.00000  Uiso   1.00
O718   O     0.90324   0.53334   0.38463   0.00000  Uiso   1.00
Zn719  Zn    0.83333   0.55104   0.25000   0.00000  Uiso   1.00
Zn720  Zn    0.83333   0.44896   0.25000   0.00000  Uiso   1.00
C721   C     0.08685   0.83337   0.24990   0.00000  Uiso   1.00
C722   C     0.04274   0.83321   0.24839   0.00000  Uiso   1.00
C723   C     0.17310   0.69049   0.28905   0.00000  Uiso   1.00
C724   C     0.16218   0.97630   0.21080   0.00000  Uiso   1.00
C725   C     0.15652   0.69039   0.21203   0.00000  Uiso   1.00
C726   C     0.16892   0.97632   0.28930   0.00000  Uiso   1.00
C727   C     0.16442   0.83345   0.16358   0.00000  Uiso   1.00
C728   C     0.16813   0.83353   0.33646   0.00000  Uiso   1.00
C729   C     0.20316   0.85140   0.40815   0.00000  Uiso   1.00
C730   C     0.12528   0.84149   0.09197   0.00000  Uiso   1.00
C731   C     0.16806   0.83498   0.38450   0.00000  Uiso   1.00
C732   C     0.24657   0.83324   0.24846   0.00000  Uiso   1.00
C733   C     0.16310   0.83458   0.11555   0.00000  Uiso   1.00
C734   C     0.13061   0.82740   0.40530   0.00000  Uiso   1.00
C735   C     0.20081   0.83621   0.09452   0.00000  Uiso   1.00
C736   C     0.12758   0.83747   0.45104   0.00000  Uiso   1.00
C737   C     0.20130   0.84855   0.04906   0.00000  Uiso   1.00
C738   C     0.16448   0.84661   0.47649   0.00000  Uiso   1.00
C739   C     0.16359   0.84663   0.02351   0.00000  Uiso   1.00
C740   C     0.20212   0.85589   0.45515   0.00000  Uiso   1.00
C741   C     0.12519   0.84447   0.04494   0.00000  Uiso   1.00
C742   C     0.08903   0.84067   0.47215   0.00000  Uiso   1.00
C743   C     0.08804   0.84607   0.01868   0.00000  Uiso   1.00
C744   C     0.23709   0.86456   0.02835   0.00000  Uiso   1.00
C745   C     0.26274   0.83051   0.37417   0.00000  Uiso   1.00
C746   C     0.30358   0.84931   0.35847   0.00000  Uiso   1.00
C747   C     0.07450   0.80519   0.12956   0.00000  Uiso   1.00
C748   C     0.02745   0.80554   0.13197   0.00000  Uiso   1.00
C749   C     0.21584   0.70808   0.34887   0.00000  Uiso   1.00
C750   C     0.21501   0.71714   0.39906   0.00000  Uiso   1.00
C751   C     0.18988   0.96264   0.14257   0.00000  Uiso   1.00
C752   C     0.17502   0.96144   0.09361   0.00000  Uiso   1.00
C753   C     0.09267   0.69959   0.17851   0.00000  Uiso   1.00
C754   C     0.23675   0.87037   0.48199   0.00000  Uiso   1.00
C755   C     0.07717   0.68055   0.13355   0.00000  Uiso   1.00
C756   C     0.12324   0.95658   0.34192   0.00000  Uiso   1.00
C757   C     0.12058   0.95186   0.39255   0.00000  Uiso   1.00
C758   C     0.02211   0.79555   0.26478   0.00000  Uiso   1.00
C759   C     0.31191   0.87025   0.22910   0.00000  Uiso   1.00
C760   C     0.31274   0.79450   0.26209   0.00000  Uiso   1.00
C761   C     0.02123   0.87006   0.22964   0.00000  Uiso   1.00
C762   C     0.29086   0.83262   0.24601   0.00000  Uiso   1.00
H763   H     0.24869   0.81016   0.34652   0.00000  Uiso   1.00
H764   H     0.01610   0.83903   0.14196   0.00000  Uiso   1.00
H765   H     0.10408   0.77847   0.36657   0.00000  Uiso   1.00
H766   H     0.08818   0.83148   0.35335   0.00000  Uiso   1.00
H767   H     0.25389   0.79905   0.09989   0.00000  Uiso   1.00
H768   H     0.25506   0.84858   0.12988   0.00000  Uiso   1.00
H769   H     0.05191   0.86597   0.42162   0.00000  Uiso   1.00
H770   H     0.04279   0.81051   0.43482   0.00000  Uiso   1.00
H771   H     0.26374   0.90213   0.07891   0.00000  Uiso   1.00
H772   H     0.29028   0.85356   0.06588   0.00000  Uiso   1.00
H773   H     0.03578   0.88234   0.02625   0.00000  Uiso   1.00
H774   H     0.26925   0.80839   0.40371   0.00000  Uiso   1.00
H775   H     0.02938   0.82611   0.02944   0.00000  Uiso   1.00
H776   H     0.26336   0.91682   0.44121   0.00000  Uiso   1.00
H777   H     0.29133   0.86757   0.45062   0.00000  Uiso   1.00
H778   H     0.03779   0.72925   0.26873   0.00000  Uiso   1.00
H779   H     0.03638   0.75622   0.31924   0.00000  Uiso   1.00
H780   H     0.26878   0.89883   0.18646   0.00000  Uiso   1.00
H781   H     0.27787   0.92737   0.23596   0.00000  Uiso   1.00
H782   H     0.29979   0.72787   0.25801   0.00000  Uiso   1.00
H783   H     0.30067   0.74922   0.31103   0.00000  Uiso   1.00
H784   H     0.03515   0.93645   0.22776   0.00000  Uiso   1.00
H785   H     0.31806   0.87184   0.38393   0.00000  Uiso   1.00
H786   H     0.03308   0.91088   0.17685   0.00000  Uiso   1.00
H787   H     0.23595   0.73329   0.33363   0.00000  Uiso   1.00
H788   H     0.22961   0.67416   0.34416   0.00000  Uiso   1.00
H789   H     0.19687   0.69080   0.41574   0.00000  Uiso   1.00
H790   H     0.24703   0.71695   0.41367   0.00000  Uiso   1.00
H791   H     0.20083   0.75029   0.40546   0.00000  Uiso   1.00
H792   H     0.21340   0.93591   0.14800   0.00000  Uiso   1.00
H793   H     0.20532   0.99566   0.14858   0.00000  Uiso   1.00
H794   H     0.15492   0.99082   0.08602   0.00000  Uiso   1.00
H795   H     0.20193   0.96253   0.07149   0.00000  Uiso   1.00
H796   H     0.32542   0.82157   0.35204   0.00000  Uiso   1.00
H797   H     0.15726   0.93035   0.08651   0.00000  Uiso   1.00
H798   H     0.07476   0.73006   0.18613   0.00000  Uiso   1.00
H799   H     0.08468   0.67503   0.20521   0.00000  Uiso   1.00
H800   H     0.08776   0.97873   0.12983   0.00000  Uiso   1.00
H801   H     0.04284   0.68081   0.13186   0.00000  Uiso   1.00
H802   H     0.08876   0.70058   0.10531   0.00000  Uiso   1.00
H803   H     0.10608   0.92843   0.32546   0.00000  Uiso   1.00
H804   H     0.10734   0.98858   0.33226   0.00000  Uiso   1.00
H805   H     0.13268   0.98256   0.40940   0.00000  Uiso   1.00
H806   H     0.08788   0.94705   0.40162   0.00000  Uiso   1.00
H807   H     0.29818   0.86944   0.32762   0.00000  Uiso   1.00
H808   H     0.13902   0.92275   0.40465   0.00000  Uiso   1.00
H809   H     0.08756   0.79929   0.16368   0.00000  Uiso   1.00
H810   H     0.08324   0.77690   0.10737   0.00000  Uiso   1.00
H811   H     0.01293   0.79667   0.09896   0.00000  Uiso   1.00
H812   H     0.01741   0.78038   0.15679   0.00000  Uiso   1.00
N813   N     0.16667   0.95240   0.25000   0.00000  Uiso   1.00
N814   N     0.29116   0.90890   0.21035   0.00000  Uiso   1.00
N815   N     0.29167   0.75538   0.27762   0.00000  Uiso   1.00
N816   N     0.04279   0.90723   0.21046   0.00000  Uiso   1.00
N817   N     0.16667   0.71427   0.25000   0.00000  Uiso   1.00
N818   N     0.09590   0.80962   0.37974   0.00000  Uiso   1.00
N819   N     0.23713   0.82135   0.11936   0.00000  Uiso   1.00
N820   N     0.05023   0.84231   0.44735   0.00000  Uiso   1.00
N821   N     0.27279   0.88048   0.05344   0.00000  Uiso   1.00
N822   N     0.04887   0.85267   0.03889   0.00000  Uiso   1.00
N823   N     0.27220   0.89178   0.46408   0.00000  Uiso   1.00
N824   N     0.04466   0.75910   0.28579   0.00000  Uiso   1.00
O825   O     0.10559   0.87154   0.24999   0.00000  Uiso   1.00
O826   O     0.08888   0.84715   0.11470   0.00000  Uiso   1.00
O827   O     0.17552   0.71255   0.32975   0.00000  Uiso   1.00
O828   O     0.15612   0.95424   0.17045   0.00000  Uiso   1.00
O829   O     0.13533   0.71109   0.17681   0.00000  Uiso   1.00
O830   O     0.16527   0.95507   0.33001   0.00000  Uiso   1.00
O831   O     0.22774   0.79513   0.25000   0.00000  Uiso   1.00
O832   O     0.22774   0.87154   0.25000   0.00000  Uiso   1.00
O833   O     0.10559   0.79513   0.24999   0.00000  Uiso   1.00
O834   O     0.16666   0.87156   0.18392   0.00000  Uiso   1.00
O835   O     0.16667   0.79511   0.31607   0.00000  Uiso   1.00
O836   O     0.16667   0.87156   0.31607   0.00000  Uiso   1.00
O837   O     0.16666   0.79511   0.18392   0.00000  Uiso   1.00
O838   O     0.23657   0.86667   0.38463   0.00000  Uiso   1.00
Zn839  Zn    0.16667   0.88437   0.25000   0.00000  Uiso   1.00
Zn840  Zn    0.16667   0.78229   0.25000   0.00000  Uiso   1.00
C841   C     0.42018   0.83337   0.24990   0.00000  Uiso   1.00
C842   C     0.37607   0.83321   0.24839   0.00000  Uiso   1.00
C843   C     0.50644   0.69049   0.28905   0.00000  Uiso   1.00
C844   C     0.49552   0.97630   0.21080   0.00000  Uiso   1.00
C845   C     0.48986   0.69039   0.21203   0.00000  Uiso   1.00
C846   C     0.50225   0.97632   0.28930   0.00000  Uiso   1.00
C847   C     0.49776   0.83345   0.16358   0.00000  Uiso   1.00
C848   C     0.50146   0.83353   0.33646   0.00000  Uiso   1.00
C849   C     0.53649   0.85140   0.40815   0.00000  Uiso   1.00
C850   C     0.45861   0.84149   0.09197   0.00000  Uiso   1.00
C851   C     0.50139   0.83498   0.38450   0.00000  Uiso   1.00
C852   C     0.57991   0.83324   0.24846   0.00000  Uiso   1.00
C853   C     0.49643   0.83458   0.11555   0.00000  Uiso   1.00
C854   C     0.46394   0.82740   0.40530   0.00000  Uiso   1.00
C855   C     0.53414   0.83621   0.09452   0.00000  Uiso   1.00
C856   C     0.46091   0.83747   0.45104   0.00000  Uiso   1.00
C857   C     0.53463   0.84855   0.04906   0.00000  Uiso   1.00
C858   C     0.49781   0.84661   0.47649   0.00000  Uiso   1.00
C859   C     0.49693   0.84663   0.02351   0.00000  Uiso   1.00
C860   C     0.53546   0.85589   0.45515   0.00000  Uiso   1.00
C861   C     0.45852   0.84447   0.04494   0.00000  Uiso   1.00
C862   C     0.42236   0.84067   0.47215   0.00000  Uiso   1.00
C863   C     0.42137   0.84607   0.01868   0.00000  Uiso   1.00
C864   C     0.57042   0.86456   0.02835   0.00000  Uiso   1.00
C865   C     0.59607   0.83051   0.37417   0.00000  Uiso   1.00
C866   C     0.63691   0.84931   0.35847   0.00000  Uiso   1.00
C867   C     0.40783   0.80519   0.12956   0.00000  Uiso   1.00
C868   C     0.36078   0.80554   0.13197   0.00000  Uiso   1.00
C869   C     0.54917   0.70808   0.34887   0.00000  Uiso   1.00
C870   C     0.54834   0.71714   0.39906   0.00000  Uiso   1.00
C871   C     0.52322   0.96264   0.14257   0.00000  Uiso   1.00
C872   C     0.50836   0.96144   0.09361   0.00000  Uiso   1.00
C873   C     0.42601   0.69959   0.17851   0.00000  Uiso   1.00
C874   C     0.57009   0.87037   0.48199   0.00000  Uiso   1.00
C875   C     0.41050   0.68055   0.13355   0.00000  Uiso   1.00
C876   C     0.45658   0.95658   0.34192   0.00000  Uiso   1.00
C877   C     0.45391   0.95186   0.39255   0.00000  Uiso   1.00
C878   C     0.35544   0.79555   0.26478   0.00000  Uiso   1.00
C879   C     0.64525   0.87025   0.22910   0.00000  Uiso   1.00
C880   C     0.64607   0.79450   0.26209   0.00000  Uiso   1.00
C881   C     0.35456   0.87006   0.22964   0.00000  Uiso   1.00
C882   C     0.62420   0.83262   0.24601   0.00000  Uiso   1.00
H883   H     0.58202   0.81016   0.34652   0.00000  Uiso   1.00
H884   H     0.34943   0.83903   0.14196   0.00000  Uiso   1.00
H885   H     0.43741   0.77847   0.36657   0.00000  Uiso   1.00
H886   H     0.42151   0.83148   0.35335   0.00000  Uiso   1.00
H887   H     0.58722   0.79905   0.09989   0.00000  Uiso   1.00
H888   H     0.58840   0.84858   0.12988   0.00000  Uiso   1.00
H889   H     0.38524   0.86597   0.42162   0.00000  Uiso   1.00
H890   H     0.37612   0.81051   0.43482   0.00000  Uiso   1.00
H891   H     0.59707   0.90213   0.07891   0.00000  Uiso   1.00
H892   H     0.62361   0.85356   0.06588   0.00000  Uiso   1.00
H893   H     0.36912   0.88234   0.02625   0.00000  Uiso   1.00
H894   H     0.60258   0.80839   0.40371   0.00000  Uiso   1.00
H895   H     0.36271   0.82611   0.02944   0.00000  Uiso   1.00
H896   H     0.59669   0.91682   0.44121   0.00000  Uiso   1.00
H897   H     0.62466   0.86757   0.45062   0.00000  Uiso   1.00
H898   H     0.37112   0.72925   0.26873   0.00000  Uiso   1.00
H899   H     0.36971   0.75622   0.31924   0.00000  Uiso   1.00
H900   H     0.60211   0.89883   0.18646   0.00000  Uiso   1.00
H901   H     0.61120   0.92737   0.23596   0.00000  Uiso   1.00
H902   H     0.63312   0.72787   0.25801   0.00000  Uiso   1.00
H903   H     0.63400   0.74922   0.31103   0.00000  Uiso   1.00
H904   H     0.36849   0.93645   0.22776   0.00000  Uiso   1.00
H905   H     0.65139   0.87184   0.38393   0.00000  Uiso   1.00
H906   H     0.36642   0.91088   0.17685   0.00000  Uiso   1.00
H907   H     0.56928   0.73329   0.33363   0.00000  Uiso   1.00
H908   H     0.56294   0.67416   0.34416   0.00000  Uiso   1.00
H909   H     0.53020   0.69080   0.41574   0.00000  Uiso   1.00
H910   H     0.58036   0.71695   0.41367   0.00000  Uiso   1.00
H911   H     0.53417   0.75029   0.40546   0.00000  Uiso   1.00
H912   H     0.54673   0.93591   0.14800   0.00000  Uiso   1.00
H913   H     0.53866   0.99566   0.14858   0.00000  Uiso   1.00
H914   H     0.48826   0.99082   0.08602   0.00000  Uiso   1.00
H915   H     0.53527   0.96253   0.07149   0.00000  Uiso   1.00
H916   H     0.65876   0.82157   0.35204   0.00000  Uiso   1.00
H917   H     0.49059   0.93035   0.08651   0.00000  Uiso   1.00
H918   H     0.40810   0.73006   0.18613   0.00000  Uiso   1.00
H919   H     0.41802   0.67503   0.20521   0.00000  Uiso   1.00
H920   H     0.42109   0.97873   0.12983   0.00000  Uiso   1.00
H921   H     0.37617   0.68081   0.13186   0.00000  Uiso   1.00
H922   H     0.42209   0.70058   0.10531   0.00000  Uiso   1.00
H923   H     0.43941   0.92843   0.32546   0.00000  Uiso   1.00
H924   H     0.44067   0.98858   0.33226   0.00000  Uiso   1.00
H925   H     0.46602   0.98256   0.40940   0.00000  Uiso   1.00
H926   H     0.42121   0.94705   0.40162   0.00000  Uiso   1.00
H927   H     0.63152   0.86944   0.32762   0.00000  Uiso   1.00
H928   H     0.47235   0.92275   0.40465   0.00000  Uiso   1.00
H929   H     0.42089   0.79929   0.16368   0.00000  Uiso   1.00
H930   H     0.41657   0.77690   0.10737   0.00000  Uiso   1.00
H931   H     0.34626   0.79667   0.09896   0.00000  Uiso   1.00
H932   H     0.35074   0.78038   0.15679   0.00000  Uiso   1.00
N933   N     0.50000   0.95240   0.25000   0.00000  Uiso   1.00
N934   N     0.62449   0.90890   0.21035   0.00000  Uiso   1.00
N935   N     0.62500   0.75538   0.27762   0.00000  Uiso   1.00
N936   N     0.37612   0.90723   0.21046   0.00000  Uiso   1.00
N937   N     0.50000   0.71427   0.25000   0.00000  Uiso   1.00
N938   N     0.42923   0.80962   0.37974   0.00000  Uiso   1.00
N939   N     0.57047   0.82135   0.11936   0.00000  Uiso   1.00
N940   N     0.38357   0.84231   0.44735   0.00000  Uiso   1.00
N941   N     0.60612   0.88048   0.05344   0.00000  Uiso   1.00
N942   N     0.38221   0.85267   0.03889   0.00000  Uiso   1.00
N943   N     0.60553   0.89178   0.46408   0.00000  Uiso   1.00
N944   N     0.37799   0.75910   0.28579   0.00000  Uiso   1.00
O945   O     0.43892   0.87154   0.24999   0.00000  Uiso   1.00
O946   O     0.42221   0.84715   0.11470   0.00000  Uiso   1.00
O947   O     0.50886   0.71255   0.32975   0.00000  Uiso   1.00
O948   O     0.48945   0.95424   0.17045   0.00000  Uiso   1.00
O949   O     0.46866   0.71109   0.17681   0.00000  Uiso   1.00
O950   O     0.49860   0.95507   0.33001   0.00000  Uiso   1.00
O951   O     0.56108   0.79513   0.25000   0.00000  Uiso   1.00
O952   O     0.56108   0.87154   0.25000   0.00000  Uiso   1.00
O953   O     0.43892   0.79513   0.24999   0.00000  Uiso   1.00
O954   O     0.49999   0.87156   0.18392   0.00000  Uiso   1.00
O955   O     0.50001   0.79511   0.31607   0.00000  Uiso   1.00
O956   O     0.50001   0.87156   0.31607   0.00000  Uiso   1.00
O957   O     0.49999   0.79511   0.18392   0.00000  Uiso   1.00
O958   O     0.56991   0.86667   0.38463   0.00000  Uiso   1.00
Zn959  Zn    0.50000   0.88437   0.25000   0.00000  Uiso   1.00
Zn960  Zn    0.50000   0.78229   0.25000   0.00000  Uiso   1.00
C961   C     0.75351   0.83337   0.24990   0.00000  Uiso   1.00
C962   C     0.70940   0.83321   0.24839   0.00000  Uiso   1.00
C963   C     0.83977   0.69049   0.28905   0.00000  Uiso   1.00
C964   C     0.82885   0.97630   0.21080   0.00000  Uiso   1.00
C965   C     0.82319   0.69039   0.21203   0.00000  Uiso   1.00
C966   C     0.83558   0.97632   0.28930   0.00000  Uiso   1.00
C967   C     0.83109   0.83345   0.16358   0.00000  Uiso   1.00
C968   C     0.83479   0.83353   0.33646   0.00000  Uiso   1.00
C969   C     0.86982   0.85140   0.40815   0.00000  Uiso   1.00
C970   C     0.79195   0.84149   0.09197   0.00000  Uiso   1.00
C971   C     0.83473   0.83498   0.38450   0.00000  Uiso   1.00
C972   C     0.91324   0.83324   0.24846   0.00000  Uiso   1.00
C973   C     0.82976   0.83458   0.11555   0.00000  Uiso   1.00
C974   C     0.79728   0.82740   0.40530   0.00000  Uiso   1.00
C975   C     0.86747   0.83621   0.09452   0.00000  Uiso   1.00
C976   C     0.79425   0.83747   0.45104   0.00000  Uiso   1.00
C977   C     0.86797   0.84855   0.04906   0.00000  Uiso   1.00
C978   C     0.83114   0.84661   0.47649   0.00000  Uiso   1.00
C979   C     0.83026   0.84663   0.02351   0.00000  Uiso   1.00
C980   C     0.86879   0.85589   0.45515   0.00000  Uiso   1.00
C981   C     0.79186   0.84447   0.04494   0.00000  Uiso   1.00
C982   C     0.75569   0.84067   0.47215   0.00000  Uiso   1.00
C983   C     0.75470   0.84607   0.01868   0.00000  Uiso   1.00
C984   C     0.90376   0.86456   0.02835   0.00000  Uiso   1.00
C985   C     0.92941   0.83051   0.37417   0.00000  Uiso   1.00
C986   C     0.97024   0.84931   0.35847   0.00000  Uiso   1.00
C987   C     0.74117   0.80519   0.12956   0.00000  Uiso   1.00
C988   C     0.69411   0.80554   0.13197   0.00000  Uiso   1.00
C989   C     0.88250   0.70808   0.34887   0.00000  Uiso   1.00
C990   C     0.88167   0.71714   0.39906   0.00000  Uiso   1.00
C991   C     0.85655   0.96264   0.14257   0.00000  Uiso   1.00
C992   C     0.84169   0.96144   0.09361   0.00000  Uiso   1.00
C993   C     0.75934   0.69959   0.17851   0.00000  Uiso   1.00
C994   C     0.90342   0.87037   0.48199   0.00000  Uiso   1.00
C995   C     0.74384   0.68055   0.13355   0.00000  Uiso   1.00
C996   C     0.78991   0.95658   0.34192   0.00000  Uiso   1.00
C997   C     0.78725   0.95186   0.39255   0.00000  Uiso   1.00
C998   C     0.68878   0.79555   0.26478   0.00000  Uiso   1.00
C999   C     0.97858   0.87025   0.22910   0.00000  Uiso   1.00
C1000  C     0.97941   0.79450   0.26209   0.00000  Uiso   1.00
C1001  C     0.68790   0.87006   0.22964   0.00000  Uiso   1.00
C1002  C     0.95753   0.83262   0.24601   0.00000  Uiso   1.00
H1003  H     0.91536   0.81016   0.34652   0.00000  Uiso   1.00
H1004  H     0.68277   0.83903   0.14196   0.00000  Uiso   1.00
H1005  H     0.77074   0.77847   0.36657   0.00000  Uiso   1.00
H1006  H     0.75485   0.83148   0.35335   0.00000  Uiso   1.00
H1007  H     0.92055   0.79905   0.09989   0.00000  Uiso   1.00
H1008  H     0.92173   0.84858   0.12988   0.00000  Uiso   1.00
H1009  H     0.71858   0.86597   0.42162   0.00000  Uiso   1.00
H1010  H     0.70946   0.81051   0.43482   0.00000  Uiso   1.00
H1011  H     0.93041   0.90213   0.07891   0.00000  Uiso   1.00
H1012  H     0.95694   0.85356   0.06588   0.00000  Uiso   1.00
H1013  H     0.70245   0.88234   0.02625   0.00000  Uiso   1.00
H1014  H     0.93591   0.80839   0.40371   0.00000  Uiso   1.00
H1015  H     0.69605   0.82611   0.02944   0.00000  Uiso   1.00
H1016  H     0.93002   0.91682   0.44121   0.00000  Uiso   1.00
H1017  H     0.95800   0.86757   0.45062   0.00000  Uiso   1.00
H1018  H     0.70445   0.72925   0.26873   0.00000  Uiso   1.00
H1019  H     0.70304   0.75622   0.31924   0.00000  Uiso   1.00
H1020  H     0.93545   0.89883   0.18646   0.00000  Uiso   1.00
H1021  H     0.94454   0.92737   0.23596   0.00000  Uiso   1.00
H1022  H     0.96645   0.72787   0.25801   0.00000  Uiso   1.00
H1023  H     0.96733   0.74922   0.31103   0.00000  Uiso   1.00
H1024  H     0.70182   0.93645   0.22776   0.00000  Uiso   1.00
H1025  H     0.98472   0.87184   0.38393   0.00000  Uiso   1.00
H1026  H     0.69975   0.91088   0.17685   0.00000  Uiso   1.00
H1027  H     0.90261   0.73329   0.33363   0.00000  Uiso   1.00
H1028  H     0.89627   0.67416   0.34416   0.00000  Uiso   1.00
H1029  H     0.86354   0.69080   0.41574   0.00000  Uiso   1.00
H1030  H     0.91369   0.71695   0.41367   0.00000  Uiso   1.00
H1031  H     0.86750   0.75029   0.40546   0.00000  Uiso   1.00
H1032  H     0.88007   0.93591   0.14800   0.00000  Uiso   1.00
H1033  H     0.87199   0.99566   0.14858   0.00000  Uiso   1.00
H1034  H     0.82159   0.99082   0.08602   0.00000  Uiso   1.00
H1035  H     0.86860   0.96253   0.07149   0.00000  Uiso   1.00
H1036  H     0.99209   0.82157   0.35204   0.00000  Uiso   1.00
H1037  H     0.82393   0.93035   0.08651   0.00000  Uiso   1.00
H1038  H     0.74143   0.73006   0.18613   0.00000  Uiso   1.00
H1039  H     0.75135   0.67503   0.20521   0.00000  Uiso   1.00
H1040  H     0.75443   0.97873   0.12983   0.00000  Uiso   1.00
H1041  H     0.70950   0.68081   0.13186   0.00000  Uiso   1.00
H1042  H     0.75542   0.70058   0.10531   0.00000  Uiso   1.00
H1043  H     0.77274   0.92843   0.32546   0.00000  Uiso   1.00
H1044  H     0.77401   0.98858   0.33226   0.00000  Uiso   1.00
H1045  H     0.79935   0.98256   0.40940   0.00000  Uiso   1.00
H1046  H     0.75455   0.94705   0.40162   0.00000  Uiso   1.00
H1047  H     0.96485   0.86944   0.32762   0.00000  Uiso   1.00
H1048  H     0.80568   0.92275   0.40465   0.00000  Uiso   1.00
H1049  H     0.75422   0.79929   0.16368   0.00000  Uiso   1.00
H1050  H     0.74991   0.77690   0.10737   0.00000  Uiso   1.00
H1051  H     0.67959   0.79667   0.09896   0.00000  Uiso   1.00
H1052  H     0.68408   0.78038   0.15679   0.00000  Uiso   1.00
N1053  N     0.83333   0.95240   0.25000   0.00000  Uiso   1.00
N1054  N     0.95782   0.90890   0.21035   0.00000  Uiso   1.00
N1055  N     0.95833   0.75538   0.27762   0.00000  Uiso   1.00
N1056  N     0.70946   0.90723   0.21046   0.00000  Uiso   1.00
N1057  N     0.83333   0.71427   0.25000   0.00000  Uiso   1.00
N1058  N     0.76257   0.80962   0.37974   0.00000  Uiso   1.00
N1059  N     0.90380   0.82135   0.11936   0.00000  Uiso   1.00
N1060  N     0.71690   0.84231   0.44735   0.00000  Uiso   1.00
N1061  N     0.93946   0.88048   0.05344   0.00000  Uiso   1.00
N1062  N     0.71554   0.85267   0.03889   0.00000  Uiso   1.00
N1063  N     0.93887   0.89178   0.46408   0.00000  Uiso   1.00
N1064  N     0.71132   0.75910   0.28579   0.00000  Uiso   1.00
O1065  O     0.77226   0.87154   0.24999   0.00000  Uiso   1.00
O1066  O     0.75555   0.84715   0.11470   0.00000  Uiso   1.00
O1067  O     0.84219   0.71255   0.32975   0.00000  Uiso   1.00
O1068  O     0.82279   0.95424   0.17045   0.00000  Uiso   1.00
O1069  O     0.80199   0.71109   0.17681   0.00000  Uiso   1.00
O1070  O     0.83193   0.95507   0.33001   0.00000  Uiso   1.00
O1071  O     0.89441   0.79513   0.25000   0.00000  Uiso   1.00
O1072  O     0.89441   0.87154   0.25000   0.00000  Uiso   1.00
O1073  O     0.77226   0.79513   0.24999   0.00000  Uiso   1.00
O1074  O     0.83333   0.87156   0.18392   0.00000  Uiso   1.00
O1075  O     0.83334   0.79511   0.31607   0.00000  Uiso   1.00
O1076  O     0.83334   0.87156   0.31607   0.00000  Uiso   1.00
O1077  O     0.83333   0.79511   0.18392   0.00000  Uiso   1.00
O1078  O     0.90324   0.86667   0.38463   0.00000  Uiso   1.00
Zn1079 Zn    0.83333   0.88437   0.25000   0.00000  Uiso   1.00
Zn1080 Zn    0.83333   0.78229   0.25000   0.00000  Uiso   1.00
C1081  C     0.08685   0.16671   0.74990   0.00000  Uiso   1.00
C1082  C     0.04274   0.16655   0.74839   0.00000  Uiso   1.00
C1083  C     0.17310   0.02383   0.78905   0.00000  Uiso   1.00
C1084  C     0.16218   0.30963   0.71080   0.00000  Uiso   1.00
C1085  C     0.15652   0.02373   0.71203   0.00000  Uiso   1.00
C1086  C     0.16892   0.30965   0.78930   0.00000  Uiso   1.00
C1087  C     0.16442   0.16678   0.66358   0.00000  Uiso   1.00
C1088  C     0.16813   0.16686   0.83646   0.00000  Uiso   1.00
C1089  C     0.20316   0.18474   0.90815   0.00000  Uiso   1.00
C1090  C     0.12528   0.17483   0.59197   0.00000  Uiso   1.00
C1091  C     0.16806   0.16832   0.88450   0.00000  Uiso   1.00
C1092  C     0.24657   0.16657   0.74846   0.00000  Uiso   1.00
C1093  C     0.16310   0.16791   0.61555   0.00000  Uiso   1.00
C1094  C     0.13061   0.16073   0.90530   0.00000  Uiso   1.00
C1095  C     0.20081   0.16955   0.59452   0.00000  Uiso   1.00
C1096  C     0.12758   0.17081   0.95104   0.00000  Uiso   1.00
C1097  C     0.20130   0.18188   0.54906   0.00000  Uiso   1.00
C1098  C     0.16448   0.17994   0.97649   0.00000  Uiso   1.00
C1099  C     0.16359   0.17996   0.52351   0.00000  Uiso   1.00
C1100  C     0.20212   0.18923   0.95515   0.00000  Uiso   1.00
C1101  C     0.12519   0.17781   0.54494   0.00000  Uiso   1.00
C1102  C     0.08903   0.17400   0.97215   0.00000  Uiso   1.00
C1103  C     0.08804   0.17940   0.51868   0.00000  Uiso   1.00
C1104  C     0.23709   0.19789   0.52835   0.00000  Uiso   1.00
C1105  C     0.26274   0.16385   0.87417   0.00000  Uiso   1.00
C1106  C     0.30358   0.18265   0.85847   0.00000  Uiso   1.00
C1107  C     0.07450   0.13852   0.62956   0.00000  Uiso   1.00
C1108  C     0.02745   0.13888   0.63197   0.00000  Uiso   1.00
C1109  C     0.21584   0.04141   0.84887   0.00000  Uiso   1.00
C1110  C     0.21501   0.05047   0.89906   0.00000  Uiso   1.00
C1111  C     0.18988   0.29597   0.64257   0.00000  Uiso   1.00
C1112  C     0.17502   0.29477   0.59361   0.00000  Uiso   1.00
C1113  C     0.09267   0.03293   0.67851   0.00000  Uiso   1.00
C1114  C     0.23675   0.20371   0.98199   0.00000  Uiso   1.00
C1115  C     0.07717   0.01388   0.63355   0.00000  Uiso   1.00
C1116  C     0.12324   0.28991   0.84192   0.00000  Uiso   1.00
C1117  C     0.12058   0.28519   0.89255   0.00000  Uiso   1.00
C1118  C     0.02211   0.12888   0.76478   0.00000  Uiso   1.00
C1119  C     0.31191   0.20358   0.72910   0.00000  Uiso   1.00
C1120  C     0.31274   0.12783   0.76209   0.00000  Uiso   1.00
C1121  C     0.02123   0.20339   0.72964   0.00000  Uiso   1.00
C1122  C     0.29086   0.16595   0.74601   0.00000  Uiso   1.00
H1123  H     0.24869   0.14350   0.84652   0.00000  Uiso   1.00
H1124  H     0.01610   0.17236   0.64196   0.00000  Uiso   1.00
H1125  H     0.10408   0.11181   0.86657   0.00000  Uiso   1.00
H1126  H     0.08818   0.16482   0.85335   0.00000  Uiso   1.00
H1127  H     0.25389   0.13239   0.59989   0.00000  Uiso   1.00
H1128  H     0.25506   0.18191   0.62988   0.00000  Uiso   1.00
H1129  H     0.05191   0.19930   0.92162   0.00000  Uiso   1.00
H1130  H     0.04279   0.14385   0.93482   0.00000  Uiso   1.00
H1131  H     0.26374   0.23546   0.57891   0.00000  Uiso   1.00
H1132  H     0.29028   0.18689   0.56588   0.00000  Uiso   1.00
H1133  H     0.03578   0.21567   0.52625   0.00000  Uiso   1.00
H1134  H     0.26925   0.14172   0.90371   0.00000  Uiso   1.00
H1135  H     0.02938   0.15945   0.52944   0.00000  Uiso   1.00
H1136  H     0.26336   0.25016   0.94121   0.00000  Uiso   1.00
H1137  H     0.29133   0.20090   0.95062   0.00000  Uiso   1.00
H1138  H     0.03779   0.06258   0.76873   0.00000  Uiso   1.00
H1139  H     0.03638   0.08956   0.81924   0.00000  Uiso   1.00
H1140  H     0.26878   0.23216   0.68646   0.00000  Uiso   1.00
H1141  H     0.27787   0.26070   0.73596   0.00000  Uiso   1.00
H1142  H     0.29979   0.06121   0.75801   0.00000  Uiso   1.00
H1143  H     0.30067   0.08255   0.81103   0.00000  Uiso   1.00
H1144  H     0.03515   0.26978   0.72776   0.00000  Uiso   1.00
H1145  H     0.31806   0.20517   0.88393   0.00000  Uiso   1.00
H1146  H     0.03308   0.24421   0.67685   0.00000  Uiso   1.00
H1147  H     0.23595   0.06662   0.83363   0.00000  Uiso   1.00
H1148  H     0.22961   0.00750   0.84416   0.00000  Uiso   1.00
H1149  H     0.19687   0.02413   0.91574   0.00000  Uiso   1.00
H1150  H     0.24703   0.05029   0.91367   0.00000  Uiso   1.00
H1151  H     0.20083   0.08362   0.90546   0.00000  Uiso   1.00
H1152  H     0.21340   0.26925   0.64800   0.00000  Uiso   1.00
H1153  H     0.20532   0.32900   0.64858   0.00000  Uiso   1.00
H1154  H     0.15492   0.32415   0.58602   0.00000  Uiso   1.00
H1155  H     0.20193   0.29586   0.57149   0.00000  Uiso   1.00
H1156  H     0.32542   0.15490   0.85204   0.00000  Uiso   1.00
H1157  H     0.15726   0.26369   0.58651   0.00000  Uiso   1.00
H1158  H     0.07476   0.06340   0.68613   0.00000  Uiso   1.00
H1159  H     0.08468   0.00836   0.70521   0.00000  Uiso   1.00
H1160  H     0.08776   0.31207   0.62983   0.00000  Uiso   1.00
H1161  H     0.04284   0.01414   0.63186   0.00000  Uiso   1.00
H1162  H     0.08876   0.03392   0.60531   0.00000  Uiso   1.00
H1163  H     0.10608   0.26176   0.82546   0.00000  Uiso   1.00
H1164  H     0.10734   0.32192   0.83226   0.00000  Uiso   1.00
H1165  H     0.13268   0.31589   0.90940   0.00000  Uiso   1.00
H1166  H     0.08788   0.28039   0.90162   0.00000  Uiso   1.00
H1167  H     0.29818   0.20277   0.82762   0.00000  Uiso   1.00
H1168  H     0.13902   0.25608   0.90465   0.00000  Uiso   1.00
H1169  H     0.08756   0.13262   0.66368   0.00000  Uiso   1.00
H1170  H     0.08324   0.11023   0.60737   0.00000  Uiso   1.00
H1171  H     0.01293   0.13001   0.59896   0.00000  Uiso   1.00
H1172  H     0.01741   0.11372   0.65679   0.00000  Uiso   1.00
N1173  N     0.16667   0.28573   0.75000   0.00000  Uiso   1.00
N1174  N     0.29116   0.24223   0.71035   0.00000  Uiso   1.00
N1175  N     0.29167   0.08871   0.77762   0.00000  Uiso   1.00
N1176  N     0.04279   0.24056   0.71046   0.00000  Uiso   1.00
N1177  N     0.16667   0.04760   0.75000   0.00000  Uiso   1.00
N1178  N     0.09590   0.14295   0.87974   0.00000  Uiso   1.00
N1179  N     0.23713   0.15468   0.61936   0.00000  Uiso   1.00
N1180  N     0.05023   0.17565   0.94735   0.00000  Uiso   1.00
N1181  N     0.27279   0.21381   0.55344   0.00000  Uiso   1.00
N1182  N     0.04887   0.18600   0.53889   0.00000  Uiso   1.00
N1183  N     0.27220   0.22512   0.96408   0.00000  Uiso   1.00
N1184  N     0.04466   0.09243   0.78579   0.00000  Uiso   1.00
O1185  O     0.10559   0.20487   0.74999   0.00000  Uiso   1.00
O1186  O     0.08888   0.18049   0.61470   0.00000  Uiso   1.00
O1187  O     0.17552   0.04588   0.82975   0.00000  Uiso   1.00
O1188  O     0.15612   0.28757   0.67045   0.00000  Uiso   1.00
O1189  O     0.13533   0.04442   0.67681   0.00000  Uiso   1.00
O1190  O     0.16527   0.28841   0.83001   0.00000  Uiso   1.00
O1191  O     0.22774   0.12846   0.75000   0.00000  Uiso   1.00
O1192  O     0.22774   0.20487   0.75000   0.00000  Uiso   1.00
O1193  O     0.10559   0.12846   0.74999   0.00000  Uiso   1.00
O1194  O     0.16666   0.20489   0.68392   0.00000  Uiso   1.00
O1195  O     0.16667   0.12844   0.81607   0.00000  Uiso   1.00
O1196  O     0.16667   0.20489   0.81607   0.00000  Uiso   1.00
O1197  O     0.16666   0.12844   0.68392   0.00000  Uiso   1.00
O1198  O     0.23657   0.20001   0.88463   0.00000  Uiso   1.00
Zn1199 Zn    0.16667   0.21771   0.75000   0.00000  Uiso   1.00
Zn1200 Zn    0.16667   0.11563   0.75000   0.00000  Uiso   1.00
C1201  C     0.42018   0.16671   0.74990   0.00000  Uiso   1.00
C1202  C     0.37607   0.16655   0.74839   0.00000  Uiso   1.00
C1203  C     0.50644   0.02383   0.78905   0.00000  Uiso   1.00
C1204  C     0.49552   0.30963   0.71080   0.00000  Uiso   1.00
C1205  C     0.48986   0.02373   0.71203   0.00000  Uiso   1.00
C1206  C     0.50225   0.30965   0.78930   0.00000  Uiso   1.00
C1207  C     0.49776   0.16678   0.66358   0.00000  Uiso   1.00
C1208  C     0.50146   0.16686   0.83646   0.00000  Uiso   1.00
C1209  C     0.53649   0.18474   0.90815   0.00000  Uiso   1.00
C1210  C     0.45861   0.17483   0.59197   0.00000  Uiso   1.00
C1211  C     0.50139   0.16832   0.88450   0.00000  Uiso   1.00
C1212  C     0.57991   0.16657   0.74846   0.00000  Uiso   1.00
C1213  C     0.49643   0.16791   0.61555   0.00000  Uiso   1.00
C1214  C     0.46394   0.16073   0.90530   0.00000  Uiso   1.00
C1215  C     0.53414   0.16955   0.59452   0.00000  Uiso   1.00
C1216  C     0.46091   0.17081   0.95104   0.00000  Uiso   1.00
C1217  C     0.53463   0.18188   0.54906   0.00000  Uiso   1.00
C1218  C     0.49781   0.17994   0.97649   0.00000  Uiso   1.00
C1219  C     0.49693   0.17996   0.52351   0.00000  Uiso   1.00
C1220  C     0.53546   0.18923   0.95515   0.00000  Uiso   1.00
C1221  C     0.45852   0.17781   0.54494   0.00000  Uiso   1.00
C1222  C     0.42236   0.17400   0.97215   0.00000  Uiso   1.00
C1223  C     0.42137   0.17940   0.51868   0.00000  Uiso   1.00
C1224  C     0.57042   0.19789   0.52835   0.00000  Uiso   1.00
C1225  C     0.59607   0.16385   0.87417   0.00000  Uiso   1.00
C1226  C     0.63691   0.18265   0.85847   0.00000  Uiso   1.00
C1227  C     0.40783   0.13852   0.62956   0.00000  Uiso   1.00
C1228  C     0.36078   0.13888   0.63197   0.00000  Uiso   1.00
C1229  C     0.54917   0.04141   0.84887   0.00000  Uiso   1.00
C1230  C     0.54834   0.05047   0.89906   0.00000  Uiso   1.00
C1231  C     0.52322   0.29597   0.64257   0.00000  Uiso   1.00
C1232  C     0.50836   0.29477   0.59361   0.00000  Uiso   1.00
C1233  C     0.42601   0.03293   0.67851   0.00000  Uiso   1.00
C1234  C     0.57009   0.20371   0.98199   0.00000  Uiso   1.00
C1235  C     0.41050   0.01388   0.63355   0.00000  Uiso   1.00
C1236  C     0.45658   0.28991   0.84192   0.00000  Uiso   1.00
C1237  C     0.45391   0.28519   0.89255   0.00000  Uiso   1.00
C1238  C     0.35544   0.12888   0.76478   0.00000  Uiso   1.00
C1239  C     0.64525   0.20358   0.72910   0.00000  Uiso   1.00
C1240  C     0.64607   0.12783   0.76209   0.00000  Uiso   1.00
C1241  C     0.35456   0.20339   0.72964   0.00000  Uiso   1.00
C1242  C     0.62420   0.16595   0.74601   0.00000  Uiso   1.00
H1243  H     0.58202   0.14350   0.84652   0.00000  Uiso   1.00
H1244  H     0.34943   0.17236   0.64196   0.00000  Uiso   1.00
H1245  H     0.43741   0.11181   0.86657   0.00000  Uiso   1.00
H1246  H     0.42151   0.16482   0.85335   0.00000  Uiso   1.00
H1247  H     0.58722   0.13239   0.59989   0.00000  Uiso   1.00
H1248  H     0.58840   0.18191   0.62988   0.00000  Uiso   1.00
H1249  H     0.38524   0.19930   0.92162   0.00000  Uiso   1.00
H1250  H     0.37612   0.14385   0.93482   0.00000  Uiso   1.00
H1251  H     0.59707   0.23546   0.57891   0.00000  Uiso   1.00
H1252  H     0.62361   0.18689   0.56588   0.00000  Uiso   1.00
H1253  H     0.36912   0.21567   0.52625   0.00000  Uiso   1.00
H1254  H     0.60258   0.14172   0.90371   0.00000  Uiso   1.00
H1255  H     0.36271   0.15945   0.52944   0.00000  Uiso   1.00
H1256  H     0.59669   0.25016   0.94121   0.00000  Uiso   1.00
H1257  H     0.62466   0.20090   0.95062   0.00000  Uiso   1.00
H1258  H     0.37112   0.06258   0.76873   0.00000  Uiso   1.00
H1259  H     0.36971   0.08956   0.81924   0.00000  Uiso   1.00
H1260  H     0.60211   0.23216   0.68646   0.00000  Uiso   1.00
H1261  H     0.61120   0.26070   0.73596   0.00000  Uiso   1.00
H1262  H     0.63312   0.06121   0.75801   0.00000  Uiso   1.00
H1263  H     0.63400   0.08255   0.81103   0.00000  Uiso   1.00
H1264  H     0.36849   0.26978   0.72776   0.00000  Uiso   1.00
H1265  H     0.65139   0.20517   0.88393   0.00000  Uiso   1.00
H1266  H     0.36642   0.24421   0.67685   0.00000  Uiso   1.00
H1267  H     0.56928   0.06662   0.83363   0.00000  Uiso   1.00
H1268  H     0.56294   0.00750   0.84416   0.00000  Uiso   1.00
H1269  H     0.53020   0.02413   0.91574   0.00000  Uiso   1.00
H1270  H     0.58036   0.05029   0.91367   0.00000  Uiso   1.00
H1271  H     0.53417   0.08362   0.90546   0.00000  Uiso   1.00
H1272  H     0.54673   0.26925   0.64800   0.00000  Uiso   1.00
H1273  H     0.53866   0.32900   0.64858   0.00000  Uiso   1.00
H1274  H     0.48826   0.32415   0.58602   0.00000  Uiso   1.00
H1275  H     0.53527   0.29586   0.57149   0.00000  Uiso   1.00
H1276  H     0.65876   0.15490   0.85204   0.00000  Uiso   1.00
H1277  H     0.49059   0.26369   0.58651   0.00000  Uiso   1.00
H1278  H     0.40810   0.06340   0.68613   0.00000  Uiso   1.00
H1279  H     0.41802   0.00836   0.70521   0.00000  Uiso   1.00
H1280  H     0.42109   0.31207   0.62983   0.00000  Uiso   1.00
H1281  H     0.37617   0.01414   0.63186   0.00000  Uiso   1.00
H1282  H     0.42209   0.03392   0.60531   0.00000  Uiso   1.00
H1283  H     0.43941   0.26176   0.82546   0.00000  Uiso   1.00
H1284  H     0.44067   0.32192   0.83226   0.00000  Uiso   1.00
H1285  H     0.46602   0.31589   0.90940   0.00000  Uiso   1.00
H1286  H     0.42121   0.28039   0.90162   0.00000  Uiso   1.00
H1287  H     0.63152   0.20277   0.82762   0.00000  Uiso   1.00
H1288  H     0.47235   0.25608   0.90465   0.00000  Uiso   1.00
H1289  H     0.42089   0.13262   0.66368   0.00000  Uiso   1.00
H1290  H     0.41657   0.11023   0.60737   0.00000  Uiso   1.00
H1291  H     0.34626   0.13001   0.59896   0.00000  Uiso   1.00
H1292  H     0.35074   0.11372   0.65679   0.00000  Uiso   1.00
N1293  N     0.50000   0.28573   0.75000   0.00000  Uiso   1.00
N1294  N     0.62449   0.24223   0.71035   0.00000  Uiso   1.00
N1295  N     0.62500   0.08871   0.77762   0.00000  Uiso   1.00
N1296  N     0.37612   0.24056   0.71046   0.00000  Uiso   1.00
N1297  N     0.50000   0.04760   0.75000   0.00000  Uiso   1.00
N1298  N     0.42923   0.14295   0.87974   0.00000  Uiso   1.00
N1299  N     0.57047   0.15468   0.61936   0.00000  Uiso   1.00
N1300  N     0.38357   0.17565   0.94735   0.00000  Uiso   1.00
N1301  N     0.60612   0.21381   0.55344   0.00000  Uiso   1.00
N1302  N     0.38221   0.18600   0.53889   0.00000  Uiso   1.00
N1303  N     0.60553   0.22512   0.96408   0.00000  Uiso   1.00
N1304  N     0.37799   0.09243   0.78579   0.00000  Uiso   1.00
O1305  O     0.43892   0.20487   0.74999   0.00000  Uiso   1.00
O1306  O     0.42221   0.18049   0.61470   0.00000  Uiso   1.00
O1307  O     0.50886   0.04588   0.82975   0.00000  Uiso   1.00
O1308  O     0.48945   0.28757   0.67045   0.00000  Uiso   1.00
O1309  O     0.46866   0.04442   0.67681   0.00000  Uiso   1.00
O1310  O     0.49860   0.28841   0.83001   0.00000  Uiso   1.00
O1311  O     0.56108   0.12846   0.75000   0.00000  Uiso   1.00
O1312  O     0.56108   0.20487   0.75000   0.00000  Uiso   1.00
O1313  O     0.43892   0.12846   0.74999   0.00000  Uiso   1.00
O1314  O     0.49999   0.20489   0.68392   0.00000  Uiso   1.00
O1315  O     0.50001   0.12844   0.81607   0.00000  Uiso   1.00
O1316  O     0.50001   0.20489   0.81607   0.00000  Uiso   1.00
O1317  O     0.49999   0.12844   0.68392   0.00000  Uiso   1.00
O1318  O     0.56991   0.20001   0.88463   0.00000  Uiso   1.00
Zn1319 Zn    0.50000   0.21771   0.75000   0.00000  Uiso   1.00
Zn1320 Zn    0.50000   0.11563   0.75000   0.00000  Uiso   1.00
C1321  C     0.75351   0.16671   0.74990   0.00000  Uiso   1.00
C1322  C     0.70940   0.16655   0.74839   0.00000  Uiso   1.00
C1323  C     0.83977   0.02383   0.78905   0.00000  Uiso   1.00
C1324  C     0.82885   0.30963   0.71080   0.00000  Uiso   1.00
C1325  C     0.82319   0.02373   0.71203   0.00000  Uiso   1.00
C1326  C     0.83558   0.30965   0.78930   0.00000  Uiso   1.00
C1327  C     0.83109   0.16678   0.66358   0.00000  Uiso   1.00
C1328  C     0.83479   0.16686   0.83646   0.00000  Uiso   1.00
C1329  C     0.86982   0.18474   0.90815   0.00000  Uiso   1.00
C1330  C     0.79195   0.17483   0.59197   0.00000  Uiso   1.00
C1331  C     0.83473   0.16832   0.88450   0.00000  Uiso   1.00
C1332  C     0.91324   0.16657   0.74846   0.00000  Uiso   1.00
C1333  C     0.82976   0.16791   0.61555   0.00000  Uiso   1.00
C1334  C     0.79728   0.16073   0.90530   0.00000  Uiso   1.00
C1335  C     0.86747   0.16955   0.59452   0.00000  Uiso   1.00
C1336  C     0.79425   0.17081   0.95104   0.00000  Uiso   1.00
C1337  C     0.86797   0.18188   0.54906   0.00000  Uiso   1.00
C1338  C     0.83114   0.17994   0.97649   0.00000  Uiso   1.00
C1339  C     0.83026   0.17996   0.52351   0.00000  Uiso   1.00
C1340  C     0.86879   0.18923   0.95515   0.00000  Uiso   1.00
C1341  C     0.79186   0.17781   0.54494   0.00000  Uiso   1.00
C1342  C     0.75569   0.17400   0.97215   0.00000  Uiso   1.00
C1343  C     0.75470   0.17940   0.51868   0.00000  Uiso   1.00
C1344  C     0.90376   0.19789   0.52835   0.00000  Uiso   1.00
C1345  C     0.92941   0.16385   0.87417   0.00000  Uiso   1.00
C1346  C     0.97024   0.18265   0.85847   0.00000  Uiso   1.00
C1347  C     0.74117   0.13852   0.62956   0.00000  Uiso   1.00
C1348  C     0.69411   0.13888   0.63197   0.00000  Uiso   1.00
C1349  C     0.88250   0.04141   0.84887   0.00000  Uiso   1.00
C1350  C     0.88167   0.05047   0.89906   0.00000  Uiso   1.00
C1351  C     0.85655   0.29597   0.64257   0.00000  Uiso   1.00
C1352  C     0.84169   0.29477   0.59361   0.00000  Uiso   1.00
C1353  C     0.75934   0.03293   0.67851   0.00000  Uiso   1.00
C1354  C     0.90342   0.20371   0.98199   0.00000  Uiso   1.00
C1355  C     0.74384   0.01388   0.63355   0.00000  Uiso   1.00
C1356  C     0.78991   0.28991   0.84192   0.00000  Uiso   1.00
C1357  C     0.78725   0.28519   0.89255   0.00000  Uiso   1.00
C1358  C     0.68878   0.12888   0.76478   0.00000  Uiso   1.00
C1359  C     0.97858   0.20358   0.72910   0.00000  Uiso   1.00
C1360  C     0.97941   0.12783   0.76209   0.00000  Uiso   1.00
C1361  C     0.68790   0.20339   0.72964   0.00000  Uiso   1.00
C1362  C     0.95753   0.16595   0.74601   0.00000  Uiso   1.00
H1363  H     0.91536   0.14350   0.84652   0.00000  Uiso   1.00
H1364  H     0.68277   0.17236   0.64196   0.00000  Uiso   1.00
H1365  H     0.77074   0.11181   0.86657   0.00000  Uiso   1.00
H1366  H     0.75485   0.16482   0.85335   0.00000  Uiso   1.00
H1367  H     0.92055   0.13239   0.59989   0.00000  Uiso   1.00
H1368  H     0.92173   0.18191   0.62988   0.00000  Uiso   1.00
H1369  H     0.71858   0.19930   0.92162   0.00000  Uiso   1.00
H1370  H     0.70946   0.14385   0.93482   0.00000  Uiso   1.00
H1371  H     0.93041   0.23546   0.57891   0.00000  Uiso   1.00
H1372  H     0.95694   0.18689   0.56588   0.00000  Uiso   1.00
H1373  H     0.70245   0.21567   0.52625   0.00000  Uiso   1.00
H1374  H     0.93591   0.14172   0.90371   0.00000  Uiso   1.00
H1375  H     0.69605   0.15945   0.52944   0.00000  Uiso   1.00
H1376  H     0.93002   0.25016   0.94121   0.00000  Uiso   1.00
H1377  H     0.95800   0.20090   0.95062   0.00000  Uiso   1.00
H1378  H     0.70445   0.06258   0.76873   0.00000  Uiso   1.00
H1379  H     0.70304   0.08956   0.81924   0.00000  Uiso   1.00
H1380  H     0.93545   0.23216   0.68646   0.00000  Uiso   1.00
H1381  H     0.94454   0.26070   0.73596   0.00000  Uiso   1.00
H1382  H     0.96645   0.06121   0.75801   0.00000  Uiso   1.00
H1383  H     0.96733   0.08255   0.81103   0.00000  Uiso   1.00
H1384  H     0.70182   0.26978   0.72776   0.00000  Uiso   1.00
H1385  H     0.98472   0.20517   0.88393   0.00000  Uiso   1.00
H1386  H     0.69975   0.24421   0.67685   0.00000  Uiso   1.00
H1387  H     0.90261   0.06662   0.83363   0.00000  Uiso   1.00
H1388  H     0.89627   0.00750   0.84416   0.00000  Uiso   1.00
H1389  H     0.86354   0.02413   0.91574   0.00000  Uiso   1.00
H1390  H     0.91369   0.05029   0.91367   0.00000  Uiso   1.00
H1391  H     0.86750   0.08362   0.90546   0.00000  Uiso   1.00
H1392  H     0.88007   0.26925   0.64800   0.00000  Uiso   1.00
H1393  H     0.87199   0.32900   0.64858   0.00000  Uiso   1.00
H1394  H     0.82159   0.32415   0.58602   0.00000  Uiso   1.00
H1395  H     0.86860   0.29586   0.57149   0.00000  Uiso   1.00
H1396  H     0.99209   0.15490   0.85204   0.00000  Uiso   1.00
H1397  H     0.82393   0.26369   0.58651   0.00000  Uiso   1.00
H1398  H     0.74143   0.06340   0.68613   0.00000  Uiso   1.00
H1399  H     0.75135   0.00836   0.70521   0.00000  Uiso   1.00
H1400  H     0.75443   0.31207   0.62983   0.00000  Uiso   1.00
H1401  H     0.70950   0.01414   0.63186   0.00000  Uiso   1.00
H1402  H     0.75542   0.03392   0.60531   0.00000  Uiso   1.00
H1403  H     0.77274   0.26176   0.82546   0.00000  Uiso   1.00
H1404  H     0.77401   0.32192   0.83226   0.00000  Uiso   1.00
H1405  H     0.79935   0.31589   0.90940   0.00000  Uiso   1.00
H1406  H     0.75455   0.28039   0.90162   0.00000  Uiso   1.00
H1407  H     0.96485   0.20277   0.82762   0.00000  Uiso   1.00
H1408  H     0.80568   0.25608   0.90465   0.00000  Uiso   1.00
H1409  H     0.75422   0.13262   0.66368   0.00000  Uiso   1.00
H1410  H     0.74991   0.11023   0.60737   0.00000  Uiso   1.00
H1411  H     0.67959   0.13001   0.59896   0.00000  Uiso   1.00
H1412  H     0.68408   0.11372   0.65679   0.00000  Uiso   1.00
N1413  N     0.83333   0.28573   0.75000   0.00000  Uiso   1.00
N1414  N     0.95782   0.24223   0.71035   0.00000  Uiso   1.00
N1415  N     0.95833   0.08871   0.77762   0.00000  Uiso   1.00
N1416  N     0.70946   0.24056   0.71046   0.00000  Uiso   1.00
N1417  N     0.83333   0.04760   0.75000   0.00000  Uiso   1.00
N1418  N     0.76257   0.14295   0.87974   0.00000  Uiso   1.00
N1419  N     0.90380   0.15468   0.61936   0.00000  Uiso   1.00
N1420  N     0.71690   0.17565   0.94735   0.00000  Uiso   1.00
N1421  N     0.93946   0.21381   0.55344   0.00000  Uiso   1.00
N1422  N     0.71554   0.18600   0.53889   0.00000  Uiso   1.00
N1423  N     0.93887   0.22512   0.96408   0.00000  Uiso   1.00
N1424  N     0.71132   0.09243   0.78579   0.00000  Uiso   1.00
O1425  O     0.77226   0.20487   0.74999   0.00000  Uiso   1.00
O1426  O     0.75555   0.18049   0.61470   0.00000  Uiso   1.00
O1427  O     0.84219   0.04588   0.82975   0.00000  Uiso   1.00
O1428  O     0.82279   0.28757   0.67045   0.00000  Uiso   1.00
O1429  O     0.80199   0.04442   0.67681   0.00000  Uiso   1.00
O1430  O     0.83193   0.28841   0.83001   0.00000  Uiso   1.00
O1431  O     0.89441   0.12846   0.75000   0.00000  Uiso   1.00
O1432  O     0.89441   0.20487   0.75000   0.00000  Uiso   1.00
O1433  O     0.77226   0.12846   0.74999   0.00000  Uiso   1.00
O1434  O     0.83333   0.20489   0.68392   0.00000  Uiso   1.00
O1435  O     0.83334   0.12844   0.81607   0.00000  Uiso   1.00
O1436  O     0.83334   0.20489   0.81607   0.00000  Uiso   1.00
O1437  O     0.83333   0.12844   0.68392   0.00000  Uiso   1.00
O1438  O     0.90324   0.20001   0.88463   0.00000  Uiso   1.00
Zn1439 Zn    0.83333   0.21771   0.75000   0.00000  Uiso   1.00
Zn1440 Zn    0.83333   0.11563   0.75000   0.00000  Uiso   1.00
C1441  C     0.08685   0.50004   0.74990   0.00000  Uiso   1.00
C1442  C     0.04274   0.49988   0.74839   0.00000  Uiso   1.00
C1443  C     0.17310   0.35716   0.78905   0.00000  Uiso   1.00
C1444  C     0.16218   0.64297   0.71080   0.00000  Uiso   1.00
C1445  C     0.15652   0.35706   0.71203   0.00000  Uiso   1.00
C1446  C     0.16892   0.64298   0.78930   0.00000  Uiso   1.00
C1447  C     0.16442   0.50012   0.66358   0.00000  Uiso   1.00
C1448  C     0.16813   0.50019   0.83646   0.00000  Uiso   1.00
C1449  C     0.20316   0.51807   0.90815   0.00000  Uiso   1.00
C1450  C     0.12528   0.50816   0.59197   0.00000  Uiso   1.00
C1451  C     0.16806   0.50165   0.88450   0.00000  Uiso   1.00
C1452  C     0.24657   0.49991   0.74846   0.00000  Uiso   1.00
C1453  C     0.16310   0.50125   0.61555   0.00000  Uiso   1.00
C1454  C     0.13061   0.49406   0.90530   0.00000  Uiso   1.00
C1455  C     0.20081   0.50288   0.59452   0.00000  Uiso   1.00
C1456  C     0.12758   0.50414   0.95104   0.00000  Uiso   1.00
C1457  C     0.20130   0.51522   0.54906   0.00000  Uiso   1.00
C1458  C     0.16448   0.51328   0.97649   0.00000  Uiso   1.00
C1459  C     0.16359   0.51330   0.52351   0.00000  Uiso   1.00
C1460  C     0.20212   0.52256   0.95515   0.00000  Uiso   1.00
C1461  C     0.12519   0.51114   0.54494   0.00000  Uiso   1.00
C1462  C     0.08903   0.50734   0.97215   0.00000  Uiso   1.00
C1463  C     0.08804   0.51273   0.51868   0.00000  Uiso   1.00
C1464  C     0.23709   0.53123   0.52835   0.00000  Uiso   1.00
C1465  C     0.26274   0.49718   0.87417   0.00000  Uiso   1.00
C1466  C     0.30358   0.51598   0.85847   0.00000  Uiso   1.00
C1467  C     0.07450   0.47186   0.62956   0.00000  Uiso   1.00
C1468  C     0.02745   0.47221   0.63197   0.00000  Uiso   1.00
C1469  C     0.21584   0.37474   0.84887   0.00000  Uiso   1.00
C1470  C     0.21501   0.38381   0.89906   0.00000  Uiso   1.00
C1471  C     0.18988   0.62930   0.64257   0.00000  Uiso   1.00
C1472  C     0.17502   0.62810   0.59361   0.00000  Uiso   1.00
C1473  C     0.09267   0.36626   0.67851   0.00000  Uiso   1.00
C1474  C     0.23675   0.53704   0.98199   0.00000  Uiso   1.00
C1475  C     0.07717   0.34722   0.63355   0.00000  Uiso   1.00
C1476  C     0.12324   0.62324   0.84192   0.00000  Uiso   1.00
C1477  C     0.12058   0.61852   0.89255   0.00000  Uiso   1.00
C1478  C     0.02211   0.46222   0.76478   0.00000  Uiso   1.00
C1479  C     0.31191   0.53692   0.72910   0.00000  Uiso   1.00
C1480  C     0.31274   0.46116   0.76209   0.00000  Uiso   1.00
C1481  C     0.02123   0.53672   0.72964   0.00000  Uiso   1.00
C1482  C     0.29086   0.49928   0.74601   0.00000  Uiso   1.00
H1483  H     0.24869   0.47683   0.84652   0.00000  Uiso   1.00
H1484  H     0.01610   0.50570   0.64196   0.00000  Uiso   1.00
H1485  H     0.10408   0.44514   0.86657   0.00000  Uiso   1.00
H1486  H     0.08818   0.49815   0.85335   0.00000  Uiso   1.00
H1487  H     0.25389   0.46572   0.59989   0.00000  Uiso   1.00
H1488  H     0.25506   0.51524   0.62988   0.00000  Uiso   1.00
H1489  H     0.05191   0.53263   0.92162   0.00000  Uiso   1.00
H1490  H     0.04279   0.47718   0.93482   0.00000  Uiso   1.00
H1491  H     0.26374   0.56879   0.57891   0.00000  Uiso   1.00
H1492  H     0.29028   0.52023   0.56588   0.00000  Uiso   1.00
H1493  H     0.03578   0.54900   0.52625   0.00000  Uiso   1.00
H1494  H     0.26925   0.47505   0.90371   0.00000  Uiso   1.00
H1495  H     0.02938   0.49278   0.52944   0.00000  Uiso   1.00
H1496  H     0.26336   0.58349   0.94121   0.00000  Uiso   1.00
H1497  H     0.29133   0.53423   0.95062   0.00000  Uiso   1.00
H1498  H     0.03779   0.39592   0.76873   0.00000  Uiso   1.00
H1499  H     0.03638   0.42289   0.81924   0.00000  Uiso   1.00
H1500  H     0.26878   0.56550   0.68646   0.00000  Uiso   1.00
H1501  H     0.27787   0.59404   0.73596   0.00000  Uiso   1.00
H1502  H     0.29979   0.39454   0.75801   0.00000  Uiso   1.00
H1503  H     0.30067   0.41588   0.81103   0.00000  Uiso   1.00
H1504  H     0.03515   0.60311   0.72776   0.00000  Uiso   1.00
H1505  H     0.31806   0.53850   0.88393   0.00000  Uiso   1.00
H1506  H     0.03308   0.57754   0.67685   0.00000  Uiso   1.00
H1507  H     0.23595   0.39995   0.83363   0.00000  Uiso   1.00
H1508  H     0.22961   0.34083   0.84416   0.00000  Uiso   1.00
H1509  H     0.19687   0.35746   0.91574   0.00000  Uiso   1.00
H1510  H     0.24703   0.38362   0.91367   0.00000  Uiso   1.00
H1511  H     0.20083   0.41695   0.90546   0.00000  Uiso   1.00
H1512  H     0.21340   0.60258   0.64800   0.00000  Uiso   1.00
H1513  H     0.20532   0.66233   0.64858   0.00000  Uiso   1.00
H1514  H     0.15492   0.65748   0.58602   0.00000  Uiso   1.00
H1515  H     0.20193   0.62919   0.57149   0.00000  Uiso   1.00
H1516  H     0.32542   0.48824   0.85204   0.00000  Uiso   1.00
H1517  H     0.15726   0.59702   0.58651   0.00000  Uiso   1.00
H1518  H     0.07476   0.39673   0.68613   0.00000  Uiso   1.00
H1519  H     0.08468   0.34169   0.70521   0.00000  Uiso   1.00
H1520  H     0.08776   0.64540   0.62983   0.00000  Uiso   1.00
H1521  H     0.04284   0.34747   0.63186   0.00000  Uiso   1.00
H1522  H     0.08876   0.36725   0.60531   0.00000  Uiso   1.00
H1523  H     0.10608   0.59510   0.82546   0.00000  Uiso   1.00
H1524  H     0.10734   0.65525   0.83226   0.00000  Uiso   1.00
H1525  H     0.13268   0.64923   0.90940   0.00000  Uiso   1.00
H1526  H     0.08788   0.61372   0.90162   0.00000  Uiso   1.00
H1527  H     0.29818   0.53611   0.82762   0.00000  Uiso   1.00
H1528  H     0.13902   0.58941   0.90465   0.00000  Uiso   1.00
H1529  H     0.08756   0.46596   0.66368   0.00000  Uiso   1.00
H1530  H     0.08324   0.44356   0.60737   0.00000  Uiso   1.00
H1531  H     0.01293   0.46334   0.59896   0.00000  Uiso   1.00
H1532  H     0.01741   0.44705   0.65679   0.00000  Uiso   1.00
N1533  N     0.16667   0.61907   0.75000   0.00000  Uiso   1.00
N1534  N     0.29116   0.57556   0.71035   0.00000  Uiso   1.00
N1535  N     0.29167   0.42204   0.77762   0.00000  Uiso   1.00
N1536  N     0.04279   0.57389   0.71046   0.00000  Uiso   1.00
N1537  N     0.16667   0.38093   0.75000   0.00000  Uiso   1.00
N1538  N     0.09590   0.47628   0.87974   0.00000  Uiso   1.00
N1539  N     0.23713   0.48802   0.61936   0.00000  Uiso   1.00
N1540  N     0.05023   0.50898   0.94735   0.00000  Uiso   1.00
N1541  N     0.27279   0.54715   0.55344   0.00000  Uiso   1.00
N1542  N     0.04887   0.51933   0.53889   0.00000  Uiso   1.00
N1543  N     0.27220   0.55845   0.96408   0.00000  Uiso   1.00
N1544  N     0.04466   0.42576   0.78579   0.00000  Uiso   1.00
O1545  O     0.10559   0.53821   0.74999   0.00000  Uiso   1.00
O1546  O     0.08888   0.51382   0.61470   0.00000  Uiso   1.00
O1547  O     0.17552   0.37922   0.82975   0.00000  Uiso   1.00
O1548  O     0.15612   0.62090   0.67045   0.00000  Uiso   1.00
O1549  O     0.13533   0.37776   0.67681   0.00000  Uiso   1.00
O1550  O     0.16527   0.62174   0.83001   0.00000  Uiso   1.00
O1551  O     0.22774   0.46179   0.75000   0.00000  Uiso   1.00
O1552  O     0.22774   0.53821   0.75000   0.00000  Uiso   1.00
O1553  O     0.10559   0.46179   0.74999   0.00000  Uiso   1.00
O1554  O     0.16666   0.53823   0.68392   0.00000  Uiso   1.00
O1555  O     0.16667   0.46177   0.81607   0.00000  Uiso   1.00
O1556  O     0.16667   0.53823   0.81607   0.00000  Uiso   1.00
O1557  O     0.16666   0.46177   0.68392   0.00000  Uiso   1.00
O1558  O     0.23657   0.53334   0.88463   0.00000  Uiso   1.00
Zn1559 Zn    0.16667   0.55104   0.75000   0.00000  Uiso   1.00
Zn1560 Zn    0.16667   0.44896   0.75000   0.00000  Uiso   1.00
C1561  C     0.42018   0.50004   0.74990   0.00000  Uiso   1.00
C1562  C     0.37607   0.49988   0.74839   0.00000  Uiso   1.00
C1563  C     0.50644   0.35716   0.78905   0.00000  Uiso   1.00
C1564  C     0.49552   0.64297   0.71080   0.00000  Uiso   1.00
C1565  C     0.48986   0.35706   0.71203   0.00000  Uiso   1.00
C1566  C     0.50225   0.64298   0.78930   0.00000  Uiso   1.00
C1567  C     0.49776   0.50012   0.66358   0.00000  Uiso   1.00
C1568  C     0.50146   0.50019   0.83646   0.00000  Uiso   1.00
C1569  C     0.53649   0.51807   0.90815   0.00000  Uiso   1.00
C1570  C     0.45861   0.50816   0.59197   0.00000  Uiso   1.00
C1571  C     0.50139   0.50165   0.88450   0.00000  Uiso   1.00
C1572  C     0.57991   0.49991   0.74846   0.00000  Uiso   1.00
C1573  C     0.49643   0.50125   0.61555   0.00000  Uiso   1.00
C1574  C     0.46394   0.49406   0.90530   0.00000  Uiso   1.00
C1575  C     0.53414   0.50288   0.59452   0.00000  Uiso   1.00
C1576  C     0.46091   0.50414   0.95104   0.00000  Uiso   1.00
C1577  C     0.53463   0.51522   0.54906   0.00000  Uiso   1.00
C1578  C     0.49781   0.51328   0.97649   0.00000  Uiso   1.00
C1579  C     0.49693   0.51330   0.52351   0.00000  Uiso   1.00
C1580  C     0.53546   0.52256   0.95515   0.00000  Uiso   1.00
C1581  C     0.45852   0.51114   0.54494   0.00000  Uiso   1.00
C1582  C     0.42236   0.50734   0.97215   0.00000  Uiso   1.00
C1583  C     0.42137   0.51273   0.51868   0.00000  Uiso   1.00
C1584  C     0.57042   0.53123   0.52835   0.00000  Uiso   1.00
C1585  C     0.59607   0.49718   0.87417   0.00000  Uiso   1.00
C1586  C     0.63691   0.51598   0.85847   0.00000  Uiso   1.00
C1587  C     0.40783   0.47186   0.62956   0.00000  Uiso   1.00
C1588  C     0.36078   0.47221   0.63197   0.00000  Uiso   1.00
C1589  C     0.54917   0.37474   0.84887   0.00000  Uiso   1.00
C1590  C     0.54834   0.38381   0.89906   0.00000  Uiso   1.00
C1591  C     0.52322   0.62930   0.64257   0.00000  Uiso   1.00
C1592  C     0.50836   0.62810   0.59361   0.00000  Uiso   1.00
C1593  C     0.42601   0.36626   0.67851   0.00000  Uiso   1.00
C1594  C     0.57009   0.53704   0.98199   0.00000  Uiso   1.00
C1595  C     0.41050   0.34722   0.63355   0.00000  Uiso   1.00
C1596  C     0.45658   0.62324   0.84192   0.00000  Uiso   1.00
C1597  C     0.45391   0.61852   0.89255   0.00000  Uiso   1.00
C1598  C     0.35544   0.46222   0.76478   0.00000  Uiso   1.00
C1599  C     0.64525   0.53692   0.72910   0.00000  Uiso   1.00
C1600  C     0.64607   0.46116   0.76209   0.00000  Uiso   1.00
C1601  C     0.35456   0.53672   0.72964   0.00000  Uiso   1.00
C1602  C     0.62420   0.49928   0.74601   0.00000  Uiso   1.00
H1603  H     0.58202   0.47683   0.84652   0.00000  Uiso   1.00
H1604  H     0.34943   0.50570   0.64196   0.00000  Uiso   1.00
H1605  H     0.43741   0.44514   0.86657   0.00000  Uiso   1.00
H1606  H     0.42151   0.49815   0.85335   0.00000  Uiso   1.00
H1607  H     0.58722   0.46572   0.59989   0.00000  Uiso   1.00
H1608  H     0.58840   0.51524   0.62988   0.00000  Uiso   1.00
H1609  H     0.38524   0.53263   0.92162   0.00000  Uiso   1.00
H1610  H     0.37612   0.47718   0.93482   0.00000  Uiso   1.00
H1611  H     0.59707   0.56879   0.57891   0.00000  Uiso   1.00
H1612  H     0.62361   0.52023   0.56588   0.00000  Uiso   1.00
H1613  H     0.36912   0.54900   0.52625   0.00000  Uiso   1.00
H1614  H     0.60258   0.47505   0.90371   0.00000  Uiso   1.00
H1615  H     0.36271   0.49278   0.52944   0.00000  Uiso   1.00
H1616  H     0.59669   0.58349   0.94121   0.00000  Uiso   1.00
H1617  H     0.62466   0.53423   0.95062   0.00000  Uiso   1.00
H1618  H     0.37112   0.39592   0.76873   0.00000  Uiso   1.00
H1619  H     0.36971   0.42289   0.81924   0.00000  Uiso   1.00
H1620  H     0.60211   0.56550   0.68646   0.00000  Uiso   1.00
H1621  H     0.61120   0.59404   0.73596   0.00000  Uiso   1.00
H1622  H     0.63312   0.39454   0.75801   0.00000  Uiso   1.00
H1623  H     0.63400   0.41588   0.81103   0.00000  Uiso   1.00
H1624  H     0.36849   0.60311   0.72776   0.00000  Uiso   1.00
H1625  H     0.65139   0.53850   0.88393   0.00000  Uiso   1.00
H1626  H     0.36642   0.57754   0.67685   0.00000  Uiso   1.00
H1627  H     0.56928   0.39995   0.83363   0.00000  Uiso   1.00
H1628  H     0.56294   0.34083   0.84416   0.00000  Uiso   1.00
H1629  H     0.53020   0.35746   0.91574   0.00000  Uiso   1.00
H1630  H     0.58036   0.38362   0.91367   0.00000  Uiso   1.00
H1631  H     0.53417   0.41695   0.90546   0.00000  Uiso   1.00
H1632  H     0.54673   0.60258   0.64800   0.00000  Uiso   1.00
H1633  H     0.53866   0.66233   0.64858   0.00000  Uiso   1.00
H1634  H     0.48826   0.65748   0.58602   0.00000  Uiso   1.00
H1635  H     0.53527   0.62919   0.57149   0.00000  Uiso   1.00
H1636  H     0.65876   0.48824   0.85204   0.00000  Uiso   1.00
H1637  H     0.49059   0.59702   0.58651   0.00000  Uiso   1.00
H1638  H     0.40810   0.39673   0.68613   0.00000  Uiso   1.00
H1639  H     0.41802   0.34169   0.70521   0.00000  Uiso   1.00
H1640  H     0.42109   0.64540   0.62983   0.00000  Uiso   1.00
H1641  H     0.37617   0.34747   0.63186   0.00000  Uiso   1.00
H1642  H     0.42209   0.36725   0.60531   0.00000  Uiso   1.00
H1643  H     0.43941   0.59510   0.82546   0.00000  Uiso   1.00
H1644  H     0.44067   0.65525   0.83226   0.00000  Uiso   1.00
H1645  H     0.46602   0.64923   0.90940   0.00000  Uiso   1.00
H1646  H     0.42121   0.61372   0.90162   0.00000  Uiso   1.00
H1647  H     0.63152   0.53611   0.82762   0.00000  Uiso   1.00
H1648  H     0.47235   0.58941   0.90465   0.00000  Uiso   1.00
H1649  H     0.42089   0.46596   0.66368   0.00000  Uiso   1.00
H1650  H     0.41657   0.44356   0.60737   0.00000  Uiso   1.00
H1651  H     0.34626   0.46334   0.59896   0.00000  Uiso   1.00
H1652  H     0.35074   0.44705   0.65679   0.00000  Uiso   1.00
N1653  N     0.50000   0.61907   0.75000   0.00000  Uiso   1.00
N1654  N     0.62449   0.57556   0.71035   0.00000  Uiso   1.00
N1655  N     0.62500   0.42204   0.77762   0.00000  Uiso   1.00
N1656  N     0.37612   0.57389   0.71046   0.00000  Uiso   1.00
N1657  N     0.50000   0.38093   0.75000   0.00000  Uiso   1.00
N1658  N     0.42923   0.47628   0.87974   0.00000  Uiso   1.00
N1659  N     0.57047   0.48802   0.61936   0.00000  Uiso   1.00
N1660  N     0.38357   0.50898   0.94735   0.00000  Uiso   1.00
N1661  N     0.60612   0.54715   0.55344   0.00000  Uiso   1.00
N1662  N     0.38221   0.51933   0.53889   0.00000  Uiso   1.00
N1663  N     0.60553   0.55845   0.96408   0.00000  Uiso   1.00
N1664  N     0.37799   0.42576   0.78579   0.00000  Uiso   1.00
O1665  O     0.43892   0.53821   0.74999   0.00000  Uiso   1.00
O1666  O     0.42221   0.51382   0.61470   0.00000  Uiso   1.00
O1667  O     0.50886   0.37922   0.82975   0.00000  Uiso   1.00
O1668  O     0.48945   0.62090   0.67045   0.00000  Uiso   1.00
O1669  O     0.46866   0.37776   0.67681   0.00000  Uiso   1.00
O1670  O     0.49860   0.62174   0.83001   0.00000  Uiso   1.00
O1671  O     0.56108   0.46179   0.75000   0.00000  Uiso   1.00
O1672  O     0.56108   0.53821   0.75000   0.00000  Uiso   1.00
O1673  O     0.43892   0.46179   0.74999   0.00000  Uiso   1.00
O1674  O     0.49999   0.53823   0.68392   0.00000  Uiso   1.00
O1675  O     0.50001   0.46177   0.81607   0.00000  Uiso   1.00
O1676  O     0.50001   0.53823   0.81607   0.00000  Uiso   1.00
O1677  O     0.49999   0.46177   0.68392   0.00000  Uiso   1.00
O1678  O     0.56991   0.53334   0.88463   0.00000  Uiso   1.00
Zn1679 Zn    0.50000   0.55104   0.75000   0.00000  Uiso   1.00
Zn1680 Zn    0.50000   0.44896   0.75000   0.00000  Uiso   1.00
C1681  C     0.75351   0.50004   0.74990   0.00000  Uiso   1.00
C1682  C     0.70940   0.49988   0.74839   0.00000  Uiso   1.00
C1683  C     0.83977   0.35716   0.78905   0.00000  Uiso   1.00
C1684  C     0.82885   0.64297   0.71080   0.00000  Uiso   1.00
C1685  C     0.82319   0.35706   0.71203   0.00000  Uiso   1.00
C1686  C     0.83558   0.64298   0.78930   0.00000  Uiso   1.00
C1687  C     0.83109   0.50012   0.66358   0.00000  Uiso   1.00
C1688  C     0.83479   0.50019   0.83646   0.00000  Uiso   1.00
C1689  C     0.86982   0.51807   0.90815   0.00000  Uiso   1.00
C1690  C     0.79195   0.50816   0.59197   0.00000  Uiso   1.00
C1691  C     0.83473   0.50165   0.88450   0.00000  Uiso   1.00
C1692  C     0.91324   0.49991   0.74846   0.00000  Uiso   1.00
C1693  C     0.82976   0.50125   0.61555   0.00000  Uiso   1.00
C1694  C     0.79728   0.49406   0.90530   0.00000  Uiso   1.00
C1695  C     0.86747   0.50288   0.59452   0.00000  Uiso   1.00
C1696  C     0.79425   0.50414   0.95104   0.00000  Uiso   1.00
C1697  C     0.86797   0.51522   0.54906   0.00000  Uiso   1.00
C1698  C     0.83114   0.51328   0.97649   0.00000  Uiso   1.00
C1699  C     0.83026   0.51330   0.52351   0.00000  Uiso   1.00
C1700  C     0.86879   0.52256   0.95515   0.00000  Uiso   1.00
C1701  C     0.79186   0.51114   0.54494   0.00000  Uiso   1.00
C1702  C     0.75569   0.50734   0.97215   0.00000  Uiso   1.00
C1703  C     0.75470   0.51273   0.51868   0.00000  Uiso   1.00
C1704  C     0.90376   0.53123   0.52835   0.00000  Uiso   1.00
C1705  C     0.92941   0.49718   0.87417   0.00000  Uiso   1.00
C1706  C     0.97024   0.51598   0.85847   0.00000  Uiso   1.00
C1707  C     0.74117   0.47186   0.62956   0.00000  Uiso   1.00
C1708  C     0.69411   0.47221   0.63197   0.00000  Uiso   1.00
C1709  C     0.88250   0.37474   0.84887   0.00000  Uiso   1.00
C1710  C     0.88167   0.38381   0.89906   0.00000  Uiso   1.00
C1711  C     0.85655   0.62930   0.64257   0.00000  Uiso   1.00
C1712  C     0.84169   0.62810   0.59361   0.00000  Uiso   1.00
C1713  C     0.75934   0.36626   0.67851   0.00000  Uiso   1.00
C1714  C     0.90342   0.53704   0.98199   0.00000  Uiso   1.00
C1715  C     0.74384   0.34722   0.63355   0.00000  Uiso   1.00
C1716  C     0.78991   0.62324   0.84192   0.00000  Uiso   1.00
C1717  C     0.78725   0.61852   0.89255   0.00000  Uiso   1.00
C1718  C     0.68878   0.46222   0.76478   0.00000  Uiso   1.00
C1719  C     0.97858   0.53692   0.72910   0.00000  Uiso   1.00
C1720  C     0.97941   0.46116   0.76209   0.00000  Uiso   1.00
C1721  C     0.68790   0.53672   0.72964   0.00000  Uiso   1.00
C1722  C     0.95753   0.49928   0.74601   0.00000  Uiso   1.00
H1723  H     0.91536   0.47683   0.84652   0.00000  Uiso   1.00
H1724  H     0.68277   0.50570   0.64196   0.00000  Uiso   1.00
H1725  H     0.77074   0.44514   0.86657   0.00000  Uiso   1.00
H1726  H     0.75485   0.49815   0.85335   0.00000  Uiso   1.00
H1727  H     0.92055   0.46572   0.59989   0.00000  Uiso   1.00
H1728  H     0.92173   0.51524   0.62988   0.00000  Uiso   1.00
H1729  H     0.71858   0.53263   0.92162   0.00000  Uiso   1.00
H1730  H     0.70946   0.47718   0.93482   0.00000  Uiso   1.00
H1731  H     0.93041   0.56879   0.57891   0.00000  Uiso   1.00
H1732  H     0.95694   0.52023   0.56588   0.00000  Uiso   1.00
H1733  H     0.70245   0.54900   0.52625   0.00000  Uiso   1.00
H1734  H     0.93591   0.47505   0.90371   0.00000  Uiso   1.00
H1735  H     0.69605   0.49278   0.52944   0.00000  Uiso   1.00
H1736  H     0.93002   0.58349   0.94121   0.00000  Uiso   1.00
H1737  H     0.95800   0.53423   0.95062   0.00000  Uiso   1.00
H1738  H     0.70445   0.39592   0.76873   0.00000  Uiso   1.00
H1739  H     0.70304   0.42289   0.81924   0.00000  Uiso   1.00
H1740  H     0.93545   0.56550   0.68646   0.00000  Uiso   1.00
H1741  H     0.94454   0.59404   0.73596   0.00000  Uiso   1.00
H1742  H     0.96645   0.39454   0.75801   0.00000  Uiso   1.00
H1743  H     0.96733   0.41588   0.81103   0.00000  Uiso   1.00
H1744  H     0.70182   0.60311   0.72776   0.00000  Uiso   1.00
H1745  H     0.98472   0.53850   0.88393   0.00000  Uiso   1.00
H1746  H     0.69975   0.57754   0.67685   0.00000  Uiso   1.00
H1747  H     0.90261   0.39995   0.83363   0.00000  Uiso   1.00
H1748  H     0.89627   0.34083   0.84416   0.00000  Uiso   1.00
H1749  H     0.86354   0.35746   0.91574   0.00000  Uiso   1.00
H1750  H     0.91369   0.38362   0.91367   0.00000  Uiso   1.00
H1751  H     0.86750   0.41695   0.90546   0.00000  Uiso   1.00
H1752  H     0.88007   0.60258   0.64800   0.00000  Uiso   1.00
H1753  H     0.87199   0.66233   0.64858   0.00000  Uiso   1.00
H1754  H     0.82159   0.65748   0.58602   0.00000  Uiso   1.00
H1755  H     0.86860   0.62919   0.57149   0.00000  Uiso   1.00
H1756  H     0.99209   0.48824   0.85204   0.00000  Uiso   1.00
H1757  H     0.82393   0.59702   0.58651   0.00000  Uiso   1.00
H1758  H     0.74143   0.39673   0.68613   0.00000  Uiso   1.00
H1759  H     0.75135   0.34169   0.70521   0.00000  Uiso   1.00
H1760  H     0.75443   0.64540   0.62983   0.00000  Uiso   1.00
H1761  H     0.70950   0.34747   0.63186   0.00000  Uiso   1.00
H1762  H     0.75542   0.36725   0.60531   0.00000  Uiso   1.00
H1763  H     0.77274   0.59510   0.82546   0.00000  Uiso   1.00
H1764  H     0.77401   0.65525   0.83226   0.00000  Uiso   1.00
H1765  H     0.79935   0.64923   0.90940   0.00000  Uiso   1.00
H1766  H     0.75455   0.61372   0.90162   0.00000  Uiso   1.00
H1767  H     0.96485   0.53611   0.82762   0.00000  Uiso   1.00
H1768  H     0.80568   0.58941   0.90465   0.00000  Uiso   1.00
H1769  H     0.75422   0.46596   0.66368   0.00000  Uiso   1.00
H1770  H     0.74991   0.44356   0.60737   0.00000  Uiso   1.00
H1771  H     0.67959   0.46334   0.59896   0.00000  Uiso   1.00
H1772  H     0.68408   0.44705   0.65679   0.00000  Uiso   1.00
N1773  N     0.83333   0.61907   0.75000   0.00000  Uiso   1.00
N1774  N     0.95782   0.57556   0.71035   0.00000  Uiso   1.00
N1775  N     0.95833   0.42204   0.77762   0.00000  Uiso   1.00
N1776  N     0.70946   0.57389   0.71046   0.00000  Uiso   1.00
N1777  N     0.83333   0.38093   0.75000   0.00000  Uiso   1.00
N1778  N     0.76257   0.47628   0.87974   0.00000  Uiso   1.00
N1779  N     0.90380   0.48802   0.61936   0.00000  Uiso   1.00
N1780  N     0.71690   0.50898   0.94735   0.00000  Uiso   1.00
N1781  N     0.93946   0.54715   0.55344   0.00000  Uiso   1.00
N1782  N     0.71554   0.51933   0.53889   0.00000  Uiso   1.00
N1783  N     0.93887   0.55845   0.96408   0.00000  Uiso   1.00
N1784  N     0.71132   0.42576   0.78579   0.00000  Uiso   1.00
O1785  O     0.77226   0.53821   0.74999   0.00000  Uiso   1.00
O1786  O     0.75555   0.51382   0.61470   0.00000  Uiso   1.00
O1787  O     0.84219   0.37922   0.82975   0.00000  Uiso   1.00
O1788  O     0.82279   0.62090   0.67045   0.00000  Uiso   1.00
O1789  O     0.80199   0.37776   0.67681   0.00000  Uiso   1.00
O1790  O     0.83193   0.62174   0.83001   0.00000  Uiso   1.00
O1791  O     0.89441   0.46179   0.75000   0.00000  Uiso   1.00
O1792  O     0.89441   0.53821   0.75000   0.00000  Uiso   1.00
O1793  O     0.77226   0.46179   0.74999   0.00000  Uiso   1.00
O1794  O     0.83333   0.53823   0.68392   0.00000  Uiso   1.00
O1795  O     0.83334   0.46177   0.81607   0.00000  Uiso   1.00
O1796  O     0.83334   0.53823   0.81607   0.00000  Uiso   1.00
O1797  O     0.83333   0.46177   0.68392   0.00000  Uiso   1.00
O1798  O     0.90324   0.53334   0.88463   0.00000  Uiso   1.00
Zn1799 Zn    0.83333   0.55104   0.75000   0.00000  Uiso   1.00
Zn1800 Zn    0.83333   0.44896   0.75000   0.00000  Uiso   1.00
C1801  C     0.08685   0.83337   0.74990   0.00000  Uiso   1.00
C1802  C     0.04274   0.83321   0.74839   0.00000  Uiso   1.00
C1803  C     0.17310   0.69049   0.78905   0.00000  Uiso   1.00
C1804  C     0.16218   0.97630   0.71080   0.00000  Uiso   1.00
C1805  C     0.15652   0.69039   0.71203   0.00000  Uiso   1.00
C1806  C     0.16892   0.97632   0.78930   0.00000  Uiso   1.00
C1807  C     0.16442   0.83345   0.66358   0.00000  Uiso   1.00
C1808  C     0.16813   0.83353   0.83646   0.00000  Uiso   1.00
C1809  C     0.20316   0.85140   0.90815   0.00000  Uiso   1.00
C1810  C     0.12528   0.84149   0.59197   0.00000  Uiso   1.00
C1811  C     0.16806   0.83498   0.88450   0.00000  Uiso   1.00
C1812  C     0.24657   0.83324   0.74846   0.00000  Uiso   1.00
C1813  C     0.16310   0.83458   0.61555   0.00000  Uiso   1.00
C1814  C     0.13061   0.82740   0.90530   0.00000  Uiso   1.00
C1815  C     0.20081   0.83621   0.59452   0.00000  Uiso   1.00
C1816  C     0.12758   0.83747   0.95104   0.00000  Uiso   1.00
C1817  C     0.20130   0.84855   0.54906   0.00000  Uiso   1.00
C1818  C     0.16448   0.84661   0.97649   0.00000  Uiso   1.00
C1819  C     0.16359   0.84663   0.52351   0.00000  Uiso   1.00
C1820  C     0.20212   0.85589   0.95515   0.00000  Uiso   1.00
C1821  C     0.12519   0.84447   0.54494   0.00000  Uiso   1.00
C1822  C     0.08903   0.84067   0.97215   0.00000  Uiso   1.00
C1823  C     0.08804   0.84607   0.51868   0.00000  Uiso   1.00
C1824  C     0.23709   0.86456   0.52835   0.00000  Uiso   1.00
C1825  C     0.26274   0.83051   0.87417   0.00000  Uiso   1.00
C1826  C     0.30358   0.84931   0.85847   0.00000  Uiso   1.00
C1827  C     0.07450   0.80519   0.62956   0.00000  Uiso   1.00
C1828  C     0.02745   0.80554   0.63197   0.00000  Uiso   1.00
C1829  C     0.21584   0.70808   0.84887   0.00000  Uiso   1.00
C1830  C     0.21501   0.71714   0.89906   0.00000  Uiso   1.00
C1831  C     0.18988   0.96264   0.64257   0.00000  Uiso   1.00
C1832  C     0.17502   0.96144   0.59361   0.00000  Uiso   1.00
C1833  C     0.09267   0.69959   0.67851   0.00000  Uiso   1.00
C1834  C     0.23675   0.87037   0.98199   0.00000  Uiso   1.00
C1835  C     0.07717   0.68055   0.63355   0.00000  Uiso   1.00
C1836  C     0.12324   0.95658   0.84192   0.00000  Uiso   1.00
C1837  C     0.12058   0.95186   0.89255   0.00000  Uiso   1.00
C1838  C     0.02211   0.79555   0.76478   0.00000  Uiso   1.00
C1839  C     0.31191   0.87025   0.72910   0.00000  Uiso   1.00
C1840  C     0.31274   0.79450   0.76209   0.00000  Uiso   1.00
C1841  C     0.02123   0.87006   0.72964   0.00000  Uiso   1.00
C1842  C     0.29086   0.83262   0.74601   0.00000  Uiso   1.00
H1843  H     0.24869   0.81016   0.84652   0.00000  Uiso   1.00
H1844  H     0.01610   0.83903   0.64196   0.00000  Uiso   1.00
H1845  H     0.10408   0.77847   0.86657   0.00000  Uiso   1.00
H1846  H     0.08818   0.83148   0.85335   0.00000  Uiso   1.00
H1847  H     0.25389   0.79905   0.59989   0.00000  Uiso   1.00
H1848  H     0.25506   0.84858   0.62988   0.00000  Uiso   1.00
H1849  H     0.05191   0.86597   0.92162   0.00000  Uiso   1.00
H1850  H     0.04279   0.81051   0.93482   0.00000  Uiso   1.00
H1851  H     0.26374   0.90213   0.57891   0.00000  Uiso   1.00
H1852  H     0.29028   0.85356   0.56588   0.00000  Uiso   1.00
H1853  H     0.03578   0.88234   0.52625   0.00000  Uiso   1.00
H1854  H     0.26925   0.80839   0.90371   0.00000  Uiso   1.00
H1855  H     0.02938   0.82611   0.52944   0.00000  Uiso   1.00
H1856  H     0.26336   0.91682   0.94121   0.00000  Uiso   1.00
H1857  H     0.29133   0.86757   0.95062   0.00000  Uiso   1.00
H1858  H     0.03779   0.72925   0.76873   0.00000  Uiso   1.00
H1859  H     0.03638   0.75622   0.81924   0.00000  Uiso   1.00
H1860  H     0.26878   0.89883   0.68646   0.00000  Uiso   1.00
H1861  H     0.27787   0.92737   0.73596   0.00000  Uiso   1.00
H1862  H     0.29979   0.72787   0.75801   0.00000  Uiso   1.00
H1863  H     0.30067   0.74922   0.81103   0.00000  Uiso   1.00
H1864  H     0.03515   0.93645   0.72776   0.00000  Uiso   1.00
H1865  H     0.31806   0.87184   0.88393   0.00000  Uiso   1.00
H1866  H     0.03308   0.91088   0.67685   0.00000  Uiso   1.00
H1867  H     0.23595   0.73329   0.83363   0.00000  Uiso   1.00
H1868  H     0.22961   0.67416   0.84416   0.00000  Uiso   1.00
H1869  H     0.19687   0.69080   0.91574   0.00000  Uiso   1.00
H1870  H     0.24703   0.71695   0.91367   0.00000  Uiso   1.00
H1871  H     0.20083   0.75029   0.90546   0.00000  Uiso   1.00
H1872  H     0.21340   0.93591   0.64800   0.00000  Uiso   1.00
H1873  H     0.20532   0.99566   0.64858   0.00000  Uiso   1.00
H1874  H     0.15492   0.99082   0.58602   0.00000  Uiso   1.00
H1875  H     0.20193   0.96253   0.57149   0.00000  Uiso   1.00
H1876  H     0.32542   0.82157   0.85204   0.00000  Uiso   1.00
H1877  H     0.15726   0.93035   0.58651   0.00000  Uiso   1.00
H1878  H     0.07476   0.73006   0.68613   0.00000  Uiso   1.00
H1879  H     0.08468   0.67503   0.70521   0.00000  Uiso   1.00
H1880  H     0.08776   0.97873   0.62983   0.00000  Uiso   1.00
H1881  H     0.04284   0.68081   0.63186   0.00000  Uiso   1.00
H1882  H     0.08876   0.70058   0.60531   0.00000  Uiso   1.00
H1883  H     0.10608   0.92843   0.82546   0.00000  Uiso   1.00
H1884  H     0.10734   0.98858   0.83226   0.00000  Uiso   1.00
H1885  H     0.13268   0.98256   0.90940   0.00000  Uiso   1.00
H1886  H     0.08788   0.94705   0.90162   0.00000  Uiso   1.00
H1887  H     0.29818   0.86944   0.82762   0.00000  Uiso   1.00
H1888  H     0.13902   0.92275   0.90465   0.00000  Uiso   1.00
H1889  H     0.08756   0.79929   0.66368   0.00000  Uiso   1.00
H1890  H     0.08324   0.77690   0.60737   0.00000  Uiso   1.00
H1891  H     0.01293   0.79667   0.59896   0.00000  Uiso   1.00
H1892  H     0.01741   0.78038   0.65679   0.00000  Uiso   1.00
N1893  N     0.16667   0.95240   0.75000   0.00000  Uiso   1.00
N1894  N     0.29116   0.90890   0.71035   0.00000  Uiso   1.00
N1895  N     0.29167   0.75538   0.77762   0.00000  Uiso   1.00
N1896  N     0.04279   0.90723   0.71046   0.00000  Uiso   1.00
N1897  N     0.16667   0.71427   0.75000   0.00000  Uiso   1.00
N1898  N     0.09590   0.80962   0.87974   0.00000  Uiso   1.00
N1899  N     0.23713   0.82135   0.61936   0.00000  Uiso   1.00
N1900  N     0.05023   0.84231   0.94735   0.00000  Uiso   1.00
N1901  N     0.27279   0.88048   0.55344   0.00000  Uiso   1.00
N1902  N     0.04887   0.85267   0.53889   0.00000  Uiso   1.00
N1903  N     0.27220   0.89178   0.96408   0.00000  Uiso   1.00
N1904  N     0.04466   0.75910   0.78579   0.00000  Uiso   1.00
O1905  O     0.10559   0.87154   0.74999   0.00000  Uiso   1.00
O1906  O     0.08888   0.84715   0.61470   0.00000  Uiso   1.00
O1907  O     0.17552   0.71255   0.82975   0.00000  Uiso   1.00
O1908  O     0.15612   0.95424   0.67045   0.00000  Uiso   1.00
O1909  O     0.13533   0.71109   0.67681   0.00000  Uiso   1.00
O1910  O     0.16527   0.95507   0.83001   0.00000  Uiso   1.00
O1911  O     0.22774   0.79513   0.75000   0.00000  Uiso   1.00
O1912  O     0.22774   0.87154   0.75000   0.00000  Uiso   1.00
O1913  O     0.10559   0.79513   0.74999   0.00000  Uiso   1.00
O1914  O     0.16666   0.87156   0.68392   0.00000  Uiso   1.00
O1915  O     0.16667   0.79511   0.81607   0.00000  Uiso   1.00
O1916  O     0.16667   0.87156   0.81607   0.00000  Uiso   1.00
O1917  O     0.16666   0.79511   0.68392   0.00000  Uiso   1.00
O1918  O     0.23657   0.86667   0.88463   0.00000  Uiso   1.00
Zn1919 Zn    0.16667   0.88437   0.75000   0.00000  Uiso   1.00
Zn1920 Zn    0.16667   0.78229   0.75000   0.00000  Uiso   1.00
C1921  C     0.42018   0.83337   0.74990   0.00000  Uiso   1.00
C1922  C     0.37607   0.83321   0.74839   0.00000  Uiso   1.00
C1923  C     0.50644   0.69049   0.78905   0.00000  Uiso   1.00
C1924  C     0.49552   0.97630   0.71080   0.00000  Uiso   1.00
C1925  C     0.48986   0.69039   0.71203   0.00000  Uiso   1.00
C1926  C     0.50225   0.97632   0.78930   0.00000  Uiso   1.00
C1927  C     0.49776   0.83345   0.66358   0.00000  Uiso   1.00
C1928  C     0.50146   0.83353   0.83646   0.00000  Uiso   1.00
C1929  C     0.53649   0.85140   0.90815   0.00000  Uiso   1.00
C1930  C     0.45861   0.84149   0.59197   0.00000  Uiso   1.00
C1931  C     0.50139   0.83498   0.88450   0.00000  Uiso   1.00
C1932  C     0.57991   0.83324   0.74846   0.00000  Uiso   1.00
C1933  C     0.49643   0.83458   0.61555   0.00000  Uiso   1.00
C1934  C     0.46394   0.82740   0.90530   0.00000  Uiso   1.00
C1935  C     0.53414   0.83621   0.59452   0.00000  Uiso   1.00
C1936  C     0.46091   0.83747   0.95104   0.00000  Uiso   1.00
C1937  C     0.53463   0.84855   0.54906   0.00000  Uiso   1.00
C1938  C     0.49781   0.84661   0.97649   0.00000  Uiso   1.00
C1939  C     0.49693   0.84663   0.52351   0.00000  Uiso   1.00
C1940  C     0.53546   0.85589   0.95515   0.00000  Uiso   1.00
C1941  C     0.45852   0.84447   0.54494   0.00000  Uiso   1.00
C1942  C     0.42236   0.84067   0.97215   0.00000  Uiso   1.00
C1943  C     0.42137   0.84607   0.51868   0.00000  Uiso   1.00
C1944  C     0.57042   0.86456   0.52835   0.00000  Uiso   1.00
C1945  C     0.59607   0.83051   0.87417   0.00000  Uiso   1.00
C1946  C     0.63691   0.84931   0.85847   0.00000  Uiso   1.00
C1947  C     0.40783   0.80519   0.62956   0.00000  Uiso   1.00
C1948  C     0.36078   0.80554   0.63197   0.00000  Uiso   1.00
C1949  C     0.54917   0.70808   0.84887   0.00000  Uiso   1.00
C1950  C     0.54834   0.71714   0.89906   0.00000  Uiso   1.00
C1951  C     0.52322   0.96264   0.64257   0.00000  Uiso   1.00
C1952  C     0.50836   0.96144   0.59361   0.00000  Uiso   1.00
C1953  C     0.42601   0.69959   0.67851   0.00000  Uiso   1.00
C1954  C     0.57009   0.87037   0.98199   0.00000  Uiso   1.00
C1955  C     0.41050   0.68055   0.63355   0.00000  Uiso   1.00
C1956  C     0.45658   0.95658   0.84192   0.00000  Uiso   1.00
C1957  C     0.45391   0.95186   0.89255   0.00000  Uiso   1.00
C1958  C     0.35544   0.79555   0.76478   0.00000  Uiso   1.00
C1959  C     0.64525   0.87025   0.72910   0.00000  Uiso   1.00
C1960  C     0.64607   0.79450   0.76209   0.00000  Uiso   1.00
C1961  C     0.35456   0.87006   0.72964   0.00000  Uiso   1.00
C1962  C     0.62420   0.83262   0.74601   0.00000  Uiso   1.00
H1963  H     0.58202   0.81016   0.84652   0.00000  Uiso   1.00
H1964  H     0.34943   0.83903   0.64196   0.00000  Uiso   1.00
H1965  H     0.43741   0.77847   0.86657   0.00000  Uiso   1.00
H1966  H     0.42151   0.83148   0.85335   0.00000  Uiso   1.00
H1967  H     0.58722   0.79905   0.59989   0.00000  Uiso   1.00
H1968  H     0.58840   0.84858   0.62988   0.00000  Uiso   1.00
H1969  H     0.38524   0.86597   0.92162   0.00000  Uiso   1.00
H1970  H     0.37612   0.81051   0.93482   0.00000  Uiso   1.00
H1971  H     0.59707   0.90213   0.57891   0.00000  Uiso   1.00
H1972  H     0.62361   0.85356   0.56588   0.00000  Uiso   1.00
H1973  H     0.36912   0.88234   0.52625   0.00000  Uiso   1.00
H1974  H     0.60258   0.80839   0.90371   0.00000  Uiso   1.00
H1975  H     0.36271   0.82611   0.52944   0.00000  Uiso   1.00
H1976  H     0.59669   0.91682   0.94121   0.00000  Uiso   1.00
H1977  H     0.62466   0.86757   0.95062   0.00000  Uiso   1.00
H1978  H     0.37112   0.72925   0.76873   0.00000  Uiso   1.00
H1979  H     0.36971   0.75622   0.81924   0.00000  Uiso   1.00
H1980  H     0.60211   0.89883   0.68646   0.00000  Uiso   1.00
H1981  H     0.61120   0.92737   0.73596   0.00000  Uiso   1.00
H1982  H     0.63312   0.72787   0.75801   0.00000  Uiso   1.00
H1983  H     0.63400   0.74922   0.81103   0.00000  Uiso   1.00
H1984  H     0.36849   0.93645   0.72776   0.00000  Uiso   1.00
H1985  H     0.65139   0.87184   0.88393   0.00000  Uiso   1.00
H1986  H     0.36642   0.91088   0.67685   0.00000  Uiso   1.00
H1987  H     0.56928   0.73329   0.83363   0.00000  Uiso   1.00
H1988  H     0.56294   0.67416   0.84416   0.00000  Uiso   1.00
H1989  H     0.53020   0.69080   0.91574   0.00000  Uiso   1.00
H1990  H     0.58036   0.71695   0.91367   0.00000  Uiso   1.00
H1991  H     0.53417   0.75029   0.90546   0.00000  Uiso   1.00
H1992  H     0.54673   0.93591   0.64800   0.00000  Uiso   1.00
H1993  H     0.53866   0.99566   0.64858   0.00000  Uiso   1.00
H1994  H     0.48826   0.99082   0.58602   0.00000  Uiso   1.00
H1995  H     0.53527   0.96253   0.57149   0.00000  Uiso   1.00
H1996  H     0.65876   0.82157   0.85204   0.00000  Uiso   1.00
H1997  H     0.49059   0.93035   0.58651   0.00000  Uiso   1.00
H1998  H     0.40810   0.73006   0.68613   0.00000  Uiso   1.00
H1999  H     0.41802   0.67503   0.70521   0.00000  Uiso   1.00
H2000  H     0.42109   0.97873   0.62983   0.00000  Uiso   1.00
H2001  H     0.37617   0.68081   0.63186   0.00000  Uiso   1.00
H2002  H     0.42209   0.70058   0.60531   0.00000  Uiso   1.00
H2003  H     0.43941   0.92843   0.82546   0.00000  Uiso   1.00
H2004  H     0.44067   0.98858   0.83226   0.00000  Uiso   1.00
H2005  H     0.46602   0.98256   0.90940   0.00000  Uiso   1.00
H2006  H     0.42121   0.94705   0.90162   0.00000  Uiso   1.00
H2007  H     0.63152   0.86944   0.82762   0.00000  Uiso   1.00
H2008  H     0.47235   0.92275   0.90465   0.00000  Uiso   1.00
H2009  H     0.42089   0.79929   0.66368   0.00000  Uiso   1.00
H2010  H     0.41657   0.77690   0.60737   0.00000  Uiso   1.00
H2011  H     0.34626   0.79667   0.59896   0.00000  Uiso   1.00
H2012  H     0.35074   0.78038   0.65679   0.00000  Uiso   1.00
N2013  N     0.50000   0.95240   0.75000   0.00000  Uiso   1.00
N2014  N     0.62449   0.90890   0.71035   0.00000  Uiso   1.00
N2015  N     0.62500   0.75538   0.77762   0.00000  Uiso   1.00
N2016  N     0.37612   0.90723   0.71046   0.00000  Uiso   1.00
N2017  N     0.50000   0.71427   0.75000   0.00000  Uiso   1.00
N2018  N     0.42923   0.80962   0.87974   0.00000  Uiso   1.00
N2019  N     0.57047   0.82135   0.61936   0.00000  Uiso   1.00
N2020  N     0.38357   0.84231   0.94735   0.00000  Uiso   1.00
N2021  N     0.60612   0.88048   0.55344   0.00000  Uiso   1.00
N2022  N     0.38221   0.85267   0.53889   0.00000  Uiso   1.00
N2023  N     0.60553   0.89178   0.96408   0.00000  Uiso   1.00
N2024  N     0.37799   0.75910   0.78579   0.00000  Uiso   1.00
O2025  O     0.43892   0.87154   0.74999   0.00000  Uiso   1.00
O2026  O     0.42221   0.84715   0.61470   0.00000  Uiso   1.00
O2027  O     0.50886   0.71255   0.82975   0.00000  Uiso   1.00
O2028  O     0.48945   0.95424   0.67045   0.00000  Uiso   1.00
O2029  O     0.46866   0.71109   0.67681   0.00000  Uiso   1.00
O2030  O     0.49860   0.95507   0.83001   0.00000  Uiso   1.00
O2031  O     0.56108   0.79513   0.75000   0.00000  Uiso   1.00
O2032  O     0.56108   0.87154   0.75000   0.00000  Uiso   1.00
O2033  O     0.43892   0.79513   0.74999   0.00000  Uiso   1.00
O2034  O     0.49999   0.87156   0.68392   0.00000  Uiso   1.00
O2035  O     0.50001   0.79511   0.81607   0.00000  Uiso   1.00
O2036  O     0.50001   0.87156   0.81607   0.00000  Uiso   1.00
O2037  O     0.49999   0.79511   0.68392   0.00000  Uiso   1.00
O2038  O     0.56991   0.86667   0.88463   0.00000  Uiso   1.00
Zn2039 Zn    0.50000   0.88437   0.75000   0.00000  Uiso   1.00
Zn2040 Zn    0.50000   0.78229   0.75000   0.00000  Uiso   1.00
C2041  C     0.75351   0.83337   0.74990   0.00000  Uiso   1.00
C2042  C     0.70940   0.83321   0.74839   0.00000  Uiso   1.00
C2043  C     0.83977   0.69049   0.78905   0.00000  Uiso   1.00
C2044  C     0.82885   0.97630   0.71080   0.00000  Uiso   1.00
C2045  C     0.82319   0.69039   0.71203   0.00000  Uiso   1.00
C2046  C     0.83558   0.97632   0.78930   0.00000  Uiso   1.00
C2047  C     0.83109   0.83345   0.66358   0.00000  Uiso   1.00
C2048  C     0.83479   0.83353   0.83646   0.00000  Uiso   1.00
C2049  C     0.86982   0.85140   0.90815   0.00000  Uiso   1.00
C2050  C     0.79195   0.84149   0.59197   0.00000  Uiso   1.00
C2051  C     0.83473   0.83498   0.88450   0.00000  Uiso   1.00
C2052  C     0.91324   0.83324   0.74846   0.00000  Uiso   1.00
C2053  C     0.82976   0.83458   0.61555   0.00000  Uiso   1.00
C2054  C     0.79728   0.82740   0.90530   0.00000  Uiso   1.00
C2055  C     0.86747   0.83621   0.59452   0.00000  Uiso   1.00
C2056  C     0.79425   0.83747   0.95104   0.00000  Uiso   1.00
C2057  C     0.86797   0.84855   0.54906   0.00000  Uiso   1.00
C2058  C     0.83114   0.84661   0.97649   0.00000  Uiso   1.00
C2059  C     0.83026   0.84663   0.52351   0.00000  Uiso   1.00
C2060  C     0.86879   0.85589   0.95515   0.00000  Uiso   1.00
C2061  C     0.79186   0.84447   0.54494   0.00000  Uiso   1.00
C2062  C     0.75569   0.84067   0.97215   0.00000  Uiso   1.00
C2063  C     0.75470   0.84607   0.51868   0.00000  Uiso   1.00
C2064  C     0.90376   0.86456   0.52835   0.00000  Uiso   1.00
C2065  C     0.92941   0.83051   0.87417   0.00000  Uiso   1.00
C2066  C     0.97024   0.84931   0.85847   0.00000  Uiso   1.00
C2067  C     0.74117   0.80519   0.62956   0.00000  Uiso   1.00
C2068  C     0.69411   0.80554   0.63197   0.00000  Uiso   1.00
C2069  C     0.88250   0.70808   0.84887   0.00000  Uiso   1.00
C2070  C     0.88167   0.71714   0.89906   0.00000  Uiso   1.00
C2071  C     0.85655   0.96264   0.64257   0.00000  Uiso   1.00
C2072  C     0.84169   0.96144   0.59361   0.00000  Uiso   1.00
C2073  C     0.75934   0.69959   0.67851   0.00000  Uiso   1.00
C2074  C     0.90342   0.87037   0.98199   0.00000  Uiso   1.00
C2075  C     0.74384   0.68055   0.63355   0.00000  Uiso   1.00
C2076  C     0.78991   0.95658   0.84192   0.00000  Uiso   1.00
C2077  C     0.78725   0.95186   0.89255   0.00000  Uiso   1.00
C2078  C     0.68878   0.79555   0.76478   0.00000  Uiso   1.00
C2079  C     0.97858   0.87025   0.72910   0.00000  Uiso   1.00
C2080  C     0.97941   0.79450   0.76209   0.00000  Uiso   1.00
C2081  C     0.68790   0.87006   0.72964   0.00000  Uiso   1.00
C2082  C     0.95753   0.83262   0.74601   0.00000  Uiso   1.00
H2083  H     0.91536   0.81016   0.84652   0.00000  Uiso   1.00
H2084  H     0.68277   0.83903   0.64196   0.00000  Uiso   1.00
H2085  H     0.77074   0.77847   0.86657   0.00000  Uiso   1.00
H2086  H     0.75485   0.83148   0.85335   0.00000  Uiso   1.00
H2087  H     0.92055   0.79905   0.59989   0.00000  Uiso   1.00
H2088  H     0.92173   0.84858   0.62988   0.00000  Uiso   1.00
H2089  H     0.71858   0.86597   0.92162   0.00000  Uiso   1.00
H2090  H     0.70946   0.81051   0.93482   0.00000  Uiso   1.00
H2091  H     0.93041   0.90213   0.57891   0.00000  Uiso   1.00
H2092  H     0.95694   0.85356   0.56588   0.00000  Uiso   1.00
H2093  H     0.70245   0.88234   0.52625   0.00000  Uiso   1.00
H2094  H     0.93591   0.80839   0.90371   0.00000  Uiso   1.00
H2095  H     0.69605   0.82611   0.52944   0.00000  Uiso   1.00
H2096  H     0.93002   0.91682   0.94121   0.00000  Uiso   1.00
H2097  H     0.95800   0.86757   0.95062   0.00000  Uiso   1.00
H2098  H     0.70445   0.72925   0.76873   0.00000  Uiso   1.00
H2099  H     0.70304   0.75622   0.81924   0.00000  Uiso   1.00
H2100  H     0.93545   0.89883   0.68646   0.00000  Uiso   1.00
H2101  H     0.94454   0.92737   0.73596   0.00000  Uiso   1.00
H2102  H     0.96645   0.72787   0.75801   0.00000  Uiso   1.00
H2103  H     0.96733   0.74922   0.81103   0.00000  Uiso   1.00
H2104  H     0.70182   0.93645   0.72776   0.00000  Uiso   1.00
H2105  H     0.98472   0.87184   0.88393   0.00000  Uiso   1.00
H2106  H     0.69975   0.91088   0.67685   0.00000  Uiso   1.00
H2107  H     0.90261   0.73329   0.83363   0.00000  Uiso   1.00
H2108  H     0.89627   0.67416   0.84416   0.00000  Uiso   1.00
H2109  H     0.86354   0.69080   0.91574   0.00000  Uiso   1.00
H2110  H     0.91369   0.71695   0.91367   0.00000  Uiso   1.00
H2111  H     0.86750   0.75029   0.90546   0.00000  Uiso   1.00
H2112  H     0.88007   0.93591   0.64800   0.00000  Uiso   1.00
H2113  H     0.87199   0.99566   0.64858   0.00000  Uiso   1.00
H2114  H     0.82159   0.99082   0.58602   0.00000  Uiso   1.00
H2115  H     0.86860   0.96253   0.57149   0.00000  Uiso   1.00
H2116  H     0.99209   0.82157   0.85204   0.00000  Uiso   1.00
H2117  H     0.82393   0.93035   0.58651   0.00000  Uiso   1.00
H2118  H     0.74143   0.73006   0.68613   0.00000  Uiso   1.00
H2119  H     0.75135   0.67503   0.70521   0.00000  Uiso   1.00
H2120  H     0.75443   0.97873   0.62983   0.00000  Uiso   1.00
H2121  H     0.70950   0.68081   0.63186   0.00000  Uiso   1.00
H2122  H     0.75542   0.70058   0.60531   0.00000  Uiso   1.00
H2123  H     0.77274   0.92843   0.82546   0.00000  Uiso   1.00
H2124  H     0.77401   0.98858   0.83226   0.00000  Uiso   1.00
H2125  H     0.79935   0.98256   0.90940   0.00000  Uiso   1.00
H2126  H     0.75455   0.94705   0.90162   0.00000  Uiso   1.00
H2127  H     0.96485   0.86944   0.82762   0.00000  Uiso   1.00
H2128  H     0.80568   0.92275   0.90465   0.00000  Uiso   1.00
H2129  H     0.75422   0.79929   0.66368   0.00000  Uiso   1.00
H2130  H     0.74991   0.77690   0.60737   0.00000  Uiso   1.00
H2131  H     0.67959   0.79667   0.59896   0.00000  Uiso   1.00
H2132  H     0.68408   0.78038   0.65679   0.00000  Uiso   1.00
N2133  N     0.83333   0.95240   0.75000   0.00000  Uiso   1.00
N2134  N     0.95782   0.90890   0.71035   0.00000  Uiso   1.00
N2135  N     0.95833   0.75538   0.77762   0.00000  Uiso   1.00
N2136  N     0.70946   0.90723   0.71046   0.00000  Uiso   1.00
N2137  N     0.83333   0.71427   0.75000   0.00000  Uiso   1.00
N2138  N     0.76257   0.80962   0.87974   0.00000  Uiso   1.00
N2139  N     0.90380   0.82135   0.61936   0.00000  Uiso   1.00
N2140  N     0.71690   0.84231   0.94735   0.00000  Uiso   1.00
N2141  N     0.93946   0.88048   0.55344   0.00000  Uiso   1.00
N2142  N     0.71554   0.85267   0.53889   0.00000  Uiso   1.00
N2143  N     0.93887   0.89178   0.96408   0.00000  Uiso   1.00
N2144  N     0.71132   0.75910   0.78579   0.00000  Uiso   1.00
O2145  O     0.77226   0.87154   0.74999   0.00000  Uiso   1.00
O2146  O     0.75555   0.84715   0.61470   0.00000  Uiso   1.00
O2147  O     0.84219   0.71255   0.82975   0.00000  Uiso   1.00
O2148  O     0.82279   0.95424   0.67045   0.00000  Uiso   1.00
O2149  O     0.80199   0.71109   0.67681   0.00000  Uiso   1.00
O2150  O     0.83193   0.95507   0.83001   0.00000  Uiso   1.00
O2151  O     0.89441   0.79513   0.75000   0.00000  Uiso   1.00
O2152  O     0.89441   0.87154   0.75000   0.00000  Uiso   1.00
O2153  O     0.77226   0.79513   0.74999   0.00000  Uiso   1.00
O2154  O     0.83333   0.87156   0.68392   0.00000  Uiso   1.00
O2155  O     0.83334   0.79511   0.81607   0.00000  Uiso   1.00
O2156  O     0.83334   0.87156   0.81607   0.00000  Uiso   1.00
O2157  O     0.83333   0.79511   0.68392   0.00000  Uiso   1.00
O2158  O     0.90324   0.86667   0.88463   0.00000  Uiso   1.00
Zn2159 Zn    0.83333   0.88437   0.75000   0.00000  Uiso   1.00
Zn2160 Zn    0.83333   0.78229   0.75000   0.00000  Uiso   1.00
loop_
_geom_bond_atom_site_label_1
_geom_bond_atom_site_label_2
_geom_bond_distance
_geom_bond_site_symmetry_2
_ccdc_geom_bond_type
C1     C2      1.427   .     S
C1     O113    1.291   .     A
C1     O105    1.290   .     A
C2     C41     1.406   .     A
C2     C38     1.404   .     A
C3     O107    1.379   .     S
C3     N97     1.373   .     A
C3     C726    1.424   1_545 S
C4     O108    1.379   .     S
C4     N93     1.372   .     A
C4     C365    1.427   .     S
C5     N97     1.367   .     A
C5     O109    1.380   .     S
C5     C724    1.427   1_545 S
C6     O110    1.378   .     S
C6     N93     1.371   .     A
C6     C363    1.424   .     S
C7     O117    1.296   .     A
C7     O114    1.289   .     A
C7     C13     1.431   .     S
C8     O115    1.297   .     A
C8     C11     1.433   .     S
C8     O116    1.287   .     A
C9     O118    1.386   .     S
C9     C20     1.409   .     A
C9     C11     1.405   .     A
C10    C21     1.405   .     A
C10    O106    1.389   .     S
C10    C13     1.406   .     A
C11    C14     1.398   .     A
C12    C42     1.438   .     S
C12    O112    1.296   .     A
C12    O111    1.292   .     A
C13    C15     1.392   .     A
C14    N98     1.437   .     S
C14    C16     1.403   .     A
C15    C17     1.405   .     A
C15    N99     1.438   .     S
C16    C22     1.419   .     A
C16    C18     1.419   .     A
C17    C19     1.418   .     A
C17    C24     1.414   .     A
C18    C20     1.421   .     A
C18    C1099   1.403   .     S
C19    C21     1.418   .     A
C19    C1098   1.403   1_554 S
C20    C34     1.422   .     A
C21    C23     1.413   .     A
C22    N100    1.436   .     S
C22    C1103   1.397   .     S
C23    N102    1.435   .     S
C23    C1102   1.397   1_554 S
C24    N101    1.436   .     S
C24    C1114   1.392   1_554 S
C25    O118    1.412   .     S
C25    H43     1.108   .     S
C25    H54     1.115   .     S
C25    C26     1.524   .     S
C26    H87     1.107   .     S
C26    H76     1.109   .     S
C26    H65     1.106   .     S
C27    H90     1.114   .     S
C27    O106    1.412   .     S
C27    H89     1.102   .     S
C27    C28     1.527   .     S
C28    H44     1.108   .     S
C28    H92     1.110   .     S
C28    H91     1.108   .     S
C29    H68     1.115   .     S
C29    H67     1.103   .     S
C29    C30     1.521   .     S
C29    O107    1.412   .     S
C30    H71     1.108   .     S
C30    H70     1.110   .     S
C30    H69     1.109   .     S
C31    O108    1.418   .     S
C31    H73     1.117   .     S
C31    C32     1.521   .     S
C31    H72     1.109   .     S
C32    H75     1.110   .     S
C32    H74     1.110   .     S
C32    H77     1.108   .     S
C33    H78     1.105   .     S
C33    H79     1.119   .     S
C33    C35     1.525   .     S
C33    O109    1.425   .     S
C34    N103    1.433   .     S
C34    C1104   1.392   .     S
C35    H81     1.111   .     S
C35    H82     1.108   .     S
C35    H800    1.109   1_545 S
C36    H83     1.112   .     S
C36    C37     1.521   .     S
C36    O110    1.418   .     S
C36    H84     1.117   .     S
C37    H88     1.107   .     S
C37    H85     1.109   .     S
C37    H86     1.110   .     S
C38    N104    1.440   .     S
C38    C280    1.382   1_455 S
C39    C42     1.416   .     A
C39    N94     1.437   .     S
C39    C161    1.380   .     S
C40    C42     1.414   .     A
C40    N95     1.437   .     S
C40    C158    1.382   .     S
C41    N96     1.440   .     S
C41    C279    1.380   1_455 S
H45    N98     1.045   .     S
H46    N98     1.046   .     S
H47    N99     1.045   .     S
H48    N99     1.041   .     S
H49    N100    1.045   .     S
H50    N100    1.044   .     S
H51    N101    1.045   .     S
H52    N101    1.043   .     S
H53    N102    1.046   .     S
H55    N102    1.045   .     S
H56    N103    1.045   .     S
H57    N103    1.040   .     S
H58    N104    1.045   .     S
H59    N104    1.045   .     S
H60    N94     1.043   .     S
H61    N94     1.045   .     S
H62    N95     1.045   .     S
H63    N95     1.044   .     S
H64    N96     1.046   .     S
H66    N96     1.045   .     S
H80    C395    1.109   .     S
N93    Zn119   2.029   .     S
N97    Zn120   2.029   .     S
O105   Zn119   2.014   .     S
O111   Zn120   2.014   .     S
O112   Zn119   2.013   .     S
O113   Zn120   2.013   .     S
O114   Zn119   2.006   .     S
O115   Zn120   2.006   .     S
O116   Zn119   2.006   .     S
O117   Zn120   2.006   .     S
C121   C122    1.427   .     S
C121   O233    1.291   .     A
C121   O225    1.290   .     A
C122   C161    1.406   .     A
C122   C158    1.404   .     A
C123   O227    1.379   .     S
C123   N217    1.373   .     A
C123   C846    1.424   1_545 S
C124   O228    1.379   .     S
C124   N213    1.372   .     A
C124   C485    1.427   .     S
C125   N217    1.367   .     A
C125   O229    1.380   .     S
C125   C844    1.427   1_545 S
C126   O230    1.378   .     S
C126   N213    1.371   .     A
C126   C483    1.424   .     S
C127   O237    1.296   .     A
C127   O234    1.289   .     A
C127   C133    1.431   .     S
C128   O235    1.297   .     A
C128   C131    1.433   .     S
C128   O236    1.287   .     A
C129   O238    1.386   .     S
C129   C140    1.409   .     A
C129   C131    1.405   .     A
C130   C141    1.405   .     A
C130   O226    1.389   .     S
C130   C133    1.406   .     A
C131   C134    1.398   .     A
C132   C162    1.438   .     S
C132   O232    1.296   .     A
C132   O231    1.292   .     A
C133   C135    1.392   .     A
C134   N218    1.437   .     S
C134   C136    1.403   .     A
C135   C137    1.405   .     A
C135   N219    1.438   .     S
C136   C142    1.419   .     A
C136   C138    1.419   .     A
C137   C139    1.418   .     A
C137   C144    1.414   .     A
C138   C140    1.421   .     A
C138   C1219   1.403   .     S
C139   C141    1.418   .     A
C139   C1218   1.403   1_554 S
C140   C154    1.422   .     A
C141   C143    1.413   .     A
C142   N220    1.436   .     S
C142   C1223   1.397   .     S
C143   N222    1.435   .     S
C143   C1222   1.397   1_554 S
C144   N221    1.436   .     S
C144   C1234   1.392   1_554 S
C145   O238    1.412   .     S
C145   H163    1.108   .     S
C145   H174    1.115   .     S
C145   C146    1.524   .     S
C146   H207    1.107   .     S
C146   H196    1.109   .     S
C146   H185    1.106   .     S
C147   H210    1.114   .     S
C147   O226    1.412   .     S
C147   H209    1.102   .     S
C147   C148    1.527   .     S
C148   H164    1.108   .     S
C148   H212    1.110   .     S
C148   H211    1.108   .     S
C149   H188    1.115   .     S
C149   H187    1.103   .     S
C149   C150    1.521   .     S
C149   O227    1.412   .     S
C150   H191    1.108   .     S
C150   H190    1.110   .     S
C150   H189    1.109   .     S
C151   O228    1.418   .     S
C151   H193    1.117   .     S
C151   C152    1.521   .     S
C151   H192    1.109   .     S
C152   H195    1.110   .     S
C152   H194    1.110   .     S
C152   H197    1.108   .     S
C153   H198    1.105   .     S
C153   H199    1.119   .     S
C153   C155    1.525   .     S
C153   O229    1.425   .     S
C154   N223    1.433   .     S
C154   C1224   1.392   .     S
C155   H201    1.111   .     S
C155   H202    1.108   .     S
C155   H920    1.109   1_545 S
C156   H203    1.112   .     S
C156   C157    1.521   .     S
C156   O230    1.418   .     S
C156   H204    1.117   .     S
C157   H208    1.107   .     S
C157   H205    1.109   .     S
C157   H206    1.110   .     S
C158   N224    1.440   .     S
C159   C162    1.416   .     A
C159   N214    1.437   .     S
C159   C281    1.380   .     S
C160   C162    1.414   .     A
C160   N215    1.437   .     S
C160   C278    1.382   .     S
C161   N216    1.440   .     S
H165   N218    1.045   .     S
H166   N218    1.046   .     S
H167   N219    1.045   .     S
H168   N219    1.041   .     S
H169   N220    1.045   .     S
H170   N220    1.044   .     S
H171   N221    1.045   .     S
H172   N221    1.043   .     S
H173   N222    1.046   .     S
H175   N222    1.045   .     S
H176   N223    1.045   .     S
H177   N223    1.040   .     S
H178   N224    1.045   .     S
H179   N224    1.045   .     S
H180   N214    1.043   .     S
H181   N214    1.045   .     S
H182   N215    1.045   .     S
H183   N215    1.044   .     S
H184   N216    1.046   .     S
H186   N216    1.045   .     S
H200   C515    1.109   .     S
N213   Zn239   2.029   .     S
N217   Zn240   2.029   .     S
O225   Zn239   2.014   .     S
O231   Zn240   2.014   .     S
O232   Zn239   2.013   .     S
O233   Zn240   2.013   .     S
O234   Zn239   2.006   .     S
O235   Zn240   2.006   .     S
O236   Zn239   2.006   .     S
O237   Zn240   2.006   .     S
C241   C242    1.427   .     S
C241   O353    1.291   .     A
C241   O345    1.290   .     A
C242   C281    1.406   .     A
C242   C278    1.404   .     A
C243   O347    1.379   .     S
C243   N337    1.373   .     A
C243   C966    1.424   1_545 S
C244   O348    1.379   .     S
C244   N333    1.372   .     A
C244   C605    1.427   .     S
C245   N337    1.367   .     A
C245   O349    1.380   .     S
C245   C964    1.427   1_545 S
C246   O350    1.378   .     S
C246   N333    1.371   .     A
C246   C603    1.424   .     S
C247   O357    1.296   .     A
C247   O354    1.289   .     A
C247   C253    1.431   .     S
C248   O355    1.297   .     A
C248   C251    1.433   .     S
C248   O356    1.287   .     A
C249   O358    1.386   .     S
C249   C260    1.409   .     A
C249   C251    1.405   .     A
C250   C261    1.405   .     A
C250   O346    1.389   .     S
C250   C253    1.406   .     A
C251   C254    1.398   .     A
C252   C282    1.438   .     S
C252   O352    1.296   .     A
C252   O351    1.292   .     A
C253   C255    1.392   .     A
C254   N338    1.437   .     S
C254   C256    1.403   .     A
C255   C257    1.405   .     A
C255   N339    1.438   .     S
C256   C262    1.419   .     A
C256   C258    1.419   .     A
C257   C259    1.418   .     A
C257   C264    1.414   .     A
C258   C260    1.421   .     A
C258   C1339   1.403   .     S
C259   C261    1.418   .     A
C259   C1338   1.403   1_554 S
C260   C274    1.422   .     A
C261   C263    1.413   .     A
C262   N340    1.436   .     S
C262   C1343   1.397   .     S
C263   N342    1.435   .     S
C263   C1342   1.397   1_554 S
C264   N341    1.436   .     S
C264   C1354   1.392   1_554 S
C265   O358    1.412   .     S
C265   H283    1.108   .     S
C265   H294    1.115   .     S
C265   C266    1.524   .     S
C266   H327    1.107   .     S
C266   H316    1.109   .     S
C266   H305    1.106   .     S
C267   H330    1.114   .     S
C267   O346    1.412   .     S
C267   H329    1.102   .     S
C267   C268    1.527   .     S
C268   H284    1.108   .     S
C268   H332    1.110   .     S
C268   H331    1.108   .     S
C269   H308    1.115   .     S
C269   H307    1.103   .     S
C269   C270    1.521   .     S
C269   O347    1.412   .     S
C270   H311    1.108   .     S
C270   H310    1.110   .     S
C270   H309    1.109   .     S
C271   O348    1.418   .     S
C271   H313    1.117   .     S
C271   C272    1.521   .     S
C271   H312    1.109   .     S
C272   H315    1.110   .     S
C272   H314    1.110   .     S
C272   H317    1.108   .     S
C273   H318    1.105   .     S
C273   H319    1.119   .     S
C273   C275    1.525   .     S
C273   O349    1.425   .     S
C274   N343    1.433   .     S
C274   C1344   1.392   .     S
C275   H321    1.111   .     S
C275   H322    1.108   .     S
C275   H1040   1.109   1_545 S
C276   H323    1.112   .     S
C276   C277    1.521   .     S
C276   O350    1.418   .     S
C276   H324    1.117   .     S
C277   H328    1.107   .     S
C277   H325    1.109   .     S
C277   H326    1.110   .     S
C278   N344    1.440   .     S
C279   C282    1.416   .     A
C279   N334    1.437   .     S
C279   C41     1.380   1_655 S
C280   C282    1.414   .     A
C280   N335    1.437   .     S
C280   C38     1.382   1_655 S
C281   N336    1.440   .     S
H285   N338    1.045   .     S
H286   N338    1.046   .     S
H287   N339    1.045   .     S
H288   N339    1.041   .     S
H289   N340    1.045   .     S
H290   N340    1.044   .     S
H291   N341    1.045   .     S
H292   N341    1.043   .     S
H293   N342    1.046   .     S
H295   N342    1.045   .     S
H296   N343    1.045   .     S
H297   N343    1.040   .     S
H298   N344    1.045   .     S
H299   N344    1.045   .     S
H300   N334    1.043   .     S
H301   N334    1.045   .     S
H302   N335    1.045   .     S
H303   N335    1.044   .     S
H304   N336    1.046   .     S
H306   N336    1.045   .     S
H320   C635    1.109   .     S
N333   Zn359   2.029   .     S
N337   Zn360   2.029   .     S
O345   Zn359   2.014   .     S
O351   Zn360   2.014   .     S
O352   Zn359   2.013   .     S
O353   Zn360   2.013   .     S
O354   Zn359   2.006   .     S
O355   Zn360   2.006   .     S
O356   Zn359   2.006   .     S
O357   Zn360   2.006   .     S
C361   C362    1.427   .     S
C361   O473    1.291   .     A
C361   O465    1.290   .     A
C362   C401    1.406   .     A
C362   C398    1.404   .     A
C363   O467    1.379   .     S
C363   N457    1.373   .     A
C364   O468    1.379   .     S
C364   N453    1.372   .     A
C364   C725    1.427   .     S
C365   N457    1.367   .     A
C365   O469    1.380   .     S
C366   O470    1.378   .     S
C366   N453    1.371   .     A
C366   C723    1.424   .     S
C367   O477    1.296   .     A
C367   O474    1.289   .     A
C367   C373    1.431   .     S
C368   O475    1.297   .     A
C368   C371    1.433   .     S
C368   O476    1.287   .     A
C369   O478    1.386   .     S
C369   C380    1.409   .     A
C369   C371    1.405   .     A
C370   C381    1.405   .     A
C370   O466    1.389   .     S
C370   C373    1.406   .     A
C371   C374    1.398   .     A
C372   C402    1.438   .     S
C372   O472    1.296   .     A
C372   O471    1.292   .     A
C373   C375    1.392   .     A
C374   N458    1.437   .     S
C374   C376    1.403   .     A
C375   C377    1.405   .     A
C375   N459    1.438   .     S
C376   C382    1.419   .     A
C376   C378    1.419   .     A
C377   C379    1.418   .     A
C377   C384    1.414   .     A
C378   C380    1.421   .     A
C378   C1459   1.403   .     S
C379   C381    1.418   .     A
C379   C1458   1.403   1_554 S
C380   C394    1.422   .     A
C381   C383    1.413   .     A
C382   N460    1.436   .     S
C382   C1463   1.397   .     S
C383   N462    1.435   .     S
C383   C1462   1.397   1_554 S
C384   N461    1.436   .     S
C384   C1474   1.392   1_554 S
C385   O478    1.412   .     S
C385   H403    1.108   .     S
C385   H414    1.115   .     S
C385   C386    1.524   .     S
C386   H447    1.107   .     S
C386   H436    1.109   .     S
C386   H425    1.106   .     S
C387   H450    1.114   .     S
C387   O466    1.412   .     S
C387   H449    1.102   .     S
C387   C388    1.527   .     S
C388   H404    1.108   .     S
C388   H452    1.110   .     S
C388   H451    1.108   .     S
C389   H428    1.115   .     S
C389   H427    1.103   .     S
C389   C390    1.521   .     S
C389   O467    1.412   .     S
C390   H431    1.108   .     S
C390   H430    1.110   .     S
C390   H429    1.109   .     S
C391   O468    1.418   .     S
C391   H433    1.117   .     S
C391   C392    1.521   .     S
C391   H432    1.109   .     S
C392   H435    1.110   .     S
C392   H434    1.110   .     S
C392   H437    1.108   .     S
C393   H438    1.105   .     S
C393   H439    1.119   .     S
C393   C395    1.525   .     S
C393   O469    1.425   .     S
C394   N463    1.433   .     S
C394   C1464   1.392   .     S
C395   H441    1.111   .     S
C395   H442    1.108   .     S
C396   H443    1.112   .     S
C396   C397    1.521   .     S
C396   O470    1.418   .     S
C396   H444    1.117   .     S
C397   H448    1.107   .     S
C397   H445    1.109   .     S
C397   H446    1.110   .     S
C398   N464    1.440   .     S
C398   C640    1.382   1_455 S
C399   C402    1.416   .     A
C399   N454    1.437   .     S
C399   C521    1.380   .     S
C400   C402    1.414   .     A
C400   N455    1.437   .     S
C400   C518    1.382   .     S
C401   N456    1.440   .     S
C401   C639    1.380   1_455 S
H405   N458    1.045   .     S
H406   N458    1.046   .     S
H407   N459    1.045   .     S
H408   N459    1.041   .     S
H409   N460    1.045   .     S
H410   N460    1.044   .     S
H411   N461    1.045   .     S
H412   N461    1.043   .     S
H413   N462    1.046   .     S
H415   N462    1.045   .     S
H416   N463    1.045   .     S
H417   N463    1.040   .     S
H418   N464    1.045   .     S
H419   N464    1.045   .     S
H420   N454    1.043   .     S
H421   N454    1.045   .     S
H422   N455    1.045   .     S
H423   N455    1.044   .     S
H424   N456    1.046   .     S
H426   N456    1.045   .     S
H440   C755    1.109   .     S
N453   Zn479   2.029   .     S
N457   Zn480   2.029   .     S
O465   Zn479   2.014   .     S
O471   Zn480   2.014   .     S
O472   Zn479   2.013   .     S
O473   Zn480   2.013   .     S
O474   Zn479   2.006   .     S
O475   Zn480   2.006   .     S
O476   Zn479   2.006   .     S
O477   Zn480   2.006   .     S
C481   C482    1.427   .     S
C481   O593    1.291   .     A
C481   O585    1.290   .     A
C482   C521    1.406   .     A
C482   C518    1.404   .     A
C483   O587    1.379   .     S
C483   N577    1.373   .     A
C484   O588    1.379   .     S
C484   N573    1.372   .     A
C484   C845    1.427   .     S
C485   N577    1.367   .     A
C485   O589    1.380   .     S
C486   O590    1.378   .     S
C486   N573    1.371   .     A
C486   C843    1.424   .     S
C487   O597    1.296   .     A
C487   O594    1.289   .     A
C487   C493    1.431   .     S
C488   O595    1.297   .     A
C488   C491    1.433   .     S
C488   O596    1.287   .     A
C489   O598    1.386   .     S
C489   C500    1.409   .     A
C489   C491    1.405   .     A
C490   C501    1.405   .     A
C490   O586    1.389   .     S
C490   C493    1.406   .     A
C491   C494    1.398   .     A
C492   C522    1.438   .     S
C492   O592    1.296   .     A
C492   O591    1.292   .     A
C493   C495    1.392   .     A
C494   N578    1.437   .     S
C494   C496    1.403   .     A
C495   C497    1.405   .     A
C495   N579    1.438   .     S
C496   C502    1.419   .     A
C496   C498    1.419   .     A
C497   C499    1.418   .     A
C497   C504    1.414   .     A
C498   C500    1.421   .     A
C498   C1579   1.403   .     S
C499   C501    1.418   .     A
C499   C1578   1.403   1_554 S
C500   C514    1.422   .     A
C501   C503    1.413   .     A
C502   N580    1.436   .     S
C502   C1583   1.397   .     S
C503   N582    1.435   .     S
C503   C1582   1.397   1_554 S
C504   N581    1.436   .     S
C504   C1594   1.392   1_554 S
C505   O598    1.412   .     S
C505   H523    1.108   .     S
C505   H534    1.115   .     S
C505   C506    1.524   .     S
C506   H567    1.107   .     S
C506   H556    1.109   .     S
C506   H545    1.106   .     S
C507   H570    1.114   .     S
C507   O586    1.412   .     S
C507   H569    1.102   .     S
C507   C508    1.527   .     S
C508   H524    1.108   .     S
C508   H572    1.110   .     S
C508   H571    1.108   .     S
C509   H548    1.115   .     S
C509   H547    1.103   .     S
C509   C510    1.521   .     S
C509   O587    1.412   .     S
C510   H551    1.108   .     S
C510   H550    1.110   .     S
C510   H549    1.109   .     S
C511   O588    1.418   .     S
C511   H553    1.117   .     S
C511   C512    1.521   .     S
C511   H552    1.109   .     S
C512   H555    1.110   .     S
C512   H554    1.110   .     S
C512   H557    1.108   .     S
C513   H558    1.105   .     S
C513   H559    1.119   .     S
C513   C515    1.525   .     S
C513   O589    1.425   .     S
C514   N583    1.433   .     S
C514   C1584   1.392   .     S
C515   H561    1.111   .     S
C515   H562    1.108   .     S
C516   H563    1.112   .     S
C516   C517    1.521   .     S
C516   O590    1.418   .     S
C516   H564    1.117   .     S
C517   H568    1.107   .     S
C517   H565    1.109   .     S
C517   H566    1.110   .     S
C518   N584    1.440   .     S
C519   C522    1.416   .     A
C519   N574    1.437   .     S
C519   C641    1.380   .     S
C520   C522    1.414   .     A
C520   N575    1.437   .     S
C520   C638    1.382   .     S
C521   N576    1.440   .     S
H525   N578    1.045   .     S
H526   N578    1.046   .     S
H527   N579    1.045   .     S
H528   N579    1.041   .     S
H529   N580    1.045   .     S
H530   N580    1.044   .     S
H531   N581    1.045   .     S
H532   N581    1.043   .     S
H533   N582    1.046   .     S
H535   N582    1.045   .     S
H536   N583    1.045   .     S
H537   N583    1.040   .     S
H538   N584    1.045   .     S
H539   N584    1.045   .     S
H540   N574    1.043   .     S
H541   N574    1.045   .     S
H542   N575    1.045   .     S
H543   N575    1.044   .     S
H544   N576    1.046   .     S
H546   N576    1.045   .     S
H560   C875    1.109   .     S
N573   Zn599   2.029   .     S
N577   Zn600   2.029   .     S
O585   Zn599   2.014   .     S
O591   Zn600   2.014   .     S
O592   Zn599   2.013   .     S
O593   Zn600   2.013   .     S
O594   Zn599   2.006   .     S
O595   Zn600   2.006   .     S
O596   Zn599   2.006   .     S
O597   Zn600   2.006   .     S
C601   C602    1.427   .     S
C601   O713    1.291   .     A
C601   O705    1.290   .     A
C602   C641    1.406   .     A
C602   C638    1.404   .     A
C603   O707    1.379   .     S
C603   N697    1.373   .     A
C604   O708    1.379   .     S
C604   N693    1.372   .     A
C604   C965    1.427   .     S
C605   N697    1.367   .     A
C605   O709    1.380   .     S
C606   O710    1.378   .     S
C606   N693    1.371   .     A
C606   C963    1.424   .     S
C607   O717    1.296   .     A
C607   O714    1.289   .     A
C607   C613    1.431   .     S
C608   O715    1.297   .     A
C608   C611    1.433   .     S
C608   O716    1.287   .     A
C609   O718    1.386   .     S
C609   C620    1.409   .     A
C609   C611    1.405   .     A
C610   C621    1.405   .     A
C610   O706    1.389   .     S
C610   C613    1.406   .     A
C611   C614    1.398   .     A
C612   C642    1.438   .     S
C612   O712    1.296   .     A
C612   O711    1.292   .     A
C613   C615    1.392   .     A
C614   N698    1.437   .     S
C614   C616    1.403   .     A
C615   C617    1.405   .     A
C615   N699    1.438   .     S
C616   C622    1.419   .     A
C616   C618    1.419   .     A
C617   C619    1.418   .     A
C617   C624    1.414   .     A
C618   C620    1.421   .     A
C618   C1699   1.403   .     S
C619   C621    1.418   .     A
C619   C1698   1.403   1_554 S
C620   C634    1.422   .     A
C621   C623    1.413   .     A
C622   N700    1.436   .     S
C622   C1703   1.397   .     S
C623   N702    1.435   .     S
C623   C1702   1.397   1_554 S
C624   N701    1.436   .     S
C624   C1714   1.392   1_554 S
C625   O718    1.412   .     S
C625   H643    1.108   .     S
C625   H654    1.115   .     S
C625   C626    1.524   .     S
C626   H687    1.107   .     S
C626   H676    1.109   .     S
C626   H665    1.106   .     S
C627   H690    1.114   .     S
C627   O706    1.412   .     S
C627   H689    1.102   .     S
C627   C628    1.527   .     S
C628   H644    1.108   .     S
C628   H692    1.110   .     S
C628   H691    1.108   .     S
C629   H668    1.115   .     S
C629   H667    1.103   .     S
C629   C630    1.521   .     S
C629   O707    1.412   .     S
C630   H671    1.108   .     S
C630   H670    1.110   .     S
C630   H669    1.109   .     S
C631   O708    1.418   .     S
C631   H673    1.117   .     S
C631   C632    1.521   .     S
C631   H672    1.109   .     S
C632   H675    1.110   .     S
C632   H674    1.110   .     S
C632   H677    1.108   .     S
C633   H678    1.105   .     S
C633   H679    1.119   .     S
C633   C635    1.525   .     S
C633   O709    1.425   .     S
C634   N703    1.433   .     S
C634   C1704   1.392   .     S
C635   H681    1.111   .     S
C635   H682    1.108   .     S
C636   H683    1.112   .     S
C636   C637    1.521   .     S
C636   O710    1.418   .     S
C636   H684    1.117   .     S
C637   H688    1.107   .     S
C637   H685    1.109   .     S
C637   H686    1.110   .     S
C638   N704    1.440   .     S
C639   C642    1.416   .     A
C639   N694    1.437   .     S
C639   C401    1.380   1_655 S
C640   C642    1.414   .     A
C640   N695    1.437   .     S
C640   C398    1.382   1_655 S
C641   N696    1.440   .     S
H645   N698    1.045   .     S
H646   N698    1.046   .     S
H647   N699    1.045   .     S
H648   N699    1.041   .     S
H649   N700    1.045   .     S
H650   N700    1.044   .     S
H651   N701    1.045   .     S
H652   N701    1.043   .     S
H653   N702    1.046   .     S
H655   N702    1.045   .     S
H656   N703    1.045   .     S
H657   N703    1.040   .     S
H658   N704    1.045   .     S
H659   N704    1.045   .     S
H660   N694    1.043   .     S
H661   N694    1.045   .     S
H662   N695    1.045   .     S
H663   N695    1.044   .     S
H664   N696    1.046   .     S
H666   N696    1.045   .     S
H680   C995    1.109   .     S
N693   Zn719   2.029   .     S
N697   Zn720   2.029   .     S
O705   Zn719   2.014   .     S
O711   Zn720   2.014   .     S
O712   Zn719   2.013   .     S
O713   Zn720   2.013   .     S
O714   Zn719   2.006   .     S
O715   Zn720   2.006   .     S
O716   Zn719   2.006   .     S
O717   Zn720   2.006   .     S
C721   C722    1.427   .     S
C721   O833    1.291   .     A
C721   O825    1.290   .     A
C722   C761    1.406   .     A
C722   C758    1.404   .     A
C723   O827    1.379   .     S
C723   N817    1.373   .     A
C724   O828    1.379   .     S
C724   N813    1.372   .     A
C724   C5      1.427   1_565 S
C725   N817    1.367   .     A
C725   O829    1.380   .     S
C726   O830    1.378   .     S
C726   N813    1.371   .     A
C726   C3      1.424   1_565 S
C727   O837    1.296   .     A
C727   O834    1.289   .     A
C727   C733    1.431   .     S
C728   O835    1.297   .     A
C728   C731    1.433   .     S
C728   O836    1.287   .     A
C729   O838    1.386   .     S
C729   C740    1.409   .     A
C729   C731    1.405   .     A
C730   C741    1.405   .     A
C730   O826    1.389   .     S
C730   C733    1.406   .     A
C731   C734    1.398   .     A
C732   C762    1.438   .     S
C732   O832    1.296   .     A
C732   O831    1.292   .     A
C733   C735    1.392   .     A
C734   N818    1.437   .     S
C734   C736    1.403   .     A
C735   C737    1.405   .     A
C735   N819    1.438   .     S
C736   C742    1.419   .     A
C736   C738    1.419   .     A
C737   C739    1.418   .     A
C737   C744    1.414   .     A
C738   C740    1.421   .     A
C738   C1819   1.403   .     S
C739   C741    1.418   .     A
C739   C1818   1.403   1_554 S
C740   C754    1.422   .     A
C741   C743    1.413   .     A
C742   N820    1.436   .     S
C742   C1823   1.397   .     S
C743   N822    1.435   .     S
C743   C1822   1.397   1_554 S
C744   N821    1.436   .     S
C744   C1834   1.392   1_554 S
C745   O838    1.412   .     S
C745   H763    1.108   .     S
C745   H774    1.115   .     S
C745   C746    1.524   .     S
C746   H807    1.107   .     S
C746   H796    1.109   .     S
C746   H785    1.106   .     S
C747   H810    1.114   .     S
C747   O826    1.412   .     S
C747   H809    1.102   .     S
C747   C748    1.527   .     S
C748   H764    1.108   .     S
C748   H812    1.110   .     S
C748   H811    1.108   .     S
C749   H788    1.115   .     S
C749   H787    1.103   .     S
C749   C750    1.521   .     S
C749   O827    1.412   .     S
C750   H791    1.108   .     S
C750   H790    1.110   .     S
C750   H789    1.109   .     S
C751   O828    1.418   .     S
C751   H793    1.117   .     S
C751   C752    1.521   .     S
C751   H792    1.109   .     S
C752   H795    1.110   .     S
C752   H794    1.110   .     S
C752   H797    1.108   .     S
C753   H798    1.105   .     S
C753   H799    1.119   .     S
C753   C755    1.525   .     S
C753   O829    1.425   .     S
C754   N823    1.433   .     S
C754   C1824   1.392   .     S
C755   H801    1.111   .     S
C755   H802    1.108   .     S
C756   H803    1.112   .     S
C756   C757    1.521   .     S
C756   O830    1.418   .     S
C756   H804    1.117   .     S
C757   H808    1.107   .     S
C757   H805    1.109   .     S
C757   H806    1.110   .     S
C758   N824    1.440   .     S
C758   C1000   1.382   1_455 S
C759   C762    1.416   .     A
C759   N814    1.437   .     S
C759   C881    1.380   .     S
C760   C762    1.414   .     A
C760   N815    1.437   .     S
C760   C878    1.382   .     S
C761   N816    1.440   .     S
C761   C999    1.380   1_455 S
H765   N818    1.045   .     S
H766   N818    1.046   .     S
H767   N819    1.045   .     S
H768   N819    1.041   .     S
H769   N820    1.045   .     S
H770   N820    1.044   .     S
H771   N821    1.045   .     S
H772   N821    1.043   .     S
H773   N822    1.046   .     S
H775   N822    1.045   .     S
H776   N823    1.045   .     S
H777   N823    1.040   .     S
H778   N824    1.045   .     S
H779   N824    1.045   .     S
H780   N814    1.043   .     S
H781   N814    1.045   .     S
H782   N815    1.045   .     S
H783   N815    1.044   .     S
H784   N816    1.046   .     S
H786   N816    1.045   .     S
H800   C35     1.109   1_565 S
N813   Zn839   2.029   .     S
N817   Zn840   2.029   .     S
O825   Zn839   2.014   .     S
O831   Zn840   2.014   .     S
O832   Zn839   2.013   .     S
O833   Zn840   2.013   .     S
O834   Zn839   2.006   .     S
O835   Zn840   2.006   .     S
O836   Zn839   2.006   .     S
O837   Zn840   2.006   .     S
C841   C842    1.427   .     S
C841   O953    1.291   .     A
C841   O945    1.290   .     A
C842   C881    1.406   .     A
C842   C878    1.404   .     A
C843   O947    1.379   .     S
C843   N937    1.373   .     A
C844   O948    1.379   .     S
C844   N933    1.372   .     A
C844   C125    1.427   1_565 S
C845   N937    1.367   .     A
C845   O949    1.380   .     S
C846   O950    1.378   .     S
C846   N933    1.371   .     A
C846   C123    1.424   1_565 S
C847   O957    1.296   .     A
C847   O954    1.289   .     A
C847   C853    1.431   .     S
C848   O955    1.297   .     A
C848   C851    1.433   .     S
C848   O956    1.287   .     A
C849   O958    1.386   .     S
C849   C860    1.409   .     A
C849   C851    1.405   .     A
C850   C861    1.405   .     A
C850   O946    1.389   .     S
C850   C853    1.406   .     A
C851   C854    1.398   .     A
C852   C882    1.438   .     S
C852   O952    1.296   .     A
C852   O951    1.292   .     A
C853   C855    1.392   .     A
C854   N938    1.437   .     S
C854   C856    1.403   .     A
C855   C857    1.405   .     A
C855   N939    1.438   .     S
C856   C862    1.419   .     A
C856   C858    1.419   .     A
C857   C859    1.418   .     A
C857   C864    1.414   .     A
C858   C860    1.421   .     A
C858   C1939   1.403   .     S
C859   C861    1.418   .     A
C859   C1938   1.403   1_554 S
C860   C874    1.422   .     A
C861   C863    1.413   .     A
C862   N940    1.436   .     S
C862   C1943   1.397   .     S
C863   N942    1.435   .     S
C863   C1942   1.397   1_554 S
C864   N941    1.436   .     S
C864   C1954   1.392   1_554 S
C865   O958    1.412   .     S
C865   H883    1.108   .     S
C865   H894    1.115   .     S
C865   C866    1.524   .     S
C866   H927    1.107   .     S
C866   H916    1.109   .     S
C866   H905    1.106   .     S
C867   H930    1.114   .     S
C867   O946    1.412   .     S
C867   H929    1.102   .     S
C867   C868    1.527   .     S
C868   H884    1.108   .     S
C868   H932    1.110   .     S
C868   H931    1.108   .     S
C869   H908    1.115   .     S
C869   H907    1.103   .     S
C869   C870    1.521   .     S
C869   O947    1.412   .     S
C870   H911    1.108   .     S
C870   H910    1.110   .     S
C870   H909    1.109   .     S
C871   O948    1.418   .     S
C871   H913    1.117   .     S
C871   C872    1.521   .     S
C871   H912    1.109   .     S
C872   H915    1.110   .     S
C872   H914    1.110   .     S
C872   H917    1.108   .     S
C873   H918    1.105   .     S
C873   H919    1.119   .     S
C873   C875    1.525   .     S
C873   O949    1.425   .     S
C874   N943    1.433   .     S
C874   C1944   1.392   .     S
C875   H921    1.111   .     S
C875   H922    1.108   .     S
C876   H923    1.112   .     S
C876   C877    1.521   .     S
C876   O950    1.418   .     S
C876   H924    1.117   .     S
C877   H928    1.107   .     S
C877   H925    1.109   .     S
C877   H926    1.110   .     S
C878   N944    1.440   .     S
C879   C882    1.416   .     A
C879   N934    1.437   .     S
C879   C1001   1.380   .     S
C880   C882    1.414   .     A
C880   N935    1.437   .     S
C880   C998    1.382   .     S
C881   N936    1.440   .     S
H885   N938    1.045   .     S
H886   N938    1.046   .     S
H887   N939    1.045   .     S
H888   N939    1.041   .     S
H889   N940    1.045   .     S
H890   N940    1.044   .     S
H891   N941    1.045   .     S
H892   N941    1.043   .     S
H893   N942    1.046   .     S
H895   N942    1.045   .     S
H896   N943    1.045   .     S
H897   N943    1.040   .     S
H898   N944    1.045   .     S
H899   N944    1.045   .     S
H900   N934    1.043   .     S
H901   N934    1.045   .     S
H902   N935    1.045   .     S
H903   N935    1.044   .     S
H904   N936    1.046   .     S
H906   N936    1.045   .     S
H920   C155    1.109   1_565 S
N933   Zn959   2.029   .     S
N937   Zn960   2.029   .     S
O945   Zn959   2.014   .     S
O951   Zn960   2.014   .     S
O952   Zn959   2.013   .     S
O953   Zn960   2.013   .     S
O954   Zn959   2.006   .     S
O955   Zn960   2.006   .     S
O956   Zn959   2.006   .     S
O957   Zn960   2.006   .     S
C961   C962    1.427   .     S
C961   O1073   1.291   .     A
C961   O1065   1.290   .     A
C962   C1001   1.406   .     A
C962   C998    1.404   .     A
C963   O1067   1.379   .     S
C963   N1057   1.373   .     A
C964   O1068   1.379   .     S
C964   N1053   1.372   .     A
C964   C245    1.427   1_565 S
C965   N1057   1.367   .     A
C965   O1069   1.380   .     S
C966   O1070   1.378   .     S
C966   N1053   1.371   .     A
C966   C243    1.424   1_565 S
C967   O1077   1.296   .     A
C967   O1074   1.289   .     A
C967   C973    1.431   .     S
C968   O1075   1.297   .     A
C968   C971    1.433   .     S
C968   O1076   1.287   .     A
C969   O1078   1.386   .     S
C969   C980    1.409   .     A
C969   C971    1.405   .     A
C970   C981    1.405   .     A
C970   O1066   1.389   .     S
C970   C973    1.406   .     A
C971   C974    1.398   .     A
C972   C1002   1.438   .     S
C972   O1072   1.296   .     A
C972   O1071   1.292   .     A
C973   C975    1.392   .     A
C974   N1058   1.437   .     S
C974   C976    1.403   .     A
C975   C977    1.405   .     A
C975   N1059   1.438   .     S
C976   C982    1.419   .     A
C976   C978    1.419   .     A
C977   C979    1.418   .     A
C977   C984    1.414   .     A
C978   C980    1.421   .     A
C978   C2059   1.403   .     S
C979   C981    1.418   .     A
C979   C2058   1.403   1_554 S
C980   C994    1.422   .     A
C981   C983    1.413   .     A
C982   N1060   1.436   .     S
C982   C2063   1.397   .     S
C983   N1062   1.435   .     S
C983   C2062   1.397   1_554 S
C984   N1061   1.436   .     S
C984   C2074   1.392   1_554 S
C985   O1078   1.412   .     S
C985   H1003   1.108   .     S
C985   H1014   1.115   .     S
C985   C986    1.524   .     S
C986   H1047   1.107   .     S
C986   H1036   1.109   .     S
C986   H1025   1.106   .     S
C987   H1050   1.114   .     S
C987   O1066   1.412   .     S
C987   H1049   1.102   .     S
C987   C988    1.527   .     S
C988   H1004   1.108   .     S
C988   H1052   1.110   .     S
C988   H1051   1.108   .     S
C989   H1028   1.115   .     S
C989   H1027   1.103   .     S
C989   C990    1.521   .     S
C989   O1067   1.412   .     S
C990   H1031   1.108   .     S
C990   H1030   1.110   .     S
C990   H1029   1.109   .     S
C991   O1068   1.418   .     S
C991   H1033   1.117   .     S
C991   C992    1.521   .     S
C991   H1032   1.109   .     S
C992   H1035   1.110   .     S
C992   H1034   1.110   .     S
C992   H1037   1.108   .     S
C993   H1038   1.105   .     S
C993   H1039   1.119   .     S
C993   C995    1.525   .     S
C993   O1069   1.425   .     S
C994   N1063   1.433   .     S
C994   C2064   1.392   .     S
C995   H1041   1.111   .     S
C995   H1042   1.108   .     S
C996   H1043   1.112   .     S
C996   C997    1.521   .     S
C996   O1070   1.418   .     S
C996   H1044   1.117   .     S
C997   H1048   1.107   .     S
C997   H1045   1.109   .     S
C997   H1046   1.110   .     S
C998   N1064   1.440   .     S
C999   C1002   1.416   .     A
C999   N1054   1.437   .     S
C999   C761    1.380   1_655 S
C1000  C1002   1.414   .     A
C1000  N1055   1.437   .     S
C1000  C758    1.382   1_655 S
C1001  N1056   1.440   .     S
H1005  N1058   1.045   .     S
H1006  N1058   1.046   .     S
H1007  N1059   1.045   .     S
H1008  N1059   1.041   .     S
H1009  N1060   1.045   .     S
H1010  N1060   1.044   .     S
H1011  N1061   1.045   .     S
H1012  N1061   1.043   .     S
H1013  N1062   1.046   .     S
H1015  N1062   1.045   .     S
H1016  N1063   1.045   .     S
H1017  N1063   1.040   .     S
H1018  N1064   1.045   .     S
H1019  N1064   1.045   .     S
H1020  N1054   1.043   .     S
H1021  N1054   1.045   .     S
H1022  N1055   1.045   .     S
H1023  N1055   1.044   .     S
H1024  N1056   1.046   .     S
H1026  N1056   1.045   .     S
H1040  C275    1.109   1_565 S
N1053  Zn1079  2.029   .     S
N1057  Zn1080  2.029   .     S
O1065  Zn1079  2.014   .     S
O1071  Zn1080  2.014   .     S
O1072  Zn1079  2.013   .     S
O1073  Zn1080  2.013   .     S
O1074  Zn1079  2.006   .     S
O1075  Zn1080  2.006   .     S
O1076  Zn1079  2.006   .     S
O1077  Zn1080  2.006   .     S
C1081  C1082   1.427   .     S
C1081  O1193   1.291   .     A
C1081  O1185   1.290   .     A
C1082  C1121   1.406   .     A
C1082  C1118   1.404   .     A
C1083  O1187   1.379   .     S
C1083  N1177   1.373   .     A
C1083  C1806   1.424   1_545 S
C1084  O1188   1.379   .     S
C1084  N1173   1.372   .     A
C1084  C1445   1.427   .     S
C1085  N1177   1.367   .     A
C1085  O1189   1.380   .     S
C1085  C1804   1.427   1_545 S
C1086  O1190   1.378   .     S
C1086  N1173   1.371   .     A
C1086  C1443   1.424   .     S
C1087  O1197   1.296   .     A
C1087  O1194   1.289   .     A
C1087  C1093   1.431   .     S
C1088  O1195   1.297   .     A
C1088  C1091   1.433   .     S
C1088  O1196   1.287   .     A
C1089  O1198   1.386   .     S
C1089  C1100   1.409   .     A
C1089  C1091   1.405   .     A
C1090  C1101   1.405   .     A
C1090  O1186   1.389   .     S
C1090  C1093   1.406   .     A
C1091  C1094   1.398   .     A
C1092  C1122   1.438   .     S
C1092  O1192   1.296   .     A
C1092  O1191   1.292   .     A
C1093  C1095   1.392   .     A
C1094  N1178   1.437   .     S
C1094  C1096   1.403   .     A
C1095  C1097   1.405   .     A
C1095  N1179   1.438   .     S
C1096  C1102   1.419   .     A
C1096  C1098   1.419   .     A
C1097  C1099   1.418   .     A
C1097  C1104   1.414   .     A
C1098  C1100   1.421   .     A
C1098  C19     1.403   1_556 S
C1099  C1101   1.418   .     A
C1100  C1114   1.422   .     A
C1101  C1103   1.413   .     A
C1102  N1180   1.436   .     S
C1102  C23     1.397   1_556 S
C1103  N1182   1.435   .     S
C1104  N1181   1.436   .     S
C1105  O1198   1.412   .     S
C1105  H1123   1.108   .     S
C1105  H1134   1.115   .     S
C1105  C1106   1.524   .     S
C1106  H1167   1.107   .     S
C1106  H1156   1.109   .     S
C1106  H1145   1.106   .     S
C1107  H1170   1.114   .     S
C1107  O1186   1.412   .     S
C1107  H1169   1.102   .     S
C1107  C1108   1.527   .     S
C1108  H1124   1.108   .     S
C1108  H1172   1.110   .     S
C1108  H1171   1.108   .     S
C1109  H1148   1.115   .     S
C1109  H1147   1.103   .     S
C1109  C1110   1.521   .     S
C1109  O1187   1.412   .     S
C1110  H1151   1.108   .     S
C1110  H1150   1.110   .     S
C1110  H1149   1.109   .     S
C1111  O1188   1.418   .     S
C1111  H1153   1.117   .     S
C1111  C1112   1.521   .     S
C1111  H1152   1.109   .     S
C1112  H1155   1.110   .     S
C1112  H1154   1.110   .     S
C1112  H1157   1.108   .     S
C1113  H1158   1.105   .     S
C1113  H1159   1.119   .     S
C1113  C1115   1.525   .     S
C1113  O1189   1.425   .     S
C1114  N1183   1.433   .     S
C1114  C24     1.392   1_556 S
C1115  H1161   1.111   .     S
C1115  H1162   1.108   .     S
C1115  H1880   1.109   1_545 S
C1116  H1163   1.112   .     S
C1116  C1117   1.521   .     S
C1116  O1190   1.418   .     S
C1116  H1164   1.117   .     S
C1117  H1168   1.107   .     S
C1117  H1165   1.109   .     S
C1117  H1166   1.110   .     S
C1118  N1184   1.440   .     S
C1118  C1360   1.382   1_455 S
C1119  C1122   1.416   .     A
C1119  N1174   1.437   .     S
C1119  C1241   1.380   .     S
C1120  C1122   1.414   .     A
C1120  N1175   1.437   .     S
C1120  C1238   1.382   .     S
C1121  N1176   1.440   .     S
C1121  C1359   1.380   1_455 S
H1125  N1178   1.045   .     S
H1126  N1178   1.046   .     S
H1127  N1179   1.045   .     S
H1128  N1179   1.041   .     S
H1129  N1180   1.045   .     S
H1130  N1180   1.044   .     S
H1131  N1181   1.045   .     S
H1132  N1181   1.043   .     S
H1133  N1182   1.046   .     S
H1135  N1182   1.045   .     S
H1136  N1183   1.045   .     S
H1137  N1183   1.040   .     S
H1138  N1184   1.045   .     S
H1139  N1184   1.045   .     S
H1140  N1174   1.043   .     S
H1141  N1174   1.045   .     S
H1142  N1175   1.045   .     S
H1143  N1175   1.044   .     S
H1144  N1176   1.046   .     S
H1146  N1176   1.045   .     S
H1160  C1475   1.109   .     S
N1173  Zn1199  2.029   .     S
N1177  Zn1200  2.029   .     S
O1185  Zn1199  2.014   .     S
O1191  Zn1200  2.014   .     S
O1192  Zn1199  2.013   .     S
O1193  Zn1200  2.013   .     S
O1194  Zn1199  2.006   .     S
O1195  Zn1200  2.006   .     S
O1196  Zn1199  2.006   .     S
O1197  Zn1200  2.006   .     S
C1201  C1202   1.427   .     S
C1201  O1313   1.291   .     A
C1201  O1305   1.290   .     A
C1202  C1241   1.406   .     A
C1202  C1238   1.404   .     A
C1203  O1307   1.379   .     S
C1203  N1297   1.373   .     A
C1203  C1926   1.424   1_545 S
C1204  O1308   1.379   .     S
C1204  N1293   1.372   .     A
C1204  C1565   1.427   .     S
C1205  N1297   1.367   .     A
C1205  O1309   1.380   .     S
C1205  C1924   1.427   1_545 S
C1206  O1310   1.378   .     S
C1206  N1293   1.371   .     A
C1206  C1563   1.424   .     S
C1207  O1317   1.296   .     A
C1207  O1314   1.289   .     A
C1207  C1213   1.431   .     S
C1208  O1315   1.297   .     A
C1208  C1211   1.433   .     S
C1208  O1316   1.287   .     A
C1209  O1318   1.386   .     S
C1209  C1220   1.409   .     A
C1209  C1211   1.405   .     A
C1210  C1221   1.405   .     A
C1210  O1306   1.389   .     S
C1210  C1213   1.406   .     A
C1211  C1214   1.398   .     A
C1212  C1242   1.438   .     S
C1212  O1312   1.296   .     A
C1212  O1311   1.292   .     A
C1213  C1215   1.392   .     A
C1214  N1298   1.437   .     S
C1214  C1216   1.403   .     A
C1215  C1217   1.405   .     A
C1215  N1299   1.438   .     S
C1216  C1222   1.419   .     A
C1216  C1218   1.419   .     A
C1217  C1219   1.418   .     A
C1217  C1224   1.414   .     A
C1218  C1220   1.421   .     A
C1218  C139    1.403   1_556 S
C1219  C1221   1.418   .     A
C1220  C1234   1.422   .     A
C1221  C1223   1.413   .     A
C1222  N1300   1.436   .     S
C1222  C143    1.397   1_556 S
C1223  N1302   1.435   .     S
C1224  N1301   1.436   .     S
C1225  O1318   1.412   .     S
C1225  H1243   1.108   .     S
C1225  H1254   1.115   .     S
C1225  C1226   1.524   .     S
C1226  H1287   1.107   .     S
C1226  H1276   1.109   .     S
C1226  H1265   1.106   .     S
C1227  H1290   1.114   .     S
C1227  O1306   1.412   .     S
C1227  H1289   1.102   .     S
C1227  C1228   1.527   .     S
C1228  H1244   1.108   .     S
C1228  H1292   1.110   .     S
C1228  H1291   1.108   .     S
C1229  H1268   1.115   .     S
C1229  H1267   1.103   .     S
C1229  C1230   1.521   .     S
C1229  O1307   1.412   .     S
C1230  H1271   1.108   .     S
C1230  H1270   1.110   .     S
C1230  H1269   1.109   .     S
C1231  O1308   1.418   .     S
C1231  H1273   1.117   .     S
C1231  C1232   1.521   .     S
C1231  H1272   1.109   .     S
C1232  H1275   1.110   .     S
C1232  H1274   1.110   .     S
C1232  H1277   1.108   .     S
C1233  H1278   1.105   .     S
C1233  H1279   1.119   .     S
C1233  C1235   1.525   .     S
C1233  O1309   1.425   .     S
C1234  N1303   1.433   .     S
C1234  C144    1.392   1_556 S
C1235  H1281   1.111   .     S
C1235  H1282   1.108   .     S
C1235  H2000   1.109   1_545 S
C1236  H1283   1.112   .     S
C1236  C1237   1.521   .     S
C1236  O1310   1.418   .     S
C1236  H1284   1.117   .     S
C1237  H1288   1.107   .     S
C1237  H1285   1.109   .     S
C1237  H1286   1.110   .     S
C1238  N1304   1.440   .     S
C1239  C1242   1.416   .     A
C1239  N1294   1.437   .     S
C1239  C1361   1.380   .     S
C1240  C1242   1.414   .     A
C1240  N1295   1.437   .     S
C1240  C1358   1.382   .     S
C1241  N1296   1.440   .     S
H1245  N1298   1.045   .     S
H1246  N1298   1.046   .     S
H1247  N1299   1.045   .     S
H1248  N1299   1.041   .     S
H1249  N1300   1.045   .     S
H1250  N1300   1.044   .     S
H1251  N1301   1.045   .     S
H1252  N1301   1.043   .     S
H1253  N1302   1.046   .     S
H1255  N1302   1.045   .     S
H1256  N1303   1.045   .     S
H1257  N1303   1.040   .     S
H1258  N1304   1.045   .     S
H1259  N1304   1.045   .     S
H1260  N1294   1.043   .     S
H1261  N1294   1.045   .     S
H1262  N1295   1.045   .     S
H1263  N1295   1.044   .     S
H1264  N1296   1.046   .     S
H1266  N1296   1.045   .     S
H1280  C1595   1.109   .     S
N1293  Zn1319  2.029   .     S
N1297  Zn1320  2.029   .     S
O1305  Zn1319  2.014   .     S
O1311  Zn1320  2.014   .     S
O1312  Zn1319  2.013   .     S
O1313  Zn1320  2.013   .     S
O1314  Zn1319  2.006   .     S
O1315  Zn1320  2.006   .     S
O1316  Zn1319  2.006   .     S
O1317  Zn1320  2.006   .     S
C1321  C1322   1.427   .     S
C1321  O1433   1.291   .     A
C1321  O1425   1.290   .     A
C1322  C1361   1.406   .     A
C1322  C1358   1.404   .     A
C1323  O1427   1.379   .     S
C1323  N1417   1.373   .     A
C1323  C2046   1.424   1_545 S
C1324  O1428   1.379   .     S
C1324  N1413   1.372   .     A
C1324  C1685   1.427   .     S
C1325  N1417   1.367   .     A
C1325  O1429   1.380   .     S
C1325  C2044   1.427   1_545 S
C1326  O1430   1.378   .     S
C1326  N1413   1.371   .     A
C1326  C1683   1.424   .     S
C1327  O1437   1.296   .     A
C1327  O1434   1.289   .     A
C1327  C1333   1.431   .     S
C1328  O1435   1.297   .     A
C1328  C1331   1.433   .     S
C1328  O1436   1.287   .     A
C1329  O1438   1.386   .     S
C1329  C1340   1.409   .     A
C1329  C1331   1.405   .     A
C1330  C1341   1.405   .     A
C1330  O1426   1.389   .     S
C1330  C1333   1.406   .     A
C1331  C1334   1.398   .     A
C1332  C1362   1.438   .     S
C1332  O1432   1.296   .     A
C1332  O1431   1.292   .     A
C1333  C1335   1.392   .     A
C1334  N1418   1.437   .     S
C1334  C1336   1.403   .     A
C1335  C1337   1.405   .     A
C1335  N1419   1.438   .     S
C1336  C1342   1.419   .     A
C1336  C1338   1.419   .     A
C1337  C1339   1.418   .     A
C1337  C1344   1.414   .     A
C1338  C1340   1.421   .     A
C1338  C259    1.403   1_556 S
C1339  C1341   1.418   .     A
C1340  C1354   1.422   .     A
C1341  C1343   1.413   .     A
C1342  N1420   1.436   .     S
C1342  C263    1.397   1_556 S
C1343  N1422   1.435   .     S
C1344  N1421   1.436   .     S
C1345  O1438   1.412   .     S
C1345  H1363   1.108   .     S
C1345  H1374   1.115   .     S
C1345  C1346   1.524   .     S
C1346  H1407   1.107   .     S
C1346  H1396   1.109   .     S
C1346  H1385   1.106   .     S
C1347  H1410   1.114   .     S
C1347  O1426   1.412   .     S
C1347  H1409   1.102   .     S
C1347  C1348   1.527   .     S
C1348  H1364   1.108   .     S
C1348  H1412   1.110   .     S
C1348  H1411   1.108   .     S
C1349  H1388   1.115   .     S
C1349  H1387   1.103   .     S
C1349  C1350   1.521   .     S
C1349  O1427   1.412   .     S
C1350  H1391   1.108   .     S
C1350  H1390   1.110   .     S
C1350  H1389   1.109   .     S
C1351  O1428   1.418   .     S
C1351  H1393   1.117   .     S
C1351  C1352   1.521   .     S
C1351  H1392   1.109   .     S
C1352  H1395   1.110   .     S
C1352  H1394   1.110   .     S
C1352  H1397   1.108   .     S
C1353  H1398   1.105   .     S
C1353  H1399   1.119   .     S
C1353  C1355   1.525   .     S
C1353  O1429   1.425   .     S
C1354  N1423   1.433   .     S
C1354  C264    1.392   1_556 S
C1355  H1401   1.111   .     S
C1355  H1402   1.108   .     S
C1355  H2120   1.109   1_545 S
C1356  H1403   1.112   .     S
C1356  C1357   1.521   .     S
C1356  O1430   1.418   .     S
C1356  H1404   1.117   .     S
C1357  H1408   1.107   .     S
C1357  H1405   1.109   .     S
C1357  H1406   1.110   .     S
C1358  N1424   1.440   .     S
C1359  C1362   1.416   .     A
C1359  N1414   1.437   .     S
C1359  C1121   1.380   1_655 S
C1360  C1362   1.414   .     A
C1360  N1415   1.437   .     S
C1360  C1118   1.382   1_655 S
C1361  N1416   1.440   .     S
H1365  N1418   1.045   .     S
H1366  N1418   1.046   .     S
H1367  N1419   1.045   .     S
H1368  N1419   1.041   .     S
H1369  N1420   1.045   .     S
H1370  N1420   1.044   .     S
H1371  N1421   1.045   .     S
H1372  N1421   1.043   .     S
H1373  N1422   1.046   .     S
H1375  N1422   1.045   .     S
H1376  N1423   1.045   .     S
H1377  N1423   1.040   .     S
H1378  N1424   1.045   .     S
H1379  N1424   1.045   .     S
H1380  N1414   1.043   .     S
H1381  N1414   1.045   .     S
H1382  N1415   1.045   .     S
H1383  N1415   1.044   .     S
H1384  N1416   1.046   .     S
H1386  N1416   1.045   .     S
H1400  C1715   1.109   .     S
N1413  Zn1439  2.029   .     S
N1417  Zn1440  2.029   .     S
O1425  Zn1439  2.014   .     S
O1431  Zn1440  2.014   .     S
O1432  Zn1439  2.013   .     S
O1433  Zn1440  2.013   .     S
O1434  Zn1439  2.006   .     S
O1435  Zn1440  2.006   .     S
O1436  Zn1439  2.006   .     S
O1437  Zn1440  2.006   .     S
C1441  C1442   1.427   .     S
C1441  O1553   1.291   .     A
C1441  O1545   1.290   .     A
C1442  C1481   1.406   .     A
C1442  C1478   1.404   .     A
C1443  O1547   1.379   .     S
C1443  N1537   1.373   .     A
C1444  O1548   1.379   .     S
C1444  N1533   1.372   .     A
C1444  C1805   1.427   .     S
C1445  N1537   1.367   .     A
C1445  O1549   1.380   .     S
C1446  O1550   1.378   .     S
C1446  N1533   1.371   .     A
C1446  C1803   1.424   .     S
C1447  O1557   1.296   .     A
C1447  O1554   1.289   .     A
C1447  C1453   1.431   .     S
C1448  O1555   1.297   .     A
C1448  C1451   1.433   .     S
C1448  O1556   1.287   .     A
C1449  O1558   1.386   .     S
C1449  C1460   1.409   .     A
C1449  C1451   1.405   .     A
C1450  C1461   1.405   .     A
C1450  O1546   1.389   .     S
C1450  C1453   1.406   .     A
C1451  C1454   1.398   .     A
C1452  C1482   1.438   .     S
C1452  O1552   1.296   .     A
C1452  O1551   1.292   .     A
C1453  C1455   1.392   .     A
C1454  N1538   1.437   .     S
C1454  C1456   1.403   .     A
C1455  C1457   1.405   .     A
C1455  N1539   1.438   .     S
C1456  C1462   1.419   .     A
C1456  C1458   1.419   .     A
C1457  C1459   1.418   .     A
C1457  C1464   1.414   .     A
C1458  C1460   1.421   .     A
C1458  C379    1.403   1_556 S
C1459  C1461   1.418   .     A
C1460  C1474   1.422   .     A
C1461  C1463   1.413   .     A
C1462  N1540   1.436   .     S
C1462  C383    1.397   1_556 S
C1463  N1542   1.435   .     S
C1464  N1541   1.436   .     S
C1465  O1558   1.412   .     S
C1465  H1483   1.108   .     S
C1465  H1494   1.115   .     S
C1465  C1466   1.524   .     S
C1466  H1527   1.107   .     S
C1466  H1516   1.109   .     S
C1466  H1505   1.106   .     S
C1467  H1530   1.114   .     S
C1467  O1546   1.412   .     S
C1467  H1529   1.102   .     S
C1467  C1468   1.527   .     S
C1468  H1484   1.108   .     S
C1468  H1532   1.110   .     S
C1468  H1531   1.108   .     S
C1469  H1508   1.115   .     S
C1469  H1507   1.103   .     S
C1469  C1470   1.521   .     S
C1469  O1547   1.412   .     S
C1470  H1511   1.108   .     S
C1470  H1510   1.110   .     S
C1470  H1509   1.109   .     S
C1471  O1548   1.418   .     S
C1471  H1513   1.117   .     S
C1471  C1472   1.521   .     S
C1471  H1512   1.109   .     S
C1472  H1515   1.110   .     S
C1472  H1514   1.110   .     S
C1472  H1517   1.108   .     S
C1473  H1518   1.105   .     S
C1473  H1519   1.119   .     S
C1473  C1475   1.525   .     S
C1473  O1549   1.425   .     S
C1474  N1543   1.433   .     S
C1474  C384    1.392   1_556 S
C1475  H1521   1.111   .     S
C1475  H1522   1.108   .     S
C1476  H1523   1.112   .     S
C1476  C1477   1.521   .     S
C1476  O1550   1.418   .     S
C1476  H1524   1.117   .     S
C1477  H1528   1.107   .     S
C1477  H1525   1.109   .     S
C1477  H1526   1.110   .     S
C1478  N1544   1.440   .     S
C1478  C1720   1.382   1_455 S
C1479  C1482   1.416   .     A
C1479  N1534   1.437   .     S
C1479  C1601   1.380   .     S
C1480  C1482   1.414   .     A
C1480  N1535   1.437   .     S
C1480  C1598   1.382   .     S
C1481  N1536   1.440   .     S
C1481  C1719   1.380   1_455 S
H1485  N1538   1.045   .     S
H1486  N1538   1.046   .     S
H1487  N1539   1.045   .     S
H1488  N1539   1.041   .     S
H1489  N1540   1.045   .     S
H1490  N1540   1.044   .     S
H1491  N1541   1.045   .     S
H1492  N1541   1.043   .     S
H1493  N1542   1.046   .     S
H1495  N1542   1.045   .     S
H1496  N1543   1.045   .     S
H1497  N1543   1.040   .     S
H1498  N1544   1.045   .     S
H1499  N1544   1.045   .     S
H1500  N1534   1.043   .     S
H1501  N1534   1.045   .     S
H1502  N1535   1.045   .     S
H1503  N1535   1.044   .     S
H1504  N1536   1.046   .     S
H1506  N1536   1.045   .     S
H1520  C1835   1.109   .     S
N1533  Zn1559  2.029   .     S
N1537  Zn1560  2.029   .     S
O1545  Zn1559  2.014   .     S
O1551  Zn1560  2.014   .     S
O1552  Zn1559  2.013   .     S
O1553  Zn1560  2.013   .     S
O1554  Zn1559  2.006   .     S
O1555  Zn1560  2.006   .     S
O1556  Zn1559  2.006   .     S
O1557  Zn1560  2.006   .     S
C1561  C1562   1.427   .     S
C1561  O1673   1.291   .     A
C1561  O1665   1.290   .     A
C1562  C1601   1.406   .     A
C1562  C1598   1.404   .     A
C1563  O1667   1.379   .     S
C1563  N1657   1.373   .     A
C1564  O1668   1.379   .     S
C1564  N1653   1.372   .     A
C1564  C1925   1.427   .     S
C1565  N1657   1.367   .     A
C1565  O1669   1.380   .     S
C1566  O1670   1.378   .     S
C1566  N1653   1.371   .     A
C1566  C1923   1.424   .     S
C1567  O1677   1.296   .     A
C1567  O1674   1.289   .     A
C1567  C1573   1.431   .     S
C1568  O1675   1.297   .     A
C1568  C1571   1.433   .     S
C1568  O1676   1.287   .     A
C1569  O1678   1.386   .     S
C1569  C1580   1.409   .     A
C1569  C1571   1.405   .     A
C1570  C1581   1.405   .     A
C1570  O1666   1.389   .     S
C1570  C1573   1.406   .     A
C1571  C1574   1.398   .     A
C1572  C1602   1.438   .     S
C1572  O1672   1.296   .     A
C1572  O1671   1.292   .     A
C1573  C1575   1.392   .     A
C1574  N1658   1.437   .     S
C1574  C1576   1.403   .     A
C1575  C1577   1.405   .     A
C1575  N1659   1.438   .     S
C1576  C1582   1.419   .     A
C1576  C1578   1.419   .     A
C1577  C1579   1.418   .     A
C1577  C1584   1.414   .     A
C1578  C1580   1.421   .     A
C1578  C499    1.403   1_556 S
C1579  C1581   1.418   .     A
C1580  C1594   1.422   .     A
C1581  C1583   1.413   .     A
C1582  N1660   1.436   .     S
C1582  C503    1.397   1_556 S
C1583  N1662   1.435   .     S
C1584  N1661   1.436   .     S
C1585  O1678   1.412   .     S
C1585  H1603   1.108   .     S
C1585  H1614   1.115   .     S
C1585  C1586   1.524   .     S
C1586  H1647   1.107   .     S
C1586  H1636   1.109   .     S
C1586  H1625   1.106   .     S
C1587  H1650   1.114   .     S
C1587  O1666   1.412   .     S
C1587  H1649   1.102   .     S
C1587  C1588   1.527   .     S
C1588  H1604   1.108   .     S
C1588  H1652   1.110   .     S
C1588  H1651   1.108   .     S
C1589  H1628   1.115   .     S
C1589  H1627   1.103   .     S
C1589  C1590   1.521   .     S
C1589  O1667   1.412   .     S
C1590  H1631   1.108   .     S
C1590  H1630   1.110   .     S
C1590  H1629   1.109   .     S
C1591  O1668   1.418   .     S
C1591  H1633   1.117   .     S
C1591  C1592   1.521   .     S
C1591  H1632   1.109   .     S
C1592  H1635   1.110   .     S
C1592  H1634   1.110   .     S
C1592  H1637   1.108   .     S
C1593  H1638   1.105   .     S
C1593  H1639   1.119   .     S
C1593  C1595   1.525   .     S
C1593  O1669   1.425   .     S
C1594  N1663   1.433   .     S
C1594  C504    1.392   1_556 S
C1595  H1641   1.111   .     S
C1595  H1642   1.108   .     S
C1596  H1643   1.112   .     S
C1596  C1597   1.521   .     S
C1596  O1670   1.418   .     S
C1596  H1644   1.117   .     S
C1597  H1648   1.107   .     S
C1597  H1645   1.109   .     S
C1597  H1646   1.110   .     S
C1598  N1664   1.440   .     S
C1599  C1602   1.416   .     A
C1599  N1654   1.437   .     S
C1599  C1721   1.380   .     S
C1600  C1602   1.414   .     A
C1600  N1655   1.437   .     S
C1600  C1718   1.382   .     S
C1601  N1656   1.440   .     S
H1605  N1658   1.045   .     S
H1606  N1658   1.046   .     S
H1607  N1659   1.045   .     S
H1608  N1659   1.041   .     S
H1609  N1660   1.045   .     S
H1610  N1660   1.044   .     S
H1611  N1661   1.045   .     S
H1612  N1661   1.043   .     S
H1613  N1662   1.046   .     S
H1615  N1662   1.045   .     S
H1616  N1663   1.045   .     S
H1617  N1663   1.040   .     S
H1618  N1664   1.045   .     S
H1619  N1664   1.045   .     S
H1620  N1654   1.043   .     S
H1621  N1654   1.045   .     S
H1622  N1655   1.045   .     S
H1623  N1655   1.044   .     S
H1624  N1656   1.046   .     S
H1626  N1656   1.045   .     S
H1640  C1955   1.109   .     S
N1653  Zn1679  2.029   .     S
N1657  Zn1680  2.029   .     S
O1665  Zn1679  2.014   .     S
O1671  Zn1680  2.014   .     S
O1672  Zn1679  2.013   .     S
O1673  Zn1680  2.013   .     S
O1674  Zn1679  2.006   .     S
O1675  Zn1680  2.006   .     S
O1676  Zn1679  2.006   .     S
O1677  Zn1680  2.006   .     S
C1681  C1682   1.427   .     S
C1681  O1793   1.291   .     A
C1681  O1785   1.290   .     A
C1682  C1721   1.406   .     A
C1682  C1718   1.404   .     A
C1683  O1787   1.379   .     S
C1683  N1777   1.373   .     A
C1684  O1788   1.379   .     S
C1684  N1773   1.372   .     A
C1684  C2045   1.427   .     S
C1685  N1777   1.367   .     A
C1685  O1789   1.380   .     S
C1686  O1790   1.378   .     S
C1686  N1773   1.371   .     A
C1686  C2043   1.424   .     S
C1687  O1797   1.296   .     A
C1687  O1794   1.289   .     A
C1687  C1693   1.431   .     S
C1688  O1795   1.297   .     A
C1688  C1691   1.433   .     S
C1688  O1796   1.287   .     A
C1689  O1798   1.386   .     S
C1689  C1700   1.409   .     A
C1689  C1691   1.405   .     A
C1690  C1701   1.405   .     A
C1690  O1786   1.389   .     S
C1690  C1693   1.406   .     A
C1691  C1694   1.398   .     A
C1692  C1722   1.438   .     S
C1692  O1792   1.296   .     A
C1692  O1791   1.292   .     A
C1693  C1695   1.392   .     A
C1694  N1778   1.437   .     S
C1694  C1696   1.403   .     A
C1695  C1697   1.405   .     A
C1695  N1779   1.438   .     S
C1696  C1702   1.419   .     A
C1696  C1698   1.419   .     A
C1697  C1699   1.418   .     A
C1697  C1704   1.414   .     A
C1698  C1700   1.421   .     A
C1698  C619    1.403   1_556 S
C1699  C1701   1.418   .     A
C1700  C1714   1.422   .     A
C1701  C1703   1.413   .     A
C1702  N1780   1.436   .     S
C1702  C623    1.397   1_556 S
C1703  N1782   1.435   .     S
C1704  N1781   1.436   .     S
C1705  O1798   1.412   .     S
C1705  H1723   1.108   .     S
C1705  H1734   1.115   .     S
C1705  C1706   1.524   .     S
C1706  H1767   1.107   .     S
C1706  H1756   1.109   .     S
C1706  H1745   1.106   .     S
C1707  H1770   1.114   .     S
C1707  O1786   1.412   .     S
C1707  H1769   1.102   .     S
C1707  C1708   1.527   .     S
C1708  H1724   1.108   .     S
C1708  H1772   1.110   .     S
C1708  H1771   1.108   .     S
C1709  H1748   1.115   .     S
C1709  H1747   1.103   .     S
C1709  C1710   1.521   .     S
C1709  O1787   1.412   .     S
C1710  H1751   1.108   .     S
C1710  H1750   1.110   .     S
C1710  H1749   1.109   .     S
C1711  O1788   1.418   .     S
C1711  H1753   1.117   .     S
C1711  C1712   1.521   .     S
C1711  H1752   1.109   .     S
C1712  H1755   1.110   .     S
C1712  H1754   1.110   .     S
C1712  H1757   1.108   .     S
C1713  H1758   1.105   .     S
C1713  H1759   1.119   .     S
C1713  C1715   1.525   .     S
C1713  O1789   1.425   .     S
C1714  N1783   1.433   .     S
C1714  C624    1.392   1_556 S
C1715  H1761   1.111   .     S
C1715  H1762   1.108   .     S
C1716  H1763   1.112   .     S
C1716  C1717   1.521   .     S
C1716  O1790   1.418   .     S
C1716  H1764   1.117   .     S
C1717  H1768   1.107   .     S
C1717  H1765   1.109   .     S
C1717  H1766   1.110   .     S
C1718  N1784   1.440   .     S
C1719  C1722   1.416   .     A
C1719  N1774   1.437   .     S
C1719  C1481   1.380   1_655 S
C1720  C1722   1.414   .     A
C1720  N1775   1.437   .     S
C1720  C1478   1.382   1_655 S
C1721  N1776   1.440   .     S
H1725  N1778   1.045   .     S
H1726  N1778   1.046   .     S
H1727  N1779   1.045   .     S
H1728  N1779   1.041   .     S
H1729  N1780   1.045   .     S
H1730  N1780   1.044   .     S
H1731  N1781   1.045   .     S
H1732  N1781   1.043   .     S
H1733  N1782   1.046   .     S
H1735  N1782   1.045   .     S
H1736  N1783   1.045   .     S
H1737  N1783   1.040   .     S
H1738  N1784   1.045   .     S
H1739  N1784   1.045   .     S
H1740  N1774   1.043   .     S
H1741  N1774   1.045   .     S
H1742  N1775   1.045   .     S
H1743  N1775   1.044   .     S
H1744  N1776   1.046   .     S
H1746  N1776   1.045   .     S
H1760  C2075   1.109   .     S
N1773  Zn1799  2.029   .     S
N1777  Zn1800  2.029   .     S
O1785  Zn1799  2.014   .     S
O1791  Zn1800  2.014   .     S
O1792  Zn1799  2.013   .     S
O1793  Zn1800  2.013   .     S
O1794  Zn1799  2.006   .     S
O1795  Zn1800  2.006   .     S
O1796  Zn1799  2.006   .     S
O1797  Zn1800  2.006   .     S
C1801  C1802   1.427   .     S
C1801  O1913   1.291   .     A
C1801  O1905   1.290   .     A
C1802  C1841   1.406   .     A
C1802  C1838   1.404   .     A
C1803  O1907   1.379   .     S
C1803  N1897   1.373   .     A
C1804  O1908   1.379   .     S
C1804  N1893   1.372   .     A
C1804  C1085   1.427   1_565 S
C1805  N1897   1.367   .     A
C1805  O1909   1.380   .     S
C1806  O1910   1.378   .     S
C1806  N1893   1.371   .     A
C1806  C1083   1.424   1_565 S
C1807  O1917   1.296   .     A
C1807  O1914   1.289   .     A
C1807  C1813   1.431   .     S
C1808  O1915   1.297   .     A
C1808  C1811   1.433   .     S
C1808  O1916   1.287   .     A
C1809  O1918   1.386   .     S
C1809  C1820   1.409   .     A
C1809  C1811   1.405   .     A
C1810  C1821   1.405   .     A
C1810  O1906   1.389   .     S
C1810  C1813   1.406   .     A
C1811  C1814   1.398   .     A
C1812  C1842   1.438   .     S
C1812  O1912   1.296   .     A
C1812  O1911   1.292   .     A
C1813  C1815   1.392   .     A
C1814  N1898   1.437   .     S
C1814  C1816   1.403   .     A
C1815  C1817   1.405   .     A
C1815  N1899   1.438   .     S
C1816  C1822   1.419   .     A
C1816  C1818   1.419   .     A
C1817  C1819   1.418   .     A
C1817  C1824   1.414   .     A
C1818  C1820   1.421   .     A
C1818  C739    1.403   1_556 S
C1819  C1821   1.418   .     A
C1820  C1834   1.422   .     A
C1821  C1823   1.413   .     A
C1822  N1900   1.436   .     S
C1822  C743    1.397   1_556 S
C1823  N1902   1.435   .     S
C1824  N1901   1.436   .     S
C1825  O1918   1.412   .     S
C1825  H1843   1.108   .     S
C1825  H1854   1.115   .     S
C1825  C1826   1.524   .     S
C1826  H1887   1.107   .     S
C1826  H1876   1.109   .     S
C1826  H1865   1.106   .     S
C1827  H1890   1.114   .     S
C1827  O1906   1.412   .     S
C1827  H1889   1.102   .     S
C1827  C1828   1.527   .     S
C1828  H1844   1.108   .     S
C1828  H1892   1.110   .     S
C1828  H1891   1.108   .     S
C1829  H1868   1.115   .     S
C1829  H1867   1.103   .     S
C1829  C1830   1.521   .     S
C1829  O1907   1.412   .     S
C1830  H1871   1.108   .     S
C1830  H1870   1.110   .     S
C1830  H1869   1.109   .     S
C1831  O1908   1.418   .     S
C1831  H1873   1.117   .     S
C1831  C1832   1.521   .     S
C1831  H1872   1.109   .     S
C1832  H1875   1.110   .     S
C1832  H1874   1.110   .     S
C1832  H1877   1.108   .     S
C1833  H1878   1.105   .     S
C1833  H1879   1.119   .     S
C1833  C1835   1.525   .     S
C1833  O1909   1.425   .     S
C1834  N1903   1.433   .     S
C1834  C744    1.392   1_556 S
C1835  H1881   1.111   .     S
C1835  H1882   1.108   .     S
C1836  H1883   1.112   .     S
C1836  C1837   1.521   .     S
C1836  O1910   1.418   .     S
C1836  H1884   1.117   .     S
C1837  H1888   1.107   .     S
C1837  H1885   1.109   .     S
C1837  H1886   1.110   .     S
C1838  N1904   1.440   .     S
C1838  C2080   1.382   1_455 S
C1839  C1842   1.416   .     A
C1839  N1894   1.437   .     S
C1839  C1961   1.380   .     S
C1840  C1842   1.414   .     A
C1840  N1895   1.437   .     S
C1840  C1958   1.382   .     S
C1841  N1896   1.440   .     S
C1841  C2079   1.380   1_455 S
H1845  N1898   1.045   .     S
H1846  N1898   1.046   .     S
H1847  N1899   1.045   .     S
H1848  N1899   1.041   .     S
H1849  N1900   1.045   .     S
H1850  N1900   1.044   .     S
H1851  N1901   1.045   .     S
H1852  N1901   1.043   .     S
H1853  N1902   1.046   .     S
H1855  N1902   1.045   .     S
H1856  N1903   1.045   .     S
H1857  N1903   1.040   .     S
H1858  N1904   1.045   .     S
H1859  N1904   1.045   .     S
H1860  N1894   1.043   .     S
H1861  N1894   1.045   .     S
H1862  N1895   1.045   .     S
H1863  N1895   1.044   .     S
H1864  N1896   1.046   .     S
H1866  N1896   1.045   .     S
H1880  C1115   1.109   1_565 S
N1893  Zn1919  2.029   .     S
N1897  Zn1920  2.029   .     S
O1905  Zn1919  2.014   .     S
O1911  Zn1920  2.014   .     S
O1912  Zn1919  2.013   .     S
O1913  Zn1920  2.013   .     S
O1914  Zn1919  2.006   .     S
O1915  Zn1920  2.006   .     S
O1916  Zn1919  2.006   .     S
O1917  Zn1920  2.006   .     S
C1921  C1922   1.427   .     S
C1921  O2033   1.291   .     A
C1921  O2025   1.290   .     A
C1922  C1961   1.406   .     A
C1922  C1958   1.404   .     A
C1923  O2027   1.379   .     S
C1923  N2017   1.373   .     A
C1924  O2028   1.379   .     S
C1924  N2013   1.372   .     A
C1924  C1205   1.427   1_565 S
C1925  N2017   1.367   .     A
C1925  O2029   1.380   .     S
C1926  O2030   1.378   .     S
C1926  N2013   1.371   .     A
C1926  C1203   1.424   1_565 S
C1927  O2037   1.296   .     A
C1927  O2034   1.289   .     A
C1927  C1933   1.431   .     S
C1928  O2035   1.297   .     A
C1928  C1931   1.433   .     S
C1928  O2036   1.287   .     A
C1929  O2038   1.386   .     S
C1929  C1940   1.409   .     A
C1929  C1931   1.405   .     A
C1930  C1941   1.405   .     A
C1930  O2026   1.389   .     S
C1930  C1933   1.406   .     A
C1931  C1934   1.398   .     A
C1932  C1962   1.438   .     S
C1932  O2032   1.296   .     A
C1932  O2031   1.292   .     A
C1933  C1935   1.392   .     A
C1934  N2018   1.437   .     S
C1934  C1936   1.403   .     A
C1935  C1937   1.405   .     A
C1935  N2019   1.438   .     S
C1936  C1942   1.419   .     A
C1936  C1938   1.419   .     A
C1937  C1939   1.418   .     A
C1937  C1944   1.414   .     A
C1938  C1940   1.421   .     A
C1938  C859    1.403   1_556 S
C1939  C1941   1.418   .     A
C1940  C1954   1.422   .     A
C1941  C1943   1.413   .     A
C1942  N2020   1.436   .     S
C1942  C863    1.397   1_556 S
C1943  N2022   1.435   .     S
C1944  N2021   1.436   .     S
C1945  O2038   1.412   .     S
C1945  H1963   1.108   .     S
C1945  H1974   1.115   .     S
C1945  C1946   1.524   .     S
C1946  H2007   1.107   .     S
C1946  H1996   1.109   .     S
C1946  H1985   1.106   .     S
C1947  H2010   1.114   .     S
C1947  O2026   1.412   .     S
C1947  H2009   1.102   .     S
C1947  C1948   1.527   .     S
C1948  H1964   1.108   .     S
C1948  H2012   1.110   .     S
C1948  H2011   1.108   .     S
C1949  H1988   1.115   .     S
C1949  H1987   1.103   .     S
C1949  C1950   1.521   .     S
C1949  O2027   1.412   .     S
C1950  H1991   1.108   .     S
C1950  H1990   1.110   .     S
C1950  H1989   1.109   .     S
C1951  O2028   1.418   .     S
C1951  H1993   1.117   .     S
C1951  C1952   1.521   .     S
C1951  H1992   1.109   .     S
C1952  H1995   1.110   .     S
C1952  H1994   1.110   .     S
C1952  H1997   1.108   .     S
C1953  H1998   1.105   .     S
C1953  H1999   1.119   .     S
C1953  C1955   1.525   .     S
C1953  O2029   1.425   .     S
C1954  N2023   1.433   .     S
C1954  C864    1.392   1_556 S
C1955  H2001   1.111   .     S
C1955  H2002   1.108   .     S
C1956  H2003   1.112   .     S
C1956  C1957   1.521   .     S
C1956  O2030   1.418   .     S
C1956  H2004   1.117   .     S
C1957  H2008   1.107   .     S
C1957  H2005   1.109   .     S
C1957  H2006   1.110   .     S
C1958  N2024   1.440   .     S
C1959  C1962   1.416   .     A
C1959  N2014   1.437   .     S
C1959  C2081   1.380   .     S
C1960  C1962   1.414   .     A
C1960  N2015   1.437   .     S
C1960  C2078   1.382   .     S
C1961  N2016   1.440   .     S
H1965  N2018   1.045   .     S
H1966  N2018   1.046   .     S
H1967  N2019   1.045   .     S
H1968  N2019   1.041   .     S
H1969  N2020   1.045   .     S
H1970  N2020   1.044   .     S
H1971  N2021   1.045   .     S
H1972  N2021   1.043   .     S
H1973  N2022   1.046   .     S
H1975  N2022   1.045   .     S
H1976  N2023   1.045   .     S
H1977  N2023   1.040   .     S
H1978  N2024   1.045   .     S
H1979  N2024   1.045   .     S
H1980  N2014   1.043   .     S
H1981  N2014   1.045   .     S
H1982  N2015   1.045   .     S
H1983  N2015   1.044   .     S
H1984  N2016   1.046   .     S
H1986  N2016   1.045   .     S
H2000  C1235   1.109   1_565 S
N2013  Zn2039  2.029   .     S
N2017  Zn2040  2.029   .     S
O2025  Zn2039  2.014   .     S
O2031  Zn2040  2.014   .     S
O2032  Zn2039  2.013   .     S
O2033  Zn2040  2.013   .     S
O2034  Zn2039  2.006   .     S
O2035  Zn2040  2.006   .     S
O2036  Zn2039  2.006   .     S
O2037  Zn2040  2.006   .     S
C2041  C2042   1.427   .     S
C2041  O2153   1.291   .     A
C2041  O2145   1.290   .     A
C2042  C2081   1.406   .     A
C2042  C2078   1.404   .     A
C2043  O2147   1.379   .     S
C2043  N2137   1.373   .     A
C2044  O2148   1.379   .     S
C2044  N2133   1.372   .     A
C2044  C1325   1.427   1_565 S
C2045  N2137   1.367   .     A
C2045  O2149   1.380   .     S
C2046  O2150   1.378   .     S
C2046  N2133   1.371   .     A
C2046  C1323   1.424   1_565 S
C2047  O2157   1.296   .     A
C2047  O2154   1.289   .     A
C2047  C2053   1.431   .     S
C2048  O2155   1.297   .     A
C2048  C2051   1.433   .     S
C2048  O2156   1.287   .     A
C2049  O2158   1.386   .     S
C2049  C2060   1.409   .     A
C2049  C2051   1.405   .     A
C2050  C2061   1.405   .     A
C2050  O2146   1.389   .     S
C2050  C2053   1.406   .     A
C2051  C2054   1.398   .     A
C2052  C2082   1.438   .     S
C2052  O2152   1.296   .     A
C2052  O2151   1.292   .     A
C2053  C2055   1.392   .     A
C2054  N2138   1.437   .     S
C2054  C2056   1.403   .     A
C2055  C2057   1.405   .     A
C2055  N2139   1.438   .     S
C2056  C2062   1.419   .     A
C2056  C2058   1.419   .     A
C2057  C2059   1.418   .     A
C2057  C2064   1.414   .     A
C2058  C2060   1.421   .     A
C2058  C979    1.403   1_556 S
C2059  C2061   1.418   .     A
C2060  C2074   1.422   .     A
C2061  C2063   1.413   .     A
C2062  N2140   1.436   .     S
C2062  C983    1.397   1_556 S
C2063  N2142   1.435   .     S
C2064  N2141   1.436   .     S
C2065  O2158   1.412   .     S
C2065  H2083   1.108   .     S
C2065  H2094   1.115   .     S
C2065  C2066   1.524   .     S
C2066  H2127   1.107   .     S
C2066  H2116   1.109   .     S
C2066  H2105   1.106   .     S
C2067  H2130   1.114   .     S
C2067  O2146   1.412   .     S
C2067  H2129   1.102   .     S
C2067  C2068   1.527   .     S
C2068  H2084   1.108   .     S
C2068  H2132   1.110   .     S
C2068  H2131   1.108   .     S
C2069  H2108   1.115   .     S
C2069  H2107   1.103   .     S
C2069  C2070   1.521   .     S
C2069  O2147   1.412   .     S
C2070  H2111   1.108   .     S
C2070  H2110   1.110   .     S
C2070  H2109   1.109   .     S
C2071  O2148   1.418   .     S
C2071  H2113   1.117   .     S
C2071  C2072   1.521   .     S
C2071  H2112   1.109   .     S
C2072  H2115   1.110   .     S
C2072  H2114   1.110   .     S
C2072  H2117   1.108   .     S
C2073  H2118   1.105   .     S
C2073  H2119   1.119   .     S
C2073  C2075   1.525   .     S
C2073  O2149   1.425   .     S
C2074  N2143   1.433   .     S
C2074  C984    1.392   1_556 S
C2075  H2121   1.111   .     S
C2075  H2122   1.108   .     S
C2076  H2123   1.112   .     S
C2076  C2077   1.521   .     S
C2076  O2150   1.418   .     S
C2076  H2124   1.117   .     S
C2077  H2128   1.107   .     S
C2077  H2125   1.109   .     S
C2077  H2126   1.110   .     S
C2078  N2144   1.440   .     S
C2079  C2082   1.416   .     A
C2079  N2134   1.437   .     S
C2079  C1841   1.380   1_655 S
C2080  C2082   1.414   .     A
C2080  N2135   1.437   .     S
C2080  C1838   1.382   1_655 S
C2081  N2136   1.440   .     S
H2085  N2138   1.045   .     S
H2086  N2138   1.046   .     S
H2087  N2139   1.045   .     S
H2088  N2139   1.041   .     S
H2089  N2140   1.045   .     S
H2090  N2140   1.044   .     S
H2091  N2141   1.045   .     S
H2092  N2141   1.043   .     S
H2093  N2142   1.046   .     S
H2095  N2142   1.045   .     S
H2096  N2143   1.045   .     S
H2097  N2143   1.040   .     S
H2098  N2144   1.045   .     S
H2099  N2144   1.045   .     S
H2100  N2134   1.043   .     S
H2101  N2134   1.045   .     S
H2102  N2135   1.045   .     S
H2103  N2135   1.044   .     S
H2104  N2136   1.046   .     S
H2106  N2136   1.045   .     S
H2120  C1355   1.109   1_565 S
N2133  Zn2159  2.029   .     S
N2137  Zn2160  2.029   .     S
O2145  Zn2159  2.014   .     S
O2151  Zn2160  2.014   .     S
O2152  Zn2159  2.013   .     S
O2153  Zn2160  2.013   .     S
O2154  Zn2159  2.006   .     S
O2155  Zn2160  2.006   .     S
O2156  Zn2159  2.006   .     S
O2157  Zn2160  2.006   .     S
