data_str_m3_o2_o10_pcu_sym.32
_audit_creation_date              2020-01-03
_audit_creation_method            'Materials Studio'
_symmetry_space_group_name_H-M    'P1'
_symmetry_Int_Tables_number       1
_symmetry_cell_setting            triclinic
loop_
_symmetry_equiv_pos_as_xyz
  x,y,z
_cell_length_a                    25.7027
_cell_length_b                    29.6957
_cell_length_c                    28.3473
_cell_angle_alpha                 89.9074
_cell_angle_beta                  98.6311
_cell_angle_gamma                 90.1051
loop_
_atom_site_label
_atom_site_type_symbol
_atom_site_fract_x
_atom_site_fract_y
_atom_site_fract_z
_atom_site_U_iso_or_equiv
_atom_site_adp_type
_atom_site_occupancy
C1     C     0.16520   0.16361   0.24986   0.00000  Uiso   1.00
C2     C     0.14286   0.21490   0.44418   0.00000  Uiso   1.00
C3     C     0.16660   0.25001   0.02667   0.00000  Uiso   1.00
C4     C     0.16658   0.25002   0.47330   0.00000  Uiso   1.00
C5     C     0.06700   0.24998   0.23753   0.00000  Uiso   1.00
C6     C     0.26633   0.24998   0.26246   0.00000  Uiso   1.00
C7     C     0.01197   0.24998   0.23078   0.00000  Uiso   1.00
C8     C     0.32136   0.24991   0.26920   0.00000  Uiso   1.00
C9     C     0.11967   0.05024   0.28315   0.00000  Uiso   1.00
C10    C     0.11570   0.44917   0.20708   0.00000  Uiso   1.00
C11    C     0.13218   0.09570   0.28506   0.00000  Uiso   1.00
C12    C     0.16553   0.33636   0.24981   0.00000  Uiso   1.00
C13    C     0.12857   0.40382   0.20760   0.00000  Uiso   1.00
C14    C     0.15561   0.11571   0.24870   0.00000  Uiso   1.00
C15    C     0.15649   0.38422   0.24866   0.00000  Uiso   1.00
C16    C     0.16662   0.09034   0.21001   0.00000  Uiso   1.00
C17    C     0.17216   0.40983   0.28952   0.00000  Uiso   1.00
C18    C     0.15634   0.04469   0.20864   0.00000  Uiso   1.00
C19    C     0.16177   0.45541   0.28878   0.00000  Uiso   1.00
C20    C     0.13382   0.02427   0.24537   0.00000  Uiso   1.00
C21    C     0.13423   0.47547   0.24767   0.00000  Uiso   1.00
C22    C     0.04673   0.01999   0.30981   0.00000  Uiso   1.00
C23    C     0.12508   0.23046   0.04701   0.00000  Uiso   1.00
C24    C     0.01155   0.06200   0.30730   0.00000  Uiso   1.00
C25    C     0.28663   0.04936   0.30076   0.00000  Uiso   1.00
C26    C     0.03845   0.48037   0.16882   0.00000  Uiso   1.00
C27    C     0.00264   0.43952   0.17358   0.00000  Uiso   1.00
C28    C     0.27872   0.45377   0.17227   0.00000  Uiso   1.00
C29    C     0.19029   0.28515   0.45054   0.00000  Uiso   1.00
C30    C     0.12598   0.23070   0.09676   0.00000  Uiso   1.00
C31    C     0.19003   0.28441   0.40089   0.00000  Uiso   1.00
C32    C     0.20730   0.26933   0.10771   0.00000  Uiso   1.00
C33    C     0.14320   0.21564   0.39461   0.00000  Uiso   1.00
C34    C     0.20815   0.26955   0.05821   0.00000  Uiso   1.00
H35    H     0.32466   0.25007   0.19434   0.00000  Uiso   1.00
H36    H     0.20835   0.31348   0.47070   0.00000  Uiso   1.00
H37    H     0.09387   0.21551   0.11179   0.00000  Uiso   1.00
H38    H     0.20845   0.31159   0.38400   0.00000  Uiso   1.00
H39    H     0.23941   0.28459   0.13136   0.00000  Uiso   1.00
H40    H     0.12473   0.18850   0.37277   0.00000  Uiso   1.00
H41    H     0.24161   0.28443   0.04498   0.00000  Uiso   1.00
H42    H     0.12475   0.18659   0.45950   0.00000  Uiso   1.00
H43    H     0.03638   0.49767   0.33850   0.00000  Uiso   1.00
H44    H     0.03864   0.00007   0.27645   0.00000  Uiso   1.00
H45    H     0.02142   0.08171   0.34075   0.00000  Uiso   1.00
H46    H     0.00868   0.24980   0.30564   0.00000  Uiso   1.00
H47    H     0.01862   0.08359   0.27684   0.00000  Uiso   1.00
H48    H     0.27547   0.03070   0.26686   0.00000  Uiso   1.00
H49    H     0.26246   0.08041   0.29951   0.00000  Uiso   1.00
H50    H     0.27797   0.02818   0.33098   0.00000  Uiso   1.00
H51    H     0.02258   0.49869   0.13559   0.00000  Uiso   1.00
H52    H     0.03718   0.00472   0.19819   0.00000  Uiso   1.00
H53    H     0.00526   0.41560   0.14391   0.00000  Uiso   1.00
H54    H     0.01564   0.42188   0.20791   0.00000  Uiso   1.00
H55    H     0.27510   0.47719   0.20207   0.00000  Uiso   1.00
H56    H     0.25401   0.42363   0.17603   0.00000  Uiso   1.00
H57    H     0.12299   0.11536   0.31490   0.00000  Uiso   1.00
H58    H     0.26390   0.47059   0.13785   0.00000  Uiso   1.00
H59    H     0.11567   0.38377   0.17608   0.00000  Uiso   1.00
H60    H     0.18465   0.10552   0.18165   0.00000  Uiso   1.00
H61    H     0.19371   0.39484   0.32147   0.00000  Uiso   1.00
H62    H     0.16860   0.02494   0.18016   0.00000  Uiso   1.00
H63    H     0.17756   0.47537   0.31960   0.00000  Uiso   1.00
H64    H     0.09159   0.21560   0.02475   0.00000  Uiso   1.00
N65    N     0.16667   0.24999   0.12623   0.00000  Uiso   1.00
N66    N     0.16667   0.25001   0.37376   0.00000  Uiso   1.00
O67    O     0.16667   0.18453   0.28974   0.00000  Uiso   1.00
O68    O     0.09061   0.46753   0.16468   0.00000  Uiso   1.00
O69    O     0.16666   0.31546   0.21026   0.00000  Uiso   1.00
O70    O     0.16667   0.18453   0.21026   0.00000  Uiso   1.00
O71    O     0.16666   0.31547   0.28974   0.00000  Uiso   1.00
O72    O     0.09058   0.25000   0.28044   0.00000  Uiso   1.00
O73    O     0.24275   0.25000   0.21955   0.00000  Uiso   1.00
O74    O     0.09058   0.24999   0.20096   0.00000  Uiso   1.00
O75    O     0.24275   0.25000   0.29903   0.00000  Uiso   1.00
O76    O     0.10064   0.03112   0.32184   0.00000  Uiso   1.00
Zn77   Zn    0.16667   0.25000   0.30307   0.00000  Uiso   1.00
Zn78   Zn    0.16667   0.24999   0.19693   0.00000  Uiso   1.00
C79    C     0.49853   0.16361   0.24986   0.00000  Uiso   1.00
C80    C     0.47620   0.21490   0.44418   0.00000  Uiso   1.00
C81    C     0.49993   0.25001   0.02667   0.00000  Uiso   1.00
C82    C     0.49991   0.25002   0.47330   0.00000  Uiso   1.00
C83    C     0.40034   0.24998   0.23753   0.00000  Uiso   1.00
C84    C     0.59966   0.24998   0.26246   0.00000  Uiso   1.00
C85    C     0.34530   0.24998   0.23078   0.00000  Uiso   1.00
C86    C     0.65470   0.24991   0.26920   0.00000  Uiso   1.00
C87    C     0.45301   0.05024   0.28315   0.00000  Uiso   1.00
C88    C     0.44903   0.44917   0.20708   0.00000  Uiso   1.00
C89    C     0.46552   0.09570   0.28506   0.00000  Uiso   1.00
C90    C     0.49887   0.33636   0.24981   0.00000  Uiso   1.00
C91    C     0.46191   0.40382   0.20760   0.00000  Uiso   1.00
C92    C     0.48894   0.11571   0.24870   0.00000  Uiso   1.00
C93    C     0.48983   0.38422   0.24866   0.00000  Uiso   1.00
C94    C     0.49996   0.09034   0.21001   0.00000  Uiso   1.00
C95    C     0.50549   0.40983   0.28952   0.00000  Uiso   1.00
C96    C     0.48967   0.04469   0.20864   0.00000  Uiso   1.00
C97    C     0.49510   0.45541   0.28878   0.00000  Uiso   1.00
C98    C     0.46715   0.02427   0.24537   0.00000  Uiso   1.00
C99    C     0.46756   0.47547   0.24767   0.00000  Uiso   1.00
C100   C     0.38006   0.01999   0.30981   0.00000  Uiso   1.00
C101   C     0.45841   0.23046   0.04701   0.00000  Uiso   1.00
C102   C     0.34488   0.06200   0.30730   0.00000  Uiso   1.00
C103   C     0.61996   0.04936   0.30076   0.00000  Uiso   1.00
C104   C     0.37178   0.48037   0.16882   0.00000  Uiso   1.00
C105   C     0.33597   0.43952   0.17358   0.00000  Uiso   1.00
C106   C     0.61206   0.45377   0.17227   0.00000  Uiso   1.00
C107   C     0.52362   0.28515   0.45054   0.00000  Uiso   1.00
C108   C     0.45931   0.23070   0.09676   0.00000  Uiso   1.00
C109   C     0.52336   0.28441   0.40089   0.00000  Uiso   1.00
C110   C     0.54063   0.26933   0.10771   0.00000  Uiso   1.00
C111   C     0.47653   0.21564   0.39461   0.00000  Uiso   1.00
C112   C     0.54148   0.26955   0.05821   0.00000  Uiso   1.00
H113   H     0.65799   0.25007   0.19434   0.00000  Uiso   1.00
H114   H     0.54168   0.31348   0.47070   0.00000  Uiso   1.00
H115   H     0.42720   0.21551   0.11179   0.00000  Uiso   1.00
H116   H     0.54178   0.31159   0.38400   0.00000  Uiso   1.00
H117   H     0.57275   0.28459   0.13136   0.00000  Uiso   1.00
H118   H     0.45807   0.18850   0.37277   0.00000  Uiso   1.00
H119   H     0.57494   0.28443   0.04498   0.00000  Uiso   1.00
H120   H     0.45808   0.18659   0.45950   0.00000  Uiso   1.00
H121   H     0.36971   0.49767   0.33850   0.00000  Uiso   1.00
H122   H     0.37197   0.00007   0.27645   0.00000  Uiso   1.00
H123   H     0.35476   0.08171   0.34075   0.00000  Uiso   1.00
H124   H     0.34202   0.24980   0.30564   0.00000  Uiso   1.00
H125   H     0.35196   0.08359   0.27684   0.00000  Uiso   1.00
H126   H     0.60881   0.03070   0.26686   0.00000  Uiso   1.00
H127   H     0.59579   0.08041   0.29951   0.00000  Uiso   1.00
H128   H     0.61130   0.02818   0.33098   0.00000  Uiso   1.00
H129   H     0.35591   0.49869   0.13559   0.00000  Uiso   1.00
H130   H     0.37051   0.00472   0.19819   0.00000  Uiso   1.00
H131   H     0.33860   0.41560   0.14391   0.00000  Uiso   1.00
H132   H     0.34897   0.42188   0.20791   0.00000  Uiso   1.00
H133   H     0.60843   0.47719   0.20207   0.00000  Uiso   1.00
H134   H     0.58734   0.42363   0.17603   0.00000  Uiso   1.00
H135   H     0.45633   0.11536   0.31490   0.00000  Uiso   1.00
H136   H     0.59723   0.47059   0.13785   0.00000  Uiso   1.00
H137   H     0.44900   0.38377   0.17608   0.00000  Uiso   1.00
H138   H     0.51798   0.10552   0.18165   0.00000  Uiso   1.00
H139   H     0.52704   0.39484   0.32147   0.00000  Uiso   1.00
H140   H     0.50194   0.02494   0.18016   0.00000  Uiso   1.00
H141   H     0.51089   0.47537   0.31960   0.00000  Uiso   1.00
H142   H     0.42492   0.21560   0.02475   0.00000  Uiso   1.00
N143   N     0.50000   0.24999   0.12623   0.00000  Uiso   1.00
N144   N     0.50000   0.25001   0.37376   0.00000  Uiso   1.00
O145   O     0.50000   0.18453   0.28974   0.00000  Uiso   1.00
O146   O     0.42394   0.46753   0.16468   0.00000  Uiso   1.00
O147   O     0.50000   0.31546   0.21026   0.00000  Uiso   1.00
O148   O     0.50000   0.18453   0.21026   0.00000  Uiso   1.00
O149   O     0.50000   0.31547   0.28974   0.00000  Uiso   1.00
O150   O     0.42392   0.25000   0.28044   0.00000  Uiso   1.00
O151   O     0.57608   0.25000   0.21955   0.00000  Uiso   1.00
O152   O     0.42392   0.24999   0.20096   0.00000  Uiso   1.00
O153   O     0.57608   0.25000   0.29903   0.00000  Uiso   1.00
O154   O     0.43398   0.03112   0.32184   0.00000  Uiso   1.00
Zn155  Zn    0.50000   0.25000   0.30307   0.00000  Uiso   1.00
Zn156  Zn    0.50000   0.24999   0.19693   0.00000  Uiso   1.00
C157   C     0.83186   0.16361   0.24986   0.00000  Uiso   1.00
C158   C     0.80953   0.21490   0.44418   0.00000  Uiso   1.00
C159   C     0.83326   0.25001   0.02667   0.00000  Uiso   1.00
C160   C     0.83325   0.25002   0.47330   0.00000  Uiso   1.00
C161   C     0.73367   0.24998   0.23753   0.00000  Uiso   1.00
C162   C     0.93299   0.24998   0.26246   0.00000  Uiso   1.00
C163   C     0.67864   0.24998   0.23078   0.00000  Uiso   1.00
C164   C     0.98803   0.24991   0.26920   0.00000  Uiso   1.00
C165   C     0.78634   0.05024   0.28315   0.00000  Uiso   1.00
C166   C     0.78237   0.44917   0.20708   0.00000  Uiso   1.00
C167   C     0.79885   0.09570   0.28506   0.00000  Uiso   1.00
C168   C     0.83220   0.33636   0.24981   0.00000  Uiso   1.00
C169   C     0.79524   0.40382   0.20760   0.00000  Uiso   1.00
C170   C     0.82228   0.11571   0.24870   0.00000  Uiso   1.00
C171   C     0.82316   0.38422   0.24866   0.00000  Uiso   1.00
C172   C     0.83329   0.09034   0.21001   0.00000  Uiso   1.00
C173   C     0.83882   0.40983   0.28952   0.00000  Uiso   1.00
C174   C     0.82300   0.04469   0.20864   0.00000  Uiso   1.00
C175   C     0.82844   0.45541   0.28878   0.00000  Uiso   1.00
C176   C     0.80049   0.02427   0.24537   0.00000  Uiso   1.00
C177   C     0.80089   0.47547   0.24767   0.00000  Uiso   1.00
C178   C     0.71339   0.01999   0.30981   0.00000  Uiso   1.00
C179   C     0.79174   0.23046   0.04701   0.00000  Uiso   1.00
C180   C     0.67822   0.06200   0.30730   0.00000  Uiso   1.00
C181   C     0.95329   0.04936   0.30076   0.00000  Uiso   1.00
C182   C     0.70511   0.48037   0.16882   0.00000  Uiso   1.00
C183   C     0.66930   0.43952   0.17358   0.00000  Uiso   1.00
C184   C     0.94539   0.45377   0.17227   0.00000  Uiso   1.00
C185   C     0.85696   0.28515   0.45054   0.00000  Uiso   1.00
C186   C     0.79265   0.23070   0.09676   0.00000  Uiso   1.00
C187   C     0.85670   0.28441   0.40089   0.00000  Uiso   1.00
C188   C     0.87397   0.26933   0.10771   0.00000  Uiso   1.00
C189   C     0.80987   0.21564   0.39461   0.00000  Uiso   1.00
C190   C     0.87481   0.26955   0.05821   0.00000  Uiso   1.00
H191   H     0.99133   0.25007   0.19434   0.00000  Uiso   1.00
H192   H     0.87502   0.31348   0.47070   0.00000  Uiso   1.00
H193   H     0.76053   0.21551   0.11179   0.00000  Uiso   1.00
H194   H     0.87512   0.31159   0.38400   0.00000  Uiso   1.00
H195   H     0.90608   0.28459   0.13136   0.00000  Uiso   1.00
H196   H     0.79140   0.18850   0.37277   0.00000  Uiso   1.00
H197   H     0.90828   0.28443   0.04498   0.00000  Uiso   1.00
H198   H     0.79141   0.18659   0.45950   0.00000  Uiso   1.00
H199   H     0.70304   0.49767   0.33850   0.00000  Uiso   1.00
H200   H     0.70530   0.00007   0.27645   0.00000  Uiso   1.00
H201   H     0.68809   0.08171   0.34075   0.00000  Uiso   1.00
H202   H     0.67535   0.24980   0.30564   0.00000  Uiso   1.00
H203   H     0.68529   0.08359   0.27684   0.00000  Uiso   1.00
H204   H     0.94214   0.03070   0.26686   0.00000  Uiso   1.00
H205   H     0.92913   0.08041   0.29951   0.00000  Uiso   1.00
H206   H     0.94464   0.02818   0.33098   0.00000  Uiso   1.00
H207   H     0.68924   0.49869   0.13559   0.00000  Uiso   1.00
H208   H     0.70385   0.00472   0.19819   0.00000  Uiso   1.00
H209   H     0.67193   0.41560   0.14391   0.00000  Uiso   1.00
H210   H     0.68231   0.42188   0.20791   0.00000  Uiso   1.00
H211   H     0.94177   0.47719   0.20207   0.00000  Uiso   1.00
H212   H     0.92068   0.42363   0.17603   0.00000  Uiso   1.00
H213   H     0.78966   0.11536   0.31490   0.00000  Uiso   1.00
H214   H     0.93056   0.47059   0.13785   0.00000  Uiso   1.00
H215   H     0.78234   0.38377   0.17608   0.00000  Uiso   1.00
H216   H     0.85132   0.10552   0.18165   0.00000  Uiso   1.00
H217   H     0.86038   0.39484   0.32147   0.00000  Uiso   1.00
H218   H     0.83527   0.02494   0.18016   0.00000  Uiso   1.00
H219   H     0.84422   0.47537   0.31960   0.00000  Uiso   1.00
H220   H     0.75825   0.21560   0.02475   0.00000  Uiso   1.00
N221   N     0.83333   0.24999   0.12623   0.00000  Uiso   1.00
N222   N     0.83333   0.25001   0.37376   0.00000  Uiso   1.00
O223   O     0.83334   0.18453   0.28974   0.00000  Uiso   1.00
O224   O     0.75728   0.46753   0.16468   0.00000  Uiso   1.00
O225   O     0.83333   0.31546   0.21026   0.00000  Uiso   1.00
O226   O     0.83334   0.18453   0.21026   0.00000  Uiso   1.00
O227   O     0.83333   0.31547   0.28974   0.00000  Uiso   1.00
O228   O     0.75725   0.25000   0.28044   0.00000  Uiso   1.00
O229   O     0.90942   0.25000   0.21955   0.00000  Uiso   1.00
O230   O     0.75725   0.24999   0.20096   0.00000  Uiso   1.00
O231   O     0.90942   0.25000   0.29903   0.00000  Uiso   1.00
O232   O     0.76731   0.03112   0.32184   0.00000  Uiso   1.00
Zn233  Zn    0.83333   0.25000   0.30307   0.00000  Uiso   1.00
Zn234  Zn    0.83333   0.24999   0.19693   0.00000  Uiso   1.00
C235   C     0.16520   0.66361   0.24986   0.00000  Uiso   1.00
C236   C     0.14286   0.71490   0.44418   0.00000  Uiso   1.00
C237   C     0.16660   0.75001   0.02667   0.00000  Uiso   1.00
C238   C     0.16658   0.75002   0.47330   0.00000  Uiso   1.00
C239   C     0.06700   0.74998   0.23753   0.00000  Uiso   1.00
C240   C     0.26633   0.74998   0.26246   0.00000  Uiso   1.00
C241   C     0.01197   0.74998   0.23078   0.00000  Uiso   1.00
C242   C     0.32136   0.74991   0.26920   0.00000  Uiso   1.00
C243   C     0.11967   0.55024   0.28315   0.00000  Uiso   1.00
C244   C     0.11570   0.94917   0.20708   0.00000  Uiso   1.00
C245   C     0.13218   0.59570   0.28506   0.00000  Uiso   1.00
C246   C     0.16553   0.83636   0.24981   0.00000  Uiso   1.00
C247   C     0.12857   0.90382   0.20760   0.00000  Uiso   1.00
C248   C     0.15561   0.61571   0.24870   0.00000  Uiso   1.00
C249   C     0.15649   0.88422   0.24866   0.00000  Uiso   1.00
C250   C     0.16662   0.59034   0.21001   0.00000  Uiso   1.00
C251   C     0.17216   0.90983   0.28952   0.00000  Uiso   1.00
C252   C     0.15634   0.54469   0.20864   0.00000  Uiso   1.00
C253   C     0.16177   0.95541   0.28878   0.00000  Uiso   1.00
C254   C     0.13382   0.52427   0.24537   0.00000  Uiso   1.00
C255   C     0.13423   0.97547   0.24767   0.00000  Uiso   1.00
C256   C     0.04673   0.51999   0.30981   0.00000  Uiso   1.00
C257   C     0.12508   0.73046   0.04701   0.00000  Uiso   1.00
C258   C     0.01155   0.56200   0.30730   0.00000  Uiso   1.00
C259   C     0.28663   0.54936   0.30076   0.00000  Uiso   1.00
C260   C     0.03845   0.98037   0.16882   0.00000  Uiso   1.00
C261   C     0.00264   0.93952   0.17358   0.00000  Uiso   1.00
C262   C     0.27872   0.95377   0.17227   0.00000  Uiso   1.00
C263   C     0.19029   0.78515   0.45054   0.00000  Uiso   1.00
C264   C     0.12598   0.73070   0.09676   0.00000  Uiso   1.00
C265   C     0.19003   0.78441   0.40089   0.00000  Uiso   1.00
C266   C     0.20730   0.76933   0.10771   0.00000  Uiso   1.00
C267   C     0.14320   0.71564   0.39461   0.00000  Uiso   1.00
C268   C     0.20815   0.76955   0.05821   0.00000  Uiso   1.00
H269   H     0.32466   0.75007   0.19434   0.00000  Uiso   1.00
H270   H     0.20835   0.81348   0.47070   0.00000  Uiso   1.00
H271   H     0.09387   0.71551   0.11179   0.00000  Uiso   1.00
H272   H     0.20845   0.81159   0.38400   0.00000  Uiso   1.00
H273   H     0.23941   0.78459   0.13136   0.00000  Uiso   1.00
H274   H     0.12473   0.68850   0.37277   0.00000  Uiso   1.00
H275   H     0.24161   0.78443   0.04498   0.00000  Uiso   1.00
H276   H     0.12475   0.68659   0.45950   0.00000  Uiso   1.00
H277   H     0.03638   0.99767   0.33850   0.00000  Uiso   1.00
H278   H     0.03864   0.50007   0.27645   0.00000  Uiso   1.00
H279   H     0.02142   0.58171   0.34075   0.00000  Uiso   1.00
H280   H     0.00868   0.74980   0.30564   0.00000  Uiso   1.00
H281   H     0.01862   0.58359   0.27684   0.00000  Uiso   1.00
H282   H     0.27547   0.53070   0.26686   0.00000  Uiso   1.00
H283   H     0.26246   0.58041   0.29951   0.00000  Uiso   1.00
H284   H     0.27797   0.52818   0.33098   0.00000  Uiso   1.00
H285   H     0.02258   0.99869   0.13559   0.00000  Uiso   1.00
H286   H     0.03718   0.50472   0.19819   0.00000  Uiso   1.00
H287   H     0.00526   0.91560   0.14391   0.00000  Uiso   1.00
H288   H     0.01564   0.92188   0.20791   0.00000  Uiso   1.00
H289   H     0.27510   0.97719   0.20207   0.00000  Uiso   1.00
H290   H     0.25401   0.92363   0.17603   0.00000  Uiso   1.00
H291   H     0.12299   0.61536   0.31490   0.00000  Uiso   1.00
H292   H     0.26390   0.97059   0.13785   0.00000  Uiso   1.00
H293   H     0.11567   0.88377   0.17608   0.00000  Uiso   1.00
H294   H     0.18465   0.60552   0.18165   0.00000  Uiso   1.00
H295   H     0.19371   0.89484   0.32147   0.00000  Uiso   1.00
H296   H     0.16860   0.52494   0.18016   0.00000  Uiso   1.00
H297   H     0.17756   0.97537   0.31960   0.00000  Uiso   1.00
H298   H     0.09159   0.71560   0.02475   0.00000  Uiso   1.00
N299   N     0.16667   0.74999   0.12623   0.00000  Uiso   1.00
N300   N     0.16667   0.75001   0.37376   0.00000  Uiso   1.00
O301   O     0.16667   0.68453   0.28974   0.00000  Uiso   1.00
O302   O     0.09061   0.96753   0.16468   0.00000  Uiso   1.00
O303   O     0.16666   0.81546   0.21026   0.00000  Uiso   1.00
O304   O     0.16667   0.68453   0.21026   0.00000  Uiso   1.00
O305   O     0.16666   0.81547   0.28974   0.00000  Uiso   1.00
O306   O     0.09058   0.75000   0.28044   0.00000  Uiso   1.00
O307   O     0.24275   0.75000   0.21955   0.00000  Uiso   1.00
O308   O     0.09058   0.74999   0.20096   0.00000  Uiso   1.00
O309   O     0.24275   0.75000   0.29903   0.00000  Uiso   1.00
O310   O     0.10064   0.53112   0.32184   0.00000  Uiso   1.00
Zn311  Zn    0.16667   0.75000   0.30307   0.00000  Uiso   1.00
Zn312  Zn    0.16667   0.74999   0.19693   0.00000  Uiso   1.00
C313   C     0.49853   0.66361   0.24986   0.00000  Uiso   1.00
C314   C     0.47620   0.71490   0.44418   0.00000  Uiso   1.00
C315   C     0.49993   0.75001   0.02667   0.00000  Uiso   1.00
C316   C     0.49991   0.75002   0.47330   0.00000  Uiso   1.00
C317   C     0.40034   0.74998   0.23753   0.00000  Uiso   1.00
C318   C     0.59966   0.74998   0.26246   0.00000  Uiso   1.00
C319   C     0.34530   0.74998   0.23078   0.00000  Uiso   1.00
C320   C     0.65470   0.74991   0.26920   0.00000  Uiso   1.00
C321   C     0.45301   0.55024   0.28315   0.00000  Uiso   1.00
C322   C     0.44903   0.94917   0.20708   0.00000  Uiso   1.00
C323   C     0.46552   0.59570   0.28506   0.00000  Uiso   1.00
C324   C     0.49887   0.83636   0.24981   0.00000  Uiso   1.00
C325   C     0.46191   0.90382   0.20760   0.00000  Uiso   1.00
C326   C     0.48894   0.61571   0.24870   0.00000  Uiso   1.00
C327   C     0.48983   0.88422   0.24866   0.00000  Uiso   1.00
C328   C     0.49996   0.59034   0.21001   0.00000  Uiso   1.00
C329   C     0.50549   0.90983   0.28952   0.00000  Uiso   1.00
C330   C     0.48967   0.54469   0.20864   0.00000  Uiso   1.00
C331   C     0.49510   0.95541   0.28878   0.00000  Uiso   1.00
C332   C     0.46715   0.52427   0.24537   0.00000  Uiso   1.00
C333   C     0.46756   0.97547   0.24767   0.00000  Uiso   1.00
C334   C     0.38006   0.51999   0.30981   0.00000  Uiso   1.00
C335   C     0.45841   0.73046   0.04701   0.00000  Uiso   1.00
C336   C     0.34488   0.56200   0.30730   0.00000  Uiso   1.00
C337   C     0.61996   0.54936   0.30076   0.00000  Uiso   1.00
C338   C     0.37178   0.98037   0.16882   0.00000  Uiso   1.00
C339   C     0.33597   0.93952   0.17358   0.00000  Uiso   1.00
C340   C     0.61206   0.95377   0.17227   0.00000  Uiso   1.00
C341   C     0.52362   0.78515   0.45054   0.00000  Uiso   1.00
C342   C     0.45931   0.73070   0.09676   0.00000  Uiso   1.00
C343   C     0.52336   0.78441   0.40089   0.00000  Uiso   1.00
C344   C     0.54063   0.76933   0.10771   0.00000  Uiso   1.00
C345   C     0.47653   0.71564   0.39461   0.00000  Uiso   1.00
C346   C     0.54148   0.76955   0.05821   0.00000  Uiso   1.00
H347   H     0.65799   0.75007   0.19434   0.00000  Uiso   1.00
H348   H     0.54168   0.81348   0.47070   0.00000  Uiso   1.00
H349   H     0.42720   0.71551   0.11179   0.00000  Uiso   1.00
H350   H     0.54178   0.81159   0.38400   0.00000  Uiso   1.00
H351   H     0.57275   0.78459   0.13136   0.00000  Uiso   1.00
H352   H     0.45807   0.68850   0.37277   0.00000  Uiso   1.00
H353   H     0.57494   0.78443   0.04498   0.00000  Uiso   1.00
H354   H     0.45808   0.68659   0.45950   0.00000  Uiso   1.00
H355   H     0.36971   0.99767   0.33850   0.00000  Uiso   1.00
H356   H     0.37197   0.50007   0.27645   0.00000  Uiso   1.00
H357   H     0.35476   0.58171   0.34075   0.00000  Uiso   1.00
H358   H     0.34202   0.74980   0.30564   0.00000  Uiso   1.00
H359   H     0.35196   0.58359   0.27684   0.00000  Uiso   1.00
H360   H     0.60881   0.53070   0.26686   0.00000  Uiso   1.00
H361   H     0.59579   0.58041   0.29951   0.00000  Uiso   1.00
H362   H     0.61130   0.52818   0.33098   0.00000  Uiso   1.00
H363   H     0.35591   0.99869   0.13559   0.00000  Uiso   1.00
H364   H     0.37051   0.50472   0.19819   0.00000  Uiso   1.00
H365   H     0.33860   0.91560   0.14391   0.00000  Uiso   1.00
H366   H     0.34897   0.92188   0.20791   0.00000  Uiso   1.00
H367   H     0.60843   0.97719   0.20207   0.00000  Uiso   1.00
H368   H     0.58734   0.92363   0.17603   0.00000  Uiso   1.00
H369   H     0.45633   0.61536   0.31490   0.00000  Uiso   1.00
H370   H     0.59723   0.97059   0.13785   0.00000  Uiso   1.00
H371   H     0.44900   0.88377   0.17608   0.00000  Uiso   1.00
H372   H     0.51798   0.60552   0.18165   0.00000  Uiso   1.00
H373   H     0.52704   0.89484   0.32147   0.00000  Uiso   1.00
H374   H     0.50194   0.52494   0.18016   0.00000  Uiso   1.00
H375   H     0.51089   0.97537   0.31960   0.00000  Uiso   1.00
H376   H     0.42492   0.71560   0.02475   0.00000  Uiso   1.00
N377   N     0.50000   0.74999   0.12623   0.00000  Uiso   1.00
N378   N     0.50000   0.75001   0.37376   0.00000  Uiso   1.00
O379   O     0.50000   0.68453   0.28974   0.00000  Uiso   1.00
O380   O     0.42394   0.96753   0.16468   0.00000  Uiso   1.00
O381   O     0.50000   0.81546   0.21026   0.00000  Uiso   1.00
O382   O     0.50000   0.68453   0.21026   0.00000  Uiso   1.00
O383   O     0.50000   0.81547   0.28974   0.00000  Uiso   1.00
O384   O     0.42392   0.75000   0.28044   0.00000  Uiso   1.00
O385   O     0.57608   0.75000   0.21955   0.00000  Uiso   1.00
O386   O     0.42392   0.74999   0.20096   0.00000  Uiso   1.00
O387   O     0.57608   0.75000   0.29903   0.00000  Uiso   1.00
O388   O     0.43398   0.53112   0.32184   0.00000  Uiso   1.00
Zn389  Zn    0.50000   0.75000   0.30307   0.00000  Uiso   1.00
Zn390  Zn    0.50000   0.74999   0.19693   0.00000  Uiso   1.00
C391   C     0.83186   0.66361   0.24986   0.00000  Uiso   1.00
C392   C     0.80953   0.71490   0.44418   0.00000  Uiso   1.00
C393   C     0.83326   0.75001   0.02667   0.00000  Uiso   1.00
C394   C     0.83325   0.75002   0.47330   0.00000  Uiso   1.00
C395   C     0.73367   0.74998   0.23753   0.00000  Uiso   1.00
C396   C     0.93299   0.74998   0.26246   0.00000  Uiso   1.00
C397   C     0.67864   0.74998   0.23078   0.00000  Uiso   1.00
C398   C     0.98803   0.74991   0.26920   0.00000  Uiso   1.00
C399   C     0.78634   0.55024   0.28315   0.00000  Uiso   1.00
C400   C     0.78237   0.94917   0.20708   0.00000  Uiso   1.00
C401   C     0.79885   0.59570   0.28506   0.00000  Uiso   1.00
C402   C     0.83220   0.83636   0.24981   0.00000  Uiso   1.00
C403   C     0.79524   0.90382   0.20760   0.00000  Uiso   1.00
C404   C     0.82228   0.61571   0.24870   0.00000  Uiso   1.00
C405   C     0.82316   0.88422   0.24866   0.00000  Uiso   1.00
C406   C     0.83329   0.59034   0.21001   0.00000  Uiso   1.00
C407   C     0.83882   0.90983   0.28952   0.00000  Uiso   1.00
C408   C     0.82300   0.54469   0.20864   0.00000  Uiso   1.00
C409   C     0.82844   0.95541   0.28878   0.00000  Uiso   1.00
C410   C     0.80049   0.52427   0.24537   0.00000  Uiso   1.00
C411   C     0.80089   0.97547   0.24767   0.00000  Uiso   1.00
C412   C     0.71339   0.51999   0.30981   0.00000  Uiso   1.00
C413   C     0.79174   0.73046   0.04701   0.00000  Uiso   1.00
C414   C     0.67822   0.56200   0.30730   0.00000  Uiso   1.00
C415   C     0.95329   0.54936   0.30076   0.00000  Uiso   1.00
C416   C     0.70511   0.98037   0.16882   0.00000  Uiso   1.00
C417   C     0.66930   0.93952   0.17358   0.00000  Uiso   1.00
C418   C     0.94539   0.95377   0.17227   0.00000  Uiso   1.00
C419   C     0.85696   0.78515   0.45054   0.00000  Uiso   1.00
C420   C     0.79265   0.73070   0.09676   0.00000  Uiso   1.00
C421   C     0.85670   0.78441   0.40089   0.00000  Uiso   1.00
C422   C     0.87397   0.76933   0.10771   0.00000  Uiso   1.00
C423   C     0.80987   0.71564   0.39461   0.00000  Uiso   1.00
C424   C     0.87481   0.76955   0.05821   0.00000  Uiso   1.00
H425   H     0.99133   0.75007   0.19434   0.00000  Uiso   1.00
H426   H     0.87502   0.81348   0.47070   0.00000  Uiso   1.00
H427   H     0.76053   0.71551   0.11179   0.00000  Uiso   1.00
H428   H     0.87512   0.81159   0.38400   0.00000  Uiso   1.00
H429   H     0.90608   0.78459   0.13136   0.00000  Uiso   1.00
H430   H     0.79140   0.68850   0.37277   0.00000  Uiso   1.00
H431   H     0.90828   0.78443   0.04498   0.00000  Uiso   1.00
H432   H     0.79141   0.68659   0.45950   0.00000  Uiso   1.00
H433   H     0.70304   0.99767   0.33850   0.00000  Uiso   1.00
H434   H     0.70530   0.50007   0.27645   0.00000  Uiso   1.00
H435   H     0.68809   0.58171   0.34075   0.00000  Uiso   1.00
H436   H     0.67535   0.74980   0.30564   0.00000  Uiso   1.00
H437   H     0.68529   0.58359   0.27684   0.00000  Uiso   1.00
H438   H     0.94214   0.53070   0.26686   0.00000  Uiso   1.00
H439   H     0.92913   0.58041   0.29951   0.00000  Uiso   1.00
H440   H     0.94464   0.52818   0.33098   0.00000  Uiso   1.00
H441   H     0.68924   0.99869   0.13559   0.00000  Uiso   1.00
H442   H     0.70385   0.50472   0.19819   0.00000  Uiso   1.00
H443   H     0.67193   0.91560   0.14391   0.00000  Uiso   1.00
H444   H     0.68231   0.92188   0.20791   0.00000  Uiso   1.00
H445   H     0.94177   0.97719   0.20207   0.00000  Uiso   1.00
H446   H     0.92068   0.92363   0.17603   0.00000  Uiso   1.00
H447   H     0.78966   0.61536   0.31490   0.00000  Uiso   1.00
H448   H     0.93056   0.97059   0.13785   0.00000  Uiso   1.00
H449   H     0.78234   0.88377   0.17608   0.00000  Uiso   1.00
H450   H     0.85132   0.60552   0.18165   0.00000  Uiso   1.00
H451   H     0.86038   0.89484   0.32147   0.00000  Uiso   1.00
H452   H     0.83527   0.52494   0.18016   0.00000  Uiso   1.00
H453   H     0.84422   0.97537   0.31960   0.00000  Uiso   1.00
H454   H     0.75825   0.71560   0.02475   0.00000  Uiso   1.00
N455   N     0.83333   0.74999   0.12623   0.00000  Uiso   1.00
N456   N     0.83333   0.75001   0.37376   0.00000  Uiso   1.00
O457   O     0.83334   0.68453   0.28974   0.00000  Uiso   1.00
O458   O     0.75728   0.96753   0.16468   0.00000  Uiso   1.00
O459   O     0.83333   0.81546   0.21026   0.00000  Uiso   1.00
O460   O     0.83334   0.68453   0.21026   0.00000  Uiso   1.00
O461   O     0.83333   0.81547   0.28974   0.00000  Uiso   1.00
O462   O     0.75725   0.75000   0.28044   0.00000  Uiso   1.00
O463   O     0.90942   0.75000   0.21955   0.00000  Uiso   1.00
O464   O     0.75725   0.74999   0.20096   0.00000  Uiso   1.00
O465   O     0.90942   0.75000   0.29903   0.00000  Uiso   1.00
O466   O     0.76731   0.53112   0.32184   0.00000  Uiso   1.00
Zn467  Zn    0.83333   0.75000   0.30307   0.00000  Uiso   1.00
Zn468  Zn    0.83333   0.74999   0.19693   0.00000  Uiso   1.00
C469   C     0.16520   0.16361   0.74986   0.00000  Uiso   1.00
C470   C     0.14286   0.21490   0.94418   0.00000  Uiso   1.00
C471   C     0.16660   0.25001   0.52667   0.00000  Uiso   1.00
C472   C     0.16658   0.25002   0.97330   0.00000  Uiso   1.00
C473   C     0.06700   0.24998   0.73753   0.00000  Uiso   1.00
C474   C     0.26633   0.24998   0.76246   0.00000  Uiso   1.00
C475   C     0.01197   0.24998   0.73078   0.00000  Uiso   1.00
C476   C     0.32136   0.24991   0.76920   0.00000  Uiso   1.00
C477   C     0.11967   0.05024   0.78315   0.00000  Uiso   1.00
C478   C     0.11570   0.44917   0.70708   0.00000  Uiso   1.00
C479   C     0.13218   0.09570   0.78506   0.00000  Uiso   1.00
C480   C     0.16553   0.33636   0.74981   0.00000  Uiso   1.00
C481   C     0.12857   0.40382   0.70760   0.00000  Uiso   1.00
C482   C     0.15561   0.11571   0.74870   0.00000  Uiso   1.00
C483   C     0.15649   0.38422   0.74866   0.00000  Uiso   1.00
C484   C     0.16662   0.09034   0.71001   0.00000  Uiso   1.00
C485   C     0.17216   0.40983   0.78952   0.00000  Uiso   1.00
C486   C     0.15634   0.04469   0.70864   0.00000  Uiso   1.00
C487   C     0.16177   0.45541   0.78878   0.00000  Uiso   1.00
C488   C     0.13382   0.02427   0.74537   0.00000  Uiso   1.00
C489   C     0.13423   0.47547   0.74767   0.00000  Uiso   1.00
C490   C     0.04673   0.01999   0.80981   0.00000  Uiso   1.00
C491   C     0.12508   0.23046   0.54701   0.00000  Uiso   1.00
C492   C     0.01155   0.06200   0.80730   0.00000  Uiso   1.00
C493   C     0.28663   0.04936   0.80076   0.00000  Uiso   1.00
C494   C     0.03845   0.48037   0.66882   0.00000  Uiso   1.00
C495   C     0.00264   0.43952   0.67358   0.00000  Uiso   1.00
C496   C     0.27872   0.45377   0.67227   0.00000  Uiso   1.00
C497   C     0.19029   0.28515   0.95054   0.00000  Uiso   1.00
C498   C     0.12598   0.23070   0.59676   0.00000  Uiso   1.00
C499   C     0.19003   0.28441   0.90089   0.00000  Uiso   1.00
C500   C     0.20730   0.26933   0.60771   0.00000  Uiso   1.00
C501   C     0.14320   0.21564   0.89461   0.00000  Uiso   1.00
C502   C     0.20815   0.26955   0.55821   0.00000  Uiso   1.00
H503   H     0.32466   0.25007   0.69434   0.00000  Uiso   1.00
H504   H     0.20835   0.31348   0.97070   0.00000  Uiso   1.00
H505   H     0.09387   0.21551   0.61179   0.00000  Uiso   1.00
H506   H     0.20845   0.31159   0.88400   0.00000  Uiso   1.00
H507   H     0.23941   0.28459   0.63136   0.00000  Uiso   1.00
H508   H     0.12473   0.18850   0.87277   0.00000  Uiso   1.00
H509   H     0.24161   0.28443   0.54498   0.00000  Uiso   1.00
H510   H     0.12475   0.18659   0.95950   0.00000  Uiso   1.00
H511   H     0.03638   0.49767   0.83850   0.00000  Uiso   1.00
H512   H     0.03864   0.00007   0.77645   0.00000  Uiso   1.00
H513   H     0.02142   0.08171   0.84075   0.00000  Uiso   1.00
H514   H     0.00868   0.24980   0.80564   0.00000  Uiso   1.00
H515   H     0.01862   0.08359   0.77684   0.00000  Uiso   1.00
H516   H     0.27547   0.03070   0.76686   0.00000  Uiso   1.00
H517   H     0.26246   0.08041   0.79951   0.00000  Uiso   1.00
H518   H     0.27797   0.02818   0.83098   0.00000  Uiso   1.00
H519   H     0.02258   0.49869   0.63559   0.00000  Uiso   1.00
H520   H     0.03718   0.00472   0.69819   0.00000  Uiso   1.00
H521   H     0.00526   0.41560   0.64391   0.00000  Uiso   1.00
H522   H     0.01564   0.42188   0.70791   0.00000  Uiso   1.00
H523   H     0.27510   0.47719   0.70207   0.00000  Uiso   1.00
H524   H     0.25401   0.42363   0.67603   0.00000  Uiso   1.00
H525   H     0.12299   0.11536   0.81490   0.00000  Uiso   1.00
H526   H     0.26390   0.47059   0.63785   0.00000  Uiso   1.00
H527   H     0.11567   0.38377   0.67608   0.00000  Uiso   1.00
H528   H     0.18465   0.10552   0.68165   0.00000  Uiso   1.00
H529   H     0.19371   0.39484   0.82147   0.00000  Uiso   1.00
H530   H     0.16860   0.02494   0.68016   0.00000  Uiso   1.00
H531   H     0.17756   0.47537   0.81960   0.00000  Uiso   1.00
H532   H     0.09159   0.21560   0.52475   0.00000  Uiso   1.00
N533   N     0.16667   0.24999   0.62623   0.00000  Uiso   1.00
N534   N     0.16667   0.25001   0.87376   0.00000  Uiso   1.00
O535   O     0.16667   0.18453   0.78974   0.00000  Uiso   1.00
O536   O     0.09061   0.46753   0.66468   0.00000  Uiso   1.00
O537   O     0.16666   0.31546   0.71026   0.00000  Uiso   1.00
O538   O     0.16667   0.18453   0.71026   0.00000  Uiso   1.00
O539   O     0.16666   0.31547   0.78974   0.00000  Uiso   1.00
O540   O     0.09058   0.25000   0.78044   0.00000  Uiso   1.00
O541   O     0.24275   0.25000   0.71955   0.00000  Uiso   1.00
O542   O     0.09058   0.24999   0.70096   0.00000  Uiso   1.00
O543   O     0.24275   0.25000   0.79903   0.00000  Uiso   1.00
O544   O     0.10064   0.03112   0.82184   0.00000  Uiso   1.00
Zn545  Zn    0.16667   0.25000   0.80307   0.00000  Uiso   1.00
Zn546  Zn    0.16667   0.24999   0.69693   0.00000  Uiso   1.00
C547   C     0.49853   0.16361   0.74986   0.00000  Uiso   1.00
C548   C     0.47620   0.21490   0.94418   0.00000  Uiso   1.00
C549   C     0.49993   0.25001   0.52667   0.00000  Uiso   1.00
C550   C     0.49991   0.25002   0.97330   0.00000  Uiso   1.00
C551   C     0.40034   0.24998   0.73753   0.00000  Uiso   1.00
C552   C     0.59966   0.24998   0.76246   0.00000  Uiso   1.00
C553   C     0.34530   0.24998   0.73078   0.00000  Uiso   1.00
C554   C     0.65470   0.24991   0.76920   0.00000  Uiso   1.00
C555   C     0.45301   0.05024   0.78315   0.00000  Uiso   1.00
C556   C     0.44903   0.44917   0.70708   0.00000  Uiso   1.00
C557   C     0.46552   0.09570   0.78506   0.00000  Uiso   1.00
C558   C     0.49887   0.33636   0.74981   0.00000  Uiso   1.00
C559   C     0.46191   0.40382   0.70760   0.00000  Uiso   1.00
C560   C     0.48894   0.11571   0.74870   0.00000  Uiso   1.00
C561   C     0.48983   0.38422   0.74866   0.00000  Uiso   1.00
C562   C     0.49996   0.09034   0.71001   0.00000  Uiso   1.00
C563   C     0.50549   0.40983   0.78952   0.00000  Uiso   1.00
C564   C     0.48967   0.04469   0.70864   0.00000  Uiso   1.00
C565   C     0.49510   0.45541   0.78878   0.00000  Uiso   1.00
C566   C     0.46715   0.02427   0.74537   0.00000  Uiso   1.00
C567   C     0.46756   0.47547   0.74767   0.00000  Uiso   1.00
C568   C     0.38006   0.01999   0.80981   0.00000  Uiso   1.00
C569   C     0.45841   0.23046   0.54701   0.00000  Uiso   1.00
C570   C     0.34488   0.06200   0.80730   0.00000  Uiso   1.00
C571   C     0.61996   0.04936   0.80076   0.00000  Uiso   1.00
C572   C     0.37178   0.48037   0.66882   0.00000  Uiso   1.00
C573   C     0.33597   0.43952   0.67358   0.00000  Uiso   1.00
C574   C     0.61206   0.45377   0.67227   0.00000  Uiso   1.00
C575   C     0.52362   0.28515   0.95054   0.00000  Uiso   1.00
C576   C     0.45931   0.23070   0.59676   0.00000  Uiso   1.00
C577   C     0.52336   0.28441   0.90089   0.00000  Uiso   1.00
C578   C     0.54063   0.26933   0.60771   0.00000  Uiso   1.00
C579   C     0.47653   0.21564   0.89461   0.00000  Uiso   1.00
C580   C     0.54148   0.26955   0.55821   0.00000  Uiso   1.00
H581   H     0.65799   0.25007   0.69434   0.00000  Uiso   1.00
H582   H     0.54168   0.31348   0.97070   0.00000  Uiso   1.00
H583   H     0.42720   0.21551   0.61179   0.00000  Uiso   1.00
H584   H     0.54178   0.31159   0.88400   0.00000  Uiso   1.00
H585   H     0.57275   0.28459   0.63136   0.00000  Uiso   1.00
H586   H     0.45807   0.18850   0.87277   0.00000  Uiso   1.00
H587   H     0.57494   0.28443   0.54498   0.00000  Uiso   1.00
H588   H     0.45808   0.18659   0.95950   0.00000  Uiso   1.00
H589   H     0.36971   0.49767   0.83850   0.00000  Uiso   1.00
H590   H     0.37197   0.00007   0.77645   0.00000  Uiso   1.00
H591   H     0.35476   0.08171   0.84075   0.00000  Uiso   1.00
H592   H     0.34202   0.24980   0.80564   0.00000  Uiso   1.00
H593   H     0.35196   0.08359   0.77684   0.00000  Uiso   1.00
H594   H     0.60881   0.03070   0.76686   0.00000  Uiso   1.00
H595   H     0.59579   0.08041   0.79951   0.00000  Uiso   1.00
H596   H     0.61130   0.02818   0.83098   0.00000  Uiso   1.00
H597   H     0.35591   0.49869   0.63559   0.00000  Uiso   1.00
H598   H     0.37051   0.00472   0.69819   0.00000  Uiso   1.00
H599   H     0.33860   0.41560   0.64391   0.00000  Uiso   1.00
H600   H     0.34897   0.42188   0.70791   0.00000  Uiso   1.00
H601   H     0.60843   0.47719   0.70207   0.00000  Uiso   1.00
H602   H     0.58734   0.42363   0.67603   0.00000  Uiso   1.00
H603   H     0.45633   0.11536   0.81490   0.00000  Uiso   1.00
H604   H     0.59723   0.47059   0.63785   0.00000  Uiso   1.00
H605   H     0.44900   0.38377   0.67608   0.00000  Uiso   1.00
H606   H     0.51798   0.10552   0.68165   0.00000  Uiso   1.00
H607   H     0.52704   0.39484   0.82147   0.00000  Uiso   1.00
H608   H     0.50194   0.02494   0.68016   0.00000  Uiso   1.00
H609   H     0.51089   0.47537   0.81960   0.00000  Uiso   1.00
H610   H     0.42492   0.21560   0.52475   0.00000  Uiso   1.00
N611   N     0.50000   0.24999   0.62623   0.00000  Uiso   1.00
N612   N     0.50000   0.25001   0.87376   0.00000  Uiso   1.00
O613   O     0.50000   0.18453   0.78974   0.00000  Uiso   1.00
O614   O     0.42394   0.46753   0.66468   0.00000  Uiso   1.00
O615   O     0.50000   0.31546   0.71026   0.00000  Uiso   1.00
O616   O     0.50000   0.18453   0.71026   0.00000  Uiso   1.00
O617   O     0.50000   0.31547   0.78974   0.00000  Uiso   1.00
O618   O     0.42392   0.25000   0.78044   0.00000  Uiso   1.00
O619   O     0.57608   0.25000   0.71955   0.00000  Uiso   1.00
O620   O     0.42392   0.24999   0.70096   0.00000  Uiso   1.00
O621   O     0.57608   0.25000   0.79903   0.00000  Uiso   1.00
O622   O     0.43398   0.03112   0.82184   0.00000  Uiso   1.00
Zn623  Zn    0.50000   0.25000   0.80307   0.00000  Uiso   1.00
Zn624  Zn    0.50000   0.24999   0.69693   0.00000  Uiso   1.00
C625   C     0.83186   0.16361   0.74986   0.00000  Uiso   1.00
C626   C     0.80953   0.21490   0.94418   0.00000  Uiso   1.00
C627   C     0.83326   0.25001   0.52667   0.00000  Uiso   1.00
C628   C     0.83325   0.25002   0.97330   0.00000  Uiso   1.00
C629   C     0.73367   0.24998   0.73753   0.00000  Uiso   1.00
C630   C     0.93299   0.24998   0.76246   0.00000  Uiso   1.00
C631   C     0.67864   0.24998   0.73078   0.00000  Uiso   1.00
C632   C     0.98803   0.24991   0.76920   0.00000  Uiso   1.00
C633   C     0.78634   0.05024   0.78315   0.00000  Uiso   1.00
C634   C     0.78237   0.44917   0.70708   0.00000  Uiso   1.00
C635   C     0.79885   0.09570   0.78506   0.00000  Uiso   1.00
C636   C     0.83220   0.33636   0.74981   0.00000  Uiso   1.00
C637   C     0.79524   0.40382   0.70760   0.00000  Uiso   1.00
C638   C     0.82228   0.11571   0.74870   0.00000  Uiso   1.00
C639   C     0.82316   0.38422   0.74866   0.00000  Uiso   1.00
C640   C     0.83329   0.09034   0.71001   0.00000  Uiso   1.00
C641   C     0.83882   0.40983   0.78952   0.00000  Uiso   1.00
C642   C     0.82300   0.04469   0.70864   0.00000  Uiso   1.00
C643   C     0.82844   0.45541   0.78878   0.00000  Uiso   1.00
C644   C     0.80049   0.02427   0.74537   0.00000  Uiso   1.00
C645   C     0.80089   0.47547   0.74767   0.00000  Uiso   1.00
C646   C     0.71339   0.01999   0.80981   0.00000  Uiso   1.00
C647   C     0.79174   0.23046   0.54701   0.00000  Uiso   1.00
C648   C     0.67822   0.06200   0.80730   0.00000  Uiso   1.00
C649   C     0.95329   0.04936   0.80076   0.00000  Uiso   1.00
C650   C     0.70511   0.48037   0.66882   0.00000  Uiso   1.00
C651   C     0.66930   0.43952   0.67358   0.00000  Uiso   1.00
C652   C     0.94539   0.45377   0.67227   0.00000  Uiso   1.00
C653   C     0.85696   0.28515   0.95054   0.00000  Uiso   1.00
C654   C     0.79265   0.23070   0.59676   0.00000  Uiso   1.00
C655   C     0.85670   0.28441   0.90089   0.00000  Uiso   1.00
C656   C     0.87397   0.26933   0.60771   0.00000  Uiso   1.00
C657   C     0.80987   0.21564   0.89461   0.00000  Uiso   1.00
C658   C     0.87481   0.26955   0.55821   0.00000  Uiso   1.00
H659   H     0.99133   0.25007   0.69434   0.00000  Uiso   1.00
H660   H     0.87502   0.31348   0.97070   0.00000  Uiso   1.00
H661   H     0.76053   0.21551   0.61179   0.00000  Uiso   1.00
H662   H     0.87512   0.31159   0.88400   0.00000  Uiso   1.00
H663   H     0.90608   0.28459   0.63136   0.00000  Uiso   1.00
H664   H     0.79140   0.18850   0.87277   0.00000  Uiso   1.00
H665   H     0.90828   0.28443   0.54498   0.00000  Uiso   1.00
H666   H     0.79141   0.18659   0.95950   0.00000  Uiso   1.00
H667   H     0.70304   0.49767   0.83850   0.00000  Uiso   1.00
H668   H     0.70530   0.00007   0.77645   0.00000  Uiso   1.00
H669   H     0.68809   0.08171   0.84075   0.00000  Uiso   1.00
H670   H     0.67535   0.24980   0.80564   0.00000  Uiso   1.00
H671   H     0.68529   0.08359   0.77684   0.00000  Uiso   1.00
H672   H     0.94214   0.03070   0.76686   0.00000  Uiso   1.00
H673   H     0.92913   0.08041   0.79951   0.00000  Uiso   1.00
H674   H     0.94464   0.02818   0.83098   0.00000  Uiso   1.00
H675   H     0.68924   0.49869   0.63559   0.00000  Uiso   1.00
H676   H     0.70385   0.00472   0.69819   0.00000  Uiso   1.00
H677   H     0.67193   0.41560   0.64391   0.00000  Uiso   1.00
H678   H     0.68231   0.42188   0.70791   0.00000  Uiso   1.00
H679   H     0.94177   0.47719   0.70207   0.00000  Uiso   1.00
H680   H     0.92068   0.42363   0.67603   0.00000  Uiso   1.00
H681   H     0.78966   0.11536   0.81490   0.00000  Uiso   1.00
H682   H     0.93056   0.47059   0.63785   0.00000  Uiso   1.00
H683   H     0.78234   0.38377   0.67608   0.00000  Uiso   1.00
H684   H     0.85132   0.10552   0.68165   0.00000  Uiso   1.00
H685   H     0.86038   0.39484   0.82147   0.00000  Uiso   1.00
H686   H     0.83527   0.02494   0.68016   0.00000  Uiso   1.00
H687   H     0.84422   0.47537   0.81960   0.00000  Uiso   1.00
H688   H     0.75825   0.21560   0.52475   0.00000  Uiso   1.00
N689   N     0.83333   0.24999   0.62623   0.00000  Uiso   1.00
N690   N     0.83333   0.25001   0.87376   0.00000  Uiso   1.00
O691   O     0.83334   0.18453   0.78974   0.00000  Uiso   1.00
O692   O     0.75728   0.46753   0.66468   0.00000  Uiso   1.00
O693   O     0.83333   0.31546   0.71026   0.00000  Uiso   1.00
O694   O     0.83334   0.18453   0.71026   0.00000  Uiso   1.00
O695   O     0.83333   0.31547   0.78974   0.00000  Uiso   1.00
O696   O     0.75725   0.25000   0.78044   0.00000  Uiso   1.00
O697   O     0.90942   0.25000   0.71955   0.00000  Uiso   1.00
O698   O     0.75725   0.24999   0.70096   0.00000  Uiso   1.00
O699   O     0.90942   0.25000   0.79903   0.00000  Uiso   1.00
O700   O     0.76731   0.03112   0.82184   0.00000  Uiso   1.00
Zn701  Zn    0.83333   0.25000   0.80307   0.00000  Uiso   1.00
Zn702  Zn    0.83333   0.24999   0.69693   0.00000  Uiso   1.00
C703   C     0.16520   0.66361   0.74986   0.00000  Uiso   1.00
C704   C     0.14286   0.71490   0.94418   0.00000  Uiso   1.00
C705   C     0.16660   0.75001   0.52667   0.00000  Uiso   1.00
C706   C     0.16658   0.75002   0.97330   0.00000  Uiso   1.00
C707   C     0.06700   0.74998   0.73753   0.00000  Uiso   1.00
C708   C     0.26633   0.74998   0.76246   0.00000  Uiso   1.00
C709   C     0.01197   0.74998   0.73078   0.00000  Uiso   1.00
C710   C     0.32136   0.74991   0.76920   0.00000  Uiso   1.00
C711   C     0.11967   0.55024   0.78315   0.00000  Uiso   1.00
C712   C     0.11570   0.94917   0.70708   0.00000  Uiso   1.00
C713   C     0.13218   0.59570   0.78506   0.00000  Uiso   1.00
C714   C     0.16553   0.83636   0.74981   0.00000  Uiso   1.00
C715   C     0.12857   0.90382   0.70760   0.00000  Uiso   1.00
C716   C     0.15561   0.61571   0.74870   0.00000  Uiso   1.00
C717   C     0.15649   0.88422   0.74866   0.00000  Uiso   1.00
C718   C     0.16662   0.59034   0.71001   0.00000  Uiso   1.00
C719   C     0.17216   0.90983   0.78952   0.00000  Uiso   1.00
C720   C     0.15634   0.54469   0.70864   0.00000  Uiso   1.00
C721   C     0.16177   0.95541   0.78878   0.00000  Uiso   1.00
C722   C     0.13382   0.52427   0.74537   0.00000  Uiso   1.00
C723   C     0.13423   0.97547   0.74767   0.00000  Uiso   1.00
C724   C     0.04673   0.51999   0.80981   0.00000  Uiso   1.00
C725   C     0.12508   0.73046   0.54701   0.00000  Uiso   1.00
C726   C     0.01155   0.56200   0.80730   0.00000  Uiso   1.00
C727   C     0.28663   0.54936   0.80076   0.00000  Uiso   1.00
C728   C     0.03845   0.98037   0.66882   0.00000  Uiso   1.00
C729   C     0.00264   0.93952   0.67358   0.00000  Uiso   1.00
C730   C     0.27872   0.95377   0.67227   0.00000  Uiso   1.00
C731   C     0.19029   0.78515   0.95054   0.00000  Uiso   1.00
C732   C     0.12598   0.73070   0.59676   0.00000  Uiso   1.00
C733   C     0.19003   0.78441   0.90089   0.00000  Uiso   1.00
C734   C     0.20730   0.76933   0.60771   0.00000  Uiso   1.00
C735   C     0.14320   0.71564   0.89461   0.00000  Uiso   1.00
C736   C     0.20815   0.76955   0.55821   0.00000  Uiso   1.00
H737   H     0.32466   0.75007   0.69434   0.00000  Uiso   1.00
H738   H     0.20835   0.81348   0.97070   0.00000  Uiso   1.00
H739   H     0.09387   0.71551   0.61179   0.00000  Uiso   1.00
H740   H     0.20845   0.81159   0.88400   0.00000  Uiso   1.00
H741   H     0.23941   0.78459   0.63136   0.00000  Uiso   1.00
H742   H     0.12473   0.68850   0.87277   0.00000  Uiso   1.00
H743   H     0.24161   0.78443   0.54498   0.00000  Uiso   1.00
H744   H     0.12475   0.68659   0.95950   0.00000  Uiso   1.00
H745   H     0.03638   0.99767   0.83850   0.00000  Uiso   1.00
H746   H     0.03864   0.50007   0.77645   0.00000  Uiso   1.00
H747   H     0.02142   0.58171   0.84075   0.00000  Uiso   1.00
H748   H     0.00868   0.74980   0.80564   0.00000  Uiso   1.00
H749   H     0.01862   0.58359   0.77684   0.00000  Uiso   1.00
H750   H     0.27547   0.53070   0.76686   0.00000  Uiso   1.00
H751   H     0.26246   0.58041   0.79951   0.00000  Uiso   1.00
H752   H     0.27797   0.52818   0.83098   0.00000  Uiso   1.00
H753   H     0.02258   0.99869   0.63559   0.00000  Uiso   1.00
H754   H     0.03718   0.50472   0.69819   0.00000  Uiso   1.00
H755   H     0.00526   0.91560   0.64391   0.00000  Uiso   1.00
H756   H     0.01564   0.92188   0.70791   0.00000  Uiso   1.00
H757   H     0.27510   0.97719   0.70207   0.00000  Uiso   1.00
H758   H     0.25401   0.92363   0.67603   0.00000  Uiso   1.00
H759   H     0.12299   0.61536   0.81490   0.00000  Uiso   1.00
H760   H     0.26390   0.97059   0.63785   0.00000  Uiso   1.00
H761   H     0.11567   0.88377   0.67608   0.00000  Uiso   1.00
H762   H     0.18465   0.60552   0.68165   0.00000  Uiso   1.00
H763   H     0.19371   0.89484   0.82147   0.00000  Uiso   1.00
H764   H     0.16860   0.52494   0.68016   0.00000  Uiso   1.00
H765   H     0.17756   0.97537   0.81960   0.00000  Uiso   1.00
H766   H     0.09159   0.71560   0.52475   0.00000  Uiso   1.00
N767   N     0.16667   0.74999   0.62623   0.00000  Uiso   1.00
N768   N     0.16667   0.75001   0.87376   0.00000  Uiso   1.00
O769   O     0.16667   0.68453   0.78974   0.00000  Uiso   1.00
O770   O     0.09061   0.96753   0.66468   0.00000  Uiso   1.00
O771   O     0.16666   0.81546   0.71026   0.00000  Uiso   1.00
O772   O     0.16667   0.68453   0.71026   0.00000  Uiso   1.00
O773   O     0.16666   0.81547   0.78974   0.00000  Uiso   1.00
O774   O     0.09058   0.75000   0.78044   0.00000  Uiso   1.00
O775   O     0.24275   0.75000   0.71955   0.00000  Uiso   1.00
O776   O     0.09058   0.74999   0.70096   0.00000  Uiso   1.00
O777   O     0.24275   0.75000   0.79903   0.00000  Uiso   1.00
O778   O     0.10064   0.53112   0.82184   0.00000  Uiso   1.00
Zn779  Zn    0.16667   0.75000   0.80307   0.00000  Uiso   1.00
Zn780  Zn    0.16667   0.74999   0.69693   0.00000  Uiso   1.00
C781   C     0.49853   0.66361   0.74986   0.00000  Uiso   1.00
C782   C     0.47620   0.71490   0.94418   0.00000  Uiso   1.00
C783   C     0.49993   0.75001   0.52667   0.00000  Uiso   1.00
C784   C     0.49991   0.75002   0.97330   0.00000  Uiso   1.00
C785   C     0.40034   0.74998   0.73753   0.00000  Uiso   1.00
C786   C     0.59966   0.74998   0.76246   0.00000  Uiso   1.00
C787   C     0.34530   0.74998   0.73078   0.00000  Uiso   1.00
C788   C     0.65470   0.74991   0.76920   0.00000  Uiso   1.00
C789   C     0.45301   0.55024   0.78315   0.00000  Uiso   1.00
C790   C     0.44903   0.94917   0.70708   0.00000  Uiso   1.00
C791   C     0.46552   0.59570   0.78506   0.00000  Uiso   1.00
C792   C     0.49887   0.83636   0.74981   0.00000  Uiso   1.00
C793   C     0.46191   0.90382   0.70760   0.00000  Uiso   1.00
C794   C     0.48894   0.61571   0.74870   0.00000  Uiso   1.00
C795   C     0.48983   0.88422   0.74866   0.00000  Uiso   1.00
C796   C     0.49996   0.59034   0.71001   0.00000  Uiso   1.00
C797   C     0.50549   0.90983   0.78952   0.00000  Uiso   1.00
C798   C     0.48967   0.54469   0.70864   0.00000  Uiso   1.00
C799   C     0.49510   0.95541   0.78878   0.00000  Uiso   1.00
C800   C     0.46715   0.52427   0.74537   0.00000  Uiso   1.00
C801   C     0.46756   0.97547   0.74767   0.00000  Uiso   1.00
C802   C     0.38006   0.51999   0.80981   0.00000  Uiso   1.00
C803   C     0.45841   0.73046   0.54701   0.00000  Uiso   1.00
C804   C     0.34488   0.56200   0.80730   0.00000  Uiso   1.00
C805   C     0.61996   0.54936   0.80076   0.00000  Uiso   1.00
C806   C     0.37178   0.98037   0.66882   0.00000  Uiso   1.00
C807   C     0.33597   0.93952   0.67358   0.00000  Uiso   1.00
C808   C     0.61206   0.95377   0.67227   0.00000  Uiso   1.00
C809   C     0.52362   0.78515   0.95054   0.00000  Uiso   1.00
C810   C     0.45931   0.73070   0.59676   0.00000  Uiso   1.00
C811   C     0.52336   0.78441   0.90089   0.00000  Uiso   1.00
C812   C     0.54063   0.76933   0.60771   0.00000  Uiso   1.00
C813   C     0.47653   0.71564   0.89461   0.00000  Uiso   1.00
C814   C     0.54148   0.76955   0.55821   0.00000  Uiso   1.00
H815   H     0.65799   0.75007   0.69434   0.00000  Uiso   1.00
H816   H     0.54168   0.81348   0.97070   0.00000  Uiso   1.00
H817   H     0.42720   0.71551   0.61179   0.00000  Uiso   1.00
H818   H     0.54178   0.81159   0.88400   0.00000  Uiso   1.00
H819   H     0.57275   0.78459   0.63136   0.00000  Uiso   1.00
H820   H     0.45807   0.68850   0.87277   0.00000  Uiso   1.00
H821   H     0.57494   0.78443   0.54498   0.00000  Uiso   1.00
H822   H     0.45808   0.68659   0.95950   0.00000  Uiso   1.00
H823   H     0.36971   0.99767   0.83850   0.00000  Uiso   1.00
H824   H     0.37197   0.50007   0.77645   0.00000  Uiso   1.00
H825   H     0.35476   0.58171   0.84075   0.00000  Uiso   1.00
H826   H     0.34202   0.74980   0.80564   0.00000  Uiso   1.00
H827   H     0.35196   0.58359   0.77684   0.00000  Uiso   1.00
H828   H     0.60881   0.53070   0.76686   0.00000  Uiso   1.00
H829   H     0.59579   0.58041   0.79951   0.00000  Uiso   1.00
H830   H     0.61130   0.52818   0.83098   0.00000  Uiso   1.00
H831   H     0.35591   0.99869   0.63559   0.00000  Uiso   1.00
H832   H     0.37051   0.50472   0.69819   0.00000  Uiso   1.00
H833   H     0.33860   0.91560   0.64391   0.00000  Uiso   1.00
H834   H     0.34897   0.92188   0.70791   0.00000  Uiso   1.00
H835   H     0.60843   0.97719   0.70207   0.00000  Uiso   1.00
H836   H     0.58734   0.92363   0.67603   0.00000  Uiso   1.00
H837   H     0.45633   0.61536   0.81490   0.00000  Uiso   1.00
H838   H     0.59723   0.97059   0.63785   0.00000  Uiso   1.00
H839   H     0.44900   0.88377   0.67608   0.00000  Uiso   1.00
H840   H     0.51798   0.60552   0.68165   0.00000  Uiso   1.00
H841   H     0.52704   0.89484   0.82147   0.00000  Uiso   1.00
H842   H     0.50194   0.52494   0.68016   0.00000  Uiso   1.00
H843   H     0.51089   0.97537   0.81960   0.00000  Uiso   1.00
H844   H     0.42492   0.71560   0.52475   0.00000  Uiso   1.00
N845   N     0.50000   0.74999   0.62623   0.00000  Uiso   1.00
N846   N     0.50000   0.75001   0.87376   0.00000  Uiso   1.00
O847   O     0.50000   0.68453   0.78974   0.00000  Uiso   1.00
O848   O     0.42394   0.96753   0.66468   0.00000  Uiso   1.00
O849   O     0.50000   0.81546   0.71026   0.00000  Uiso   1.00
O850   O     0.50000   0.68453   0.71026   0.00000  Uiso   1.00
O851   O     0.50000   0.81547   0.78974   0.00000  Uiso   1.00
O852   O     0.42392   0.75000   0.78044   0.00000  Uiso   1.00
O853   O     0.57608   0.75000   0.71955   0.00000  Uiso   1.00
O854   O     0.42392   0.74999   0.70096   0.00000  Uiso   1.00
O855   O     0.57608   0.75000   0.79903   0.00000  Uiso   1.00
O856   O     0.43398   0.53112   0.82184   0.00000  Uiso   1.00
Zn857  Zn    0.50000   0.75000   0.80307   0.00000  Uiso   1.00
Zn858  Zn    0.50000   0.74999   0.69693   0.00000  Uiso   1.00
C859   C     0.83186   0.66361   0.74986   0.00000  Uiso   1.00
C860   C     0.80953   0.71490   0.94418   0.00000  Uiso   1.00
C861   C     0.83326   0.75001   0.52667   0.00000  Uiso   1.00
C862   C     0.83325   0.75002   0.97330   0.00000  Uiso   1.00
C863   C     0.73367   0.74998   0.73753   0.00000  Uiso   1.00
C864   C     0.93299   0.74998   0.76246   0.00000  Uiso   1.00
C865   C     0.67864   0.74998   0.73078   0.00000  Uiso   1.00
C866   C     0.98803   0.74991   0.76920   0.00000  Uiso   1.00
C867   C     0.78634   0.55024   0.78315   0.00000  Uiso   1.00
C868   C     0.78237   0.94917   0.70708   0.00000  Uiso   1.00
C869   C     0.79885   0.59570   0.78506   0.00000  Uiso   1.00
C870   C     0.83220   0.83636   0.74981   0.00000  Uiso   1.00
C871   C     0.79524   0.90382   0.70760   0.00000  Uiso   1.00
C872   C     0.82228   0.61571   0.74870   0.00000  Uiso   1.00
C873   C     0.82316   0.88422   0.74866   0.00000  Uiso   1.00
C874   C     0.83329   0.59034   0.71001   0.00000  Uiso   1.00
C875   C     0.83882   0.90983   0.78952   0.00000  Uiso   1.00
C876   C     0.82300   0.54469   0.70864   0.00000  Uiso   1.00
C877   C     0.82844   0.95541   0.78878   0.00000  Uiso   1.00
C878   C     0.80049   0.52427   0.74537   0.00000  Uiso   1.00
C879   C     0.80089   0.97547   0.74767   0.00000  Uiso   1.00
C880   C     0.71339   0.51999   0.80981   0.00000  Uiso   1.00
C881   C     0.79174   0.73046   0.54701   0.00000  Uiso   1.00
C882   C     0.67822   0.56200   0.80730   0.00000  Uiso   1.00
C883   C     0.95329   0.54936   0.80076   0.00000  Uiso   1.00
C884   C     0.70511   0.98037   0.66882   0.00000  Uiso   1.00
C885   C     0.66930   0.93952   0.67358   0.00000  Uiso   1.00
C886   C     0.94539   0.95377   0.67227   0.00000  Uiso   1.00
C887   C     0.85696   0.78515   0.95054   0.00000  Uiso   1.00
C888   C     0.79265   0.73070   0.59676   0.00000  Uiso   1.00
C889   C     0.85670   0.78441   0.90089   0.00000  Uiso   1.00
C890   C     0.87397   0.76933   0.60771   0.00000  Uiso   1.00
C891   C     0.80987   0.71564   0.89461   0.00000  Uiso   1.00
C892   C     0.87481   0.76955   0.55821   0.00000  Uiso   1.00
H893   H     0.99133   0.75007   0.69434   0.00000  Uiso   1.00
H894   H     0.87502   0.81348   0.97070   0.00000  Uiso   1.00
H895   H     0.76053   0.71551   0.61179   0.00000  Uiso   1.00
H896   H     0.87512   0.81159   0.88400   0.00000  Uiso   1.00
H897   H     0.90608   0.78459   0.63136   0.00000  Uiso   1.00
H898   H     0.79140   0.68850   0.87277   0.00000  Uiso   1.00
H899   H     0.90828   0.78443   0.54498   0.00000  Uiso   1.00
H900   H     0.79141   0.68659   0.95950   0.00000  Uiso   1.00
H901   H     0.70304   0.99767   0.83850   0.00000  Uiso   1.00
H902   H     0.70530   0.50007   0.77645   0.00000  Uiso   1.00
H903   H     0.68809   0.58171   0.84075   0.00000  Uiso   1.00
H904   H     0.67535   0.74980   0.80564   0.00000  Uiso   1.00
H905   H     0.68529   0.58359   0.77684   0.00000  Uiso   1.00
H906   H     0.94214   0.53070   0.76686   0.00000  Uiso   1.00
H907   H     0.92913   0.58041   0.79951   0.00000  Uiso   1.00
H908   H     0.94464   0.52818   0.83098   0.00000  Uiso   1.00
H909   H     0.68924   0.99869   0.63559   0.00000  Uiso   1.00
H910   H     0.70385   0.50472   0.69819   0.00000  Uiso   1.00
H911   H     0.67193   0.91560   0.64391   0.00000  Uiso   1.00
H912   H     0.68231   0.92188   0.70791   0.00000  Uiso   1.00
H913   H     0.94177   0.97719   0.70207   0.00000  Uiso   1.00
H914   H     0.92068   0.92363   0.67603   0.00000  Uiso   1.00
H915   H     0.78966   0.61536   0.81490   0.00000  Uiso   1.00
H916   H     0.93056   0.97059   0.63785   0.00000  Uiso   1.00
H917   H     0.78234   0.88377   0.67608   0.00000  Uiso   1.00
H918   H     0.85132   0.60552   0.68165   0.00000  Uiso   1.00
H919   H     0.86038   0.89484   0.82147   0.00000  Uiso   1.00
H920   H     0.83527   0.52494   0.68016   0.00000  Uiso   1.00
H921   H     0.84422   0.97537   0.81960   0.00000  Uiso   1.00
H922   H     0.75825   0.71560   0.52475   0.00000  Uiso   1.00
N923   N     0.83333   0.74999   0.62623   0.00000  Uiso   1.00
N924   N     0.83333   0.75001   0.87376   0.00000  Uiso   1.00
O925   O     0.83334   0.68453   0.78974   0.00000  Uiso   1.00
O926   O     0.75728   0.96753   0.66468   0.00000  Uiso   1.00
O927   O     0.83333   0.81546   0.71026   0.00000  Uiso   1.00
O928   O     0.83334   0.68453   0.71026   0.00000  Uiso   1.00
O929   O     0.83333   0.81547   0.78974   0.00000  Uiso   1.00
O930   O     0.75725   0.75000   0.78044   0.00000  Uiso   1.00
O931   O     0.90942   0.75000   0.71955   0.00000  Uiso   1.00
O932   O     0.75725   0.74999   0.70096   0.00000  Uiso   1.00
O933   O     0.90942   0.75000   0.79903   0.00000  Uiso   1.00
O934   O     0.76731   0.53112   0.82184   0.00000  Uiso   1.00
Zn935  Zn    0.83333   0.75000   0.80307   0.00000  Uiso   1.00
Zn936  Zn    0.83333   0.74999   0.69693   0.00000  Uiso   1.00
loop_
_geom_bond_atom_site_label_1
_geom_bond_atom_site_label_2
_geom_bond_distance
_geom_bond_site_symmetry_2
_ccdc_geom_bond_type
C1     O67     1.286   .     A
C1     O70     1.287   .     A
C1     C14     1.443   .     S
C2     C4      1.411   .     A
C2     C33     1.407   .     A
C2     H42     1.082   .     S
C3     C23     1.411   .     A
C3     C34     1.410   .     A
C3     C472    1.513   1_554 S
C4     C29     1.411   .     A
C4     C471    1.513   .     S
C5     O72     1.275   .     A
C5     O74     1.277   .     A
C5     C7      1.399   .     S
C6     O75     1.277   .     A
C6     C8      1.399   .     S
C6     O73     1.275   .     A
C7     C164    1.329   1_455 S
C7     H191    1.088   1_455 S
C8     C85     1.329   .     S
C8     H124    1.088   .     S
C9     O76     1.387   .     S
C9     C11     1.386   .     A
C9     C20     1.412   .     A
C10    C21     1.413   .     A
C10    C13     1.387   .     A
C10    O68     1.387   .     S
C11    C14     1.400   .     A
C11    H57     1.084   .     S
C12    O69     1.286   .     A
C12    C15     1.440   .     S
C12    O71     1.286   .     A
C13    C15     1.399   .     A
C13    H59     1.084   .     S
C14    C16     1.395   .     A
C15    C17     1.394   .     A
C16    H60     1.083   .     S
C16    C18     1.380   .     A
C17    H61     1.084   .     S
C17    C19     1.380   .     A
C18    H62     1.083   .     S
C18    C20     1.402   .     A
C19    C21     1.402   .     A
C19    H63     1.083   .     S
C20    C255    1.450   1_545 S
C21    C254    1.450   .     S
C22    O76     1.415   .     S
C22    H44     1.109   .     S
C22    C24     1.537   .     S
C22    H277    1.111   1_545 S
C23    C30     1.407   .     A
C23    H64     1.082   .     S
C24    H45     1.111   .     S
C24    H47     1.111   .     S
C24    C181    1.527   1_455 S
C25    H50     1.111   .     S
C25    H49     1.110   .     S
C25    H48     1.110   .     S
C25    C102    1.527   .     S
C26    C27     1.539   .     S
C26    O68     1.416   .     S
C26    H51     1.111   .     S
C26    H286    1.108   .     S
C27    H54     1.111   .     S
C27    H53     1.111   .     S
C27    C184    1.527   1_455 S
C28    H56     1.111   .     S
C28    H55     1.110   .     S
C28    H58     1.111   .     S
C28    C105    1.527   .     S
C29    H36     1.082   .     S
C29    C31     1.407   .     A
C30    H37     1.082   .     S
C30    N65     1.363   .     A
C31    N66     1.363   .     A
C31    H38     1.082   .     S
C32    H39     1.082   .     S
C32    C34     1.407   .     A
C32    N65     1.363   .     A
C33    N66     1.363   .     A
C33    H40     1.082   .     S
C34    H41     1.082   .     S
H35    C85     1.088   .     S
H43    C256    1.111   .     S
H46    C164    1.088   1_455 S
H52    C260    1.108   1_545 S
N65    Zn78    2.004   .     S
N66    Zn77    2.004   .     S
O67    Zn77    1.981   .     S
O69    Zn78    1.981   .     S
O70    Zn78    1.980   .     S
O71    Zn77    1.980   .     S
O72    Zn77    1.964   .     S
O73    Zn78    1.964   .     S
O74    Zn78    1.976   .     S
O75    Zn77    1.976   .     S
C79    O145    1.286   .     A
C79    O148    1.287   .     A
C79    C92     1.443   .     S
C80    C82     1.411   .     A
C80    C111    1.407   .     A
C80    H120    1.082   .     S
C81    C101    1.411   .     A
C81    C112    1.410   .     A
C81    C550    1.513   1_554 S
C82    C107    1.411   .     A
C82    C549    1.513   .     S
C83    O150    1.275   .     A
C83    O152    1.277   .     A
C83    C85     1.399   .     S
C84    O153    1.277   .     A
C84    C86     1.399   .     S
C84    O151    1.275   .     A
C86    C163    1.329   .     S
C86    H202    1.088   .     S
C87    O154    1.387   .     S
C87    C89     1.386   .     A
C87    C98     1.412   .     A
C88    C99     1.413   .     A
C88    C91     1.387   .     A
C88    O146    1.387   .     S
C89    C92     1.400   .     A
C89    H135    1.084   .     S
C90    O147    1.286   .     A
C90    C93     1.440   .     S
C90    O149    1.286   .     A
C91    C93     1.399   .     A
C91    H137    1.084   .     S
C92    C94     1.395   .     A
C93    C95     1.394   .     A
C94    H138    1.083   .     S
C94    C96     1.380   .     A
C95    H139    1.084   .     S
C95    C97     1.380   .     A
C96    H140    1.083   .     S
C96    C98     1.402   .     A
C97    C99     1.402   .     A
C97    H141    1.083   .     S
C98    C333    1.450   1_545 S
C99    C332    1.450   .     S
C100   O154    1.415   .     S
C100   H122    1.109   .     S
C100   C102    1.537   .     S
C100   H355    1.111   1_545 S
C101   C108    1.407   .     A
C101   H142    1.082   .     S
C102   H123    1.111   .     S
C102   H125    1.111   .     S
C103   H128    1.111   .     S
C103   H127    1.110   .     S
C103   H126    1.110   .     S
C103   C180    1.527   .     S
C104   C105    1.539   .     S
C104   O146    1.416   .     S
C104   H129    1.111   .     S
C104   H364    1.108   .     S
C105   H132    1.111   .     S
C105   H131    1.111   .     S
C106   H134    1.111   .     S
C106   H133    1.110   .     S
C106   H136    1.111   .     S
C106   C183    1.527   .     S
C107   H114    1.082   .     S
C107   C109    1.407   .     A
C108   H115    1.082   .     S
C108   N143    1.363   .     A
C109   N144    1.363   .     A
C109   H116    1.082   .     S
C110   H117    1.082   .     S
C110   C112    1.407   .     A
C110   N143    1.363   .     A
C111   N144    1.363   .     A
C111   H118    1.082   .     S
C112   H119    1.082   .     S
H113   C163    1.088   .     S
H121   C334    1.111   .     S
H130   C338    1.108   1_545 S
N143   Zn156   2.004   .     S
N144   Zn155   2.004   .     S
O145   Zn155   1.981   .     S
O147   Zn156   1.981   .     S
O148   Zn156   1.980   .     S
O149   Zn155   1.980   .     S
O150   Zn155   1.964   .     S
O151   Zn156   1.964   .     S
O152   Zn156   1.976   .     S
O153   Zn155   1.976   .     S
C157   O223    1.286   .     A
C157   O226    1.287   .     A
C157   C170    1.443   .     S
C158   C160    1.411   .     A
C158   C189    1.407   .     A
C158   H198    1.082   .     S
C159   C179    1.411   .     A
C159   C190    1.410   .     A
C159   C628    1.513   1_554 S
C160   C185    1.411   .     A
C160   C627    1.513   .     S
C161   O228    1.275   .     A
C161   O230    1.277   .     A
C161   C163    1.399   .     S
C162   O231    1.277   .     A
C162   C164    1.399   .     S
C162   O229    1.275   .     A
C164   C7      1.329   1_655 S
C164   H46     1.088   1_655 S
C165   O232    1.387   .     S
C165   C167    1.386   .     A
C165   C176    1.412   .     A
C166   C177    1.413   .     A
C166   C169    1.387   .     A
C166   O224    1.387   .     S
C167   C170    1.400   .     A
C167   H213    1.084   .     S
C168   O225    1.286   .     A
C168   C171    1.440   .     S
C168   O227    1.286   .     A
C169   C171    1.399   .     A
C169   H215    1.084   .     S
C170   C172    1.395   .     A
C171   C173    1.394   .     A
C172   H216    1.083   .     S
C172   C174    1.380   .     A
C173   H217    1.084   .     S
C173   C175    1.380   .     A
C174   H218    1.083   .     S
C174   C176    1.402   .     A
C175   C177    1.402   .     A
C175   H219    1.083   .     S
C176   C411    1.450   1_545 S
C177   C410    1.450   .     S
C178   O232    1.415   .     S
C178   H200    1.109   .     S
C178   C180    1.537   .     S
C178   H433    1.111   1_545 S
C179   C186    1.407   .     A
C179   H220    1.082   .     S
C180   H201    1.111   .     S
C180   H203    1.111   .     S
C181   H206    1.111   .     S
C181   H205    1.110   .     S
C181   H204    1.110   .     S
C181   C24     1.527   1_655 S
C182   C183    1.539   .     S
C182   O224    1.416   .     S
C182   H207    1.111   .     S
C182   H442    1.108   .     S
C183   H210    1.111   .     S
C183   H209    1.111   .     S
C184   H212    1.111   .     S
C184   H211    1.110   .     S
C184   H214    1.111   .     S
C184   C27     1.527   1_655 S
C185   H192    1.082   .     S
C185   C187    1.407   .     A
C186   H193    1.082   .     S
C186   N221    1.363   .     A
C187   N222    1.363   .     A
C187   H194    1.082   .     S
C188   H195    1.082   .     S
C188   C190    1.407   .     A
C188   N221    1.363   .     A
C189   N222    1.363   .     A
C189   H196    1.082   .     S
C190   H197    1.082   .     S
H191   C7      1.088   1_655 S
H199   C412    1.111   .     S
H208   C416    1.108   1_545 S
N221   Zn234   2.004   .     S
N222   Zn233   2.004   .     S
O223   Zn233   1.981   .     S
O225   Zn234   1.981   .     S
O226   Zn234   1.980   .     S
O227   Zn233   1.980   .     S
O228   Zn233   1.964   .     S
O229   Zn234   1.964   .     S
O230   Zn234   1.976   .     S
O231   Zn233   1.976   .     S
C235   O301    1.286   .     A
C235   O304    1.287   .     A
C235   C248    1.443   .     S
C236   C238    1.411   .     A
C236   C267    1.407   .     A
C236   H276    1.082   .     S
C237   C257    1.411   .     A
C237   C268    1.410   .     A
C237   C706    1.513   1_554 S
C238   C263    1.411   .     A
C238   C705    1.513   .     S
C239   O306    1.275   .     A
C239   O308    1.277   .     A
C239   C241    1.399   .     S
C240   O309    1.277   .     A
C240   C242    1.399   .     S
C240   O307    1.275   .     A
C241   C398    1.329   1_455 S
C241   H425    1.088   1_455 S
C242   C319    1.329   .     S
C242   H358    1.088   .     S
C243   O310    1.387   .     S
C243   C245    1.386   .     A
C243   C254    1.412   .     A
C244   C255    1.413   .     A
C244   C247    1.387   .     A
C244   O302    1.387   .     S
C245   C248    1.400   .     A
C245   H291    1.084   .     S
C246   O303    1.286   .     A
C246   C249    1.440   .     S
C246   O305    1.286   .     A
C247   C249    1.399   .     A
C247   H293    1.084   .     S
C248   C250    1.395   .     A
C249   C251    1.394   .     A
C250   H294    1.083   .     S
C250   C252    1.380   .     A
C251   H295    1.084   .     S
C251   C253    1.380   .     A
C252   H296    1.083   .     S
C252   C254    1.402   .     A
C253   C255    1.402   .     A
C253   H297    1.083   .     S
C255   C20     1.450   1_565 S
C256   O310    1.415   .     S
C256   H278    1.109   .     S
C256   C258    1.537   .     S
C257   C264    1.407   .     A
C257   H298    1.082   .     S
C258   H279    1.111   .     S
C258   H281    1.111   .     S
C258   C415    1.527   1_455 S
C259   H284    1.111   .     S
C259   H283    1.110   .     S
C259   H282    1.110   .     S
C259   C336    1.527   .     S
C260   C261    1.539   .     S
C260   O302    1.416   .     S
C260   H285    1.111   .     S
C260   H52     1.108   1_565 S
C261   H288    1.111   .     S
C261   H287    1.111   .     S
C261   C418    1.527   1_455 S
C262   H290    1.111   .     S
C262   H289    1.110   .     S
C262   H292    1.111   .     S
C262   C339    1.527   .     S
C263   H270    1.082   .     S
C263   C265    1.407   .     A
C264   H271    1.082   .     S
C264   N299    1.363   .     A
C265   N300    1.363   .     A
C265   H272    1.082   .     S
C266   H273    1.082   .     S
C266   C268    1.407   .     A
C266   N299    1.363   .     A
C267   N300    1.363   .     A
C267   H274    1.082   .     S
C268   H275    1.082   .     S
H269   C319    1.088   .     S
H277   C22     1.111   1_565 S
H280   C398    1.088   1_455 S
N299   Zn312   2.004   .     S
N300   Zn311   2.004   .     S
O301   Zn311   1.981   .     S
O303   Zn312   1.981   .     S
O304   Zn312   1.980   .     S
O305   Zn311   1.980   .     S
O306   Zn311   1.964   .     S
O307   Zn312   1.964   .     S
O308   Zn312   1.976   .     S
O309   Zn311   1.976   .     S
C313   O379    1.286   .     A
C313   O382    1.287   .     A
C313   C326    1.443   .     S
C314   C316    1.411   .     A
C314   C345    1.407   .     A
C314   H354    1.082   .     S
C315   C335    1.411   .     A
C315   C346    1.410   .     A
C315   C784    1.513   1_554 S
C316   C341    1.411   .     A
C316   C783    1.513   .     S
C317   O384    1.275   .     A
C317   O386    1.277   .     A
C317   C319    1.399   .     S
C318   O387    1.277   .     A
C318   C320    1.399   .     S
C318   O385    1.275   .     A
C320   C397    1.329   .     S
C320   H436    1.088   .     S
C321   O388    1.387   .     S
C321   C323    1.386   .     A
C321   C332    1.412   .     A
C322   C333    1.413   .     A
C322   C325    1.387   .     A
C322   O380    1.387   .     S
C323   C326    1.400   .     A
C323   H369    1.084   .     S
C324   O381    1.286   .     A
C324   C327    1.440   .     S
C324   O383    1.286   .     A
C325   C327    1.399   .     A
C325   H371    1.084   .     S
C326   C328    1.395   .     A
C327   C329    1.394   .     A
C328   H372    1.083   .     S
C328   C330    1.380   .     A
C329   H373    1.084   .     S
C329   C331    1.380   .     A
C330   H374    1.083   .     S
C330   C332    1.402   .     A
C331   C333    1.402   .     A
C331   H375    1.083   .     S
C333   C98     1.450   1_565 S
C334   O388    1.415   .     S
C334   H356    1.109   .     S
C334   C336    1.537   .     S
C335   C342    1.407   .     A
C335   H376    1.082   .     S
C336   H357    1.111   .     S
C336   H359    1.111   .     S
C337   H362    1.111   .     S
C337   H361    1.110   .     S
C337   H360    1.110   .     S
C337   C414    1.527   .     S
C338   C339    1.539   .     S
C338   O380    1.416   .     S
C338   H363    1.111   .     S
C338   H130    1.108   1_565 S
C339   H366    1.111   .     S
C339   H365    1.111   .     S
C340   H368    1.111   .     S
C340   H367    1.110   .     S
C340   H370    1.111   .     S
C340   C417    1.527   .     S
C341   H348    1.082   .     S
C341   C343    1.407   .     A
C342   H349    1.082   .     S
C342   N377    1.363   .     A
C343   N378    1.363   .     A
C343   H350    1.082   .     S
C344   H351    1.082   .     S
C344   C346    1.407   .     A
C344   N377    1.363   .     A
C345   N378    1.363   .     A
C345   H352    1.082   .     S
C346   H353    1.082   .     S
H347   C397    1.088   .     S
H355   C100    1.111   1_565 S
N377   Zn390   2.004   .     S
N378   Zn389   2.004   .     S
O379   Zn389   1.981   .     S
O381   Zn390   1.981   .     S
O382   Zn390   1.980   .     S
O383   Zn389   1.980   .     S
O384   Zn389   1.964   .     S
O385   Zn390   1.964   .     S
O386   Zn390   1.976   .     S
O387   Zn389   1.976   .     S
C391   O457    1.286   .     A
C391   O460    1.287   .     A
C391   C404    1.443   .     S
C392   C394    1.411   .     A
C392   C423    1.407   .     A
C392   H432    1.082   .     S
C393   C413    1.411   .     A
C393   C424    1.410   .     A
C393   C862    1.513   1_554 S
C394   C419    1.411   .     A
C394   C861    1.513   .     S
C395   O462    1.275   .     A
C395   O464    1.277   .     A
C395   C397    1.399   .     S
C396   O465    1.277   .     A
C396   C398    1.399   .     S
C396   O463    1.275   .     A
C398   C241    1.329   1_655 S
C398   H280    1.088   1_655 S
C399   O466    1.387   .     S
C399   C401    1.386   .     A
C399   C410    1.412   .     A
C400   C411    1.413   .     A
C400   C403    1.387   .     A
C400   O458    1.387   .     S
C401   C404    1.400   .     A
C401   H447    1.084   .     S
C402   O459    1.286   .     A
C402   C405    1.440   .     S
C402   O461    1.286   .     A
C403   C405    1.399   .     A
C403   H449    1.084   .     S
C404   C406    1.395   .     A
C405   C407    1.394   .     A
C406   H450    1.083   .     S
C406   C408    1.380   .     A
C407   H451    1.084   .     S
C407   C409    1.380   .     A
C408   H452    1.083   .     S
C408   C410    1.402   .     A
C409   C411    1.402   .     A
C409   H453    1.083   .     S
C411   C176    1.450   1_565 S
C412   O466    1.415   .     S
C412   H434    1.109   .     S
C412   C414    1.537   .     S
C413   C420    1.407   .     A
C413   H454    1.082   .     S
C414   H435    1.111   .     S
C414   H437    1.111   .     S
C415   H440    1.111   .     S
C415   H439    1.110   .     S
C415   H438    1.110   .     S
C415   C258    1.527   1_655 S
C416   C417    1.539   .     S
C416   O458    1.416   .     S
C416   H441    1.111   .     S
C416   H208    1.108   1_565 S
C417   H444    1.111   .     S
C417   H443    1.111   .     S
C418   H446    1.111   .     S
C418   H445    1.110   .     S
C418   H448    1.111   .     S
C418   C261    1.527   1_655 S
C419   H426    1.082   .     S
C419   C421    1.407   .     A
C420   H427    1.082   .     S
C420   N455    1.363   .     A
C421   N456    1.363   .     A
C421   H428    1.082   .     S
C422   H429    1.082   .     S
C422   C424    1.407   .     A
C422   N455    1.363   .     A
C423   N456    1.363   .     A
C423   H430    1.082   .     S
C424   H431    1.082   .     S
H425   C241    1.088   1_655 S
H433   C178    1.111   1_565 S
N455   Zn468   2.004   .     S
N456   Zn467   2.004   .     S
O457   Zn467   1.981   .     S
O459   Zn468   1.981   .     S
O460   Zn468   1.980   .     S
O461   Zn467   1.980   .     S
O462   Zn467   1.964   .     S
O463   Zn468   1.964   .     S
O464   Zn468   1.976   .     S
O465   Zn467   1.976   .     S
C469   O535    1.286   .     A
C469   O538    1.287   .     A
C469   C482    1.443   .     S
C470   C472    1.411   .     A
C470   C501    1.407   .     A
C470   H510    1.082   .     S
C471   C491    1.411   .     A
C471   C502    1.410   .     A
C472   C497    1.411   .     A
C472   C3      1.513   1_556 S
C473   O540    1.275   .     A
C473   O542    1.277   .     A
C473   C475    1.399   .     S
C474   O543    1.277   .     A
C474   C476    1.399   .     S
C474   O541    1.275   .     A
C475   C632    1.329   1_455 S
C475   H659    1.088   1_455 S
C476   C553    1.329   .     S
C476   H592    1.088   .     S
C477   O544    1.387   .     S
C477   C479    1.386   .     A
C477   C488    1.412   .     A
C478   C489    1.413   .     A
C478   C481    1.387   .     A
C478   O536    1.387   .     S
C479   C482    1.400   .     A
C479   H525    1.084   .     S
C480   O537    1.286   .     A
C480   C483    1.440   .     S
C480   O539    1.286   .     A
C481   C483    1.399   .     A
C481   H527    1.084   .     S
C482   C484    1.395   .     A
C483   C485    1.394   .     A
C484   H528    1.083   .     S
C484   C486    1.380   .     A
C485   H529    1.084   .     S
C485   C487    1.380   .     A
C486   H530    1.083   .     S
C486   C488    1.402   .     A
C487   C489    1.402   .     A
C487   H531    1.083   .     S
C488   C723    1.450   1_545 S
C489   C722    1.450   .     S
C490   O544    1.415   .     S
C490   H512    1.109   .     S
C490   C492    1.537   .     S
C490   H745    1.111   1_545 S
C491   C498    1.407   .     A
C491   H532    1.082   .     S
C492   H513    1.111   .     S
C492   H515    1.111   .     S
C492   C649    1.527   1_455 S
C493   H518    1.111   .     S
C493   H517    1.110   .     S
C493   H516    1.110   .     S
C493   C570    1.527   .     S
C494   C495    1.539   .     S
C494   O536    1.416   .     S
C494   H519    1.111   .     S
C494   H754    1.108   .     S
C495   H522    1.111   .     S
C495   H521    1.111   .     S
C495   C652    1.527   1_455 S
C496   H524    1.111   .     S
C496   H523    1.110   .     S
C496   H526    1.111   .     S
C496   C573    1.527   .     S
C497   H504    1.082   .     S
C497   C499    1.407   .     A
C498   H505    1.082   .     S
C498   N533    1.363   .     A
C499   N534    1.363   .     A
C499   H506    1.082   .     S
C500   H507    1.082   .     S
C500   C502    1.407   .     A
C500   N533    1.363   .     A
C501   N534    1.363   .     A
C501   H508    1.082   .     S
C502   H509    1.082   .     S
H503   C553    1.088   .     S
H511   C724    1.111   .     S
H514   C632    1.088   1_455 S
H520   C728    1.108   1_545 S
N533   Zn546   2.004   .     S
N534   Zn545   2.004   .     S
O535   Zn545   1.981   .     S
O537   Zn546   1.981   .     S
O538   Zn546   1.980   .     S
O539   Zn545   1.980   .     S
O540   Zn545   1.964   .     S
O541   Zn546   1.964   .     S
O542   Zn546   1.976   .     S
O543   Zn545   1.976   .     S
C547   O613    1.286   .     A
C547   O616    1.287   .     A
C547   C560    1.443   .     S
C548   C550    1.411   .     A
C548   C579    1.407   .     A
C548   H588    1.082   .     S
C549   C569    1.411   .     A
C549   C580    1.410   .     A
C550   C575    1.411   .     A
C550   C81     1.513   1_556 S
C551   O618    1.275   .     A
C551   O620    1.277   .     A
C551   C553    1.399   .     S
C552   O621    1.277   .     A
C552   C554    1.399   .     S
C552   O619    1.275   .     A
C554   C631    1.329   .     S
C554   H670    1.088   .     S
C555   O622    1.387   .     S
C555   C557    1.386   .     A
C555   C566    1.412   .     A
C556   C567    1.413   .     A
C556   C559    1.387   .     A
C556   O614    1.387   .     S
C557   C560    1.400   .     A
C557   H603    1.084   .     S
C558   O615    1.286   .     A
C558   C561    1.440   .     S
C558   O617    1.286   .     A
C559   C561    1.399   .     A
C559   H605    1.084   .     S
C560   C562    1.395   .     A
C561   C563    1.394   .     A
C562   H606    1.083   .     S
C562   C564    1.380   .     A
C563   H607    1.084   .     S
C563   C565    1.380   .     A
C564   H608    1.083   .     S
C564   C566    1.402   .     A
C565   C567    1.402   .     A
C565   H609    1.083   .     S
C566   C801    1.450   1_545 S
C567   C800    1.450   .     S
C568   O622    1.415   .     S
C568   H590    1.109   .     S
C568   C570    1.537   .     S
C568   H823    1.111   1_545 S
C569   C576    1.407   .     A
C569   H610    1.082   .     S
C570   H591    1.111   .     S
C570   H593    1.111   .     S
C571   H596    1.111   .     S
C571   H595    1.110   .     S
C571   H594    1.110   .     S
C571   C648    1.527   .     S
C572   C573    1.539   .     S
C572   O614    1.416   .     S
C572   H597    1.111   .     S
C572   H832    1.108   .     S
C573   H600    1.111   .     S
C573   H599    1.111   .     S
C574   H602    1.111   .     S
C574   H601    1.110   .     S
C574   H604    1.111   .     S
C574   C651    1.527   .     S
C575   H582    1.082   .     S
C575   C577    1.407   .     A
C576   H583    1.082   .     S
C576   N611    1.363   .     A
C577   N612    1.363   .     A
C577   H584    1.082   .     S
C578   H585    1.082   .     S
C578   C580    1.407   .     A
C578   N611    1.363   .     A
C579   N612    1.363   .     A
C579   H586    1.082   .     S
C580   H587    1.082   .     S
H581   C631    1.088   .     S
H589   C802    1.111   .     S
H598   C806    1.108   1_545 S
N611   Zn624   2.004   .     S
N612   Zn623   2.004   .     S
O613   Zn623   1.981   .     S
O615   Zn624   1.981   .     S
O616   Zn624   1.980   .     S
O617   Zn623   1.980   .     S
O618   Zn623   1.964   .     S
O619   Zn624   1.964   .     S
O620   Zn624   1.976   .     S
O621   Zn623   1.976   .     S
C625   O691    1.286   .     A
C625   O694    1.287   .     A
C625   C638    1.443   .     S
C626   C628    1.411   .     A
C626   C657    1.407   .     A
C626   H666    1.082   .     S
C627   C647    1.411   .     A
C627   C658    1.410   .     A
C628   C653    1.411   .     A
C628   C159    1.513   1_556 S
C629   O696    1.275   .     A
C629   O698    1.277   .     A
C629   C631    1.399   .     S
C630   O699    1.277   .     A
C630   C632    1.399   .     S
C630   O697    1.275   .     A
C632   C475    1.329   1_655 S
C632   H514    1.088   1_655 S
C633   O700    1.387   .     S
C633   C635    1.386   .     A
C633   C644    1.412   .     A
C634   C645    1.413   .     A
C634   C637    1.387   .     A
C634   O692    1.387   .     S
C635   C638    1.400   .     A
C635   H681    1.084   .     S
C636   O693    1.286   .     A
C636   C639    1.440   .     S
C636   O695    1.286   .     A
C637   C639    1.399   .     A
C637   H683    1.084   .     S
C638   C640    1.395   .     A
C639   C641    1.394   .     A
C640   H684    1.083   .     S
C640   C642    1.380   .     A
C641   H685    1.084   .     S
C641   C643    1.380   .     A
C642   H686    1.083   .     S
C642   C644    1.402   .     A
C643   C645    1.402   .     A
C643   H687    1.083   .     S
C644   C879    1.450   1_545 S
C645   C878    1.450   .     S
C646   O700    1.415   .     S
C646   H668    1.109   .     S
C646   C648    1.537   .     S
C646   H901    1.111   1_545 S
C647   C654    1.407   .     A
C647   H688    1.082   .     S
C648   H669    1.111   .     S
C648   H671    1.111   .     S
C649   H674    1.111   .     S
C649   H673    1.110   .     S
C649   H672    1.110   .     S
C649   C492    1.527   1_655 S
C650   C651    1.539   .     S
C650   O692    1.416   .     S
C650   H675    1.111   .     S
C650   H910    1.108   .     S
C651   H678    1.111   .     S
C651   H677    1.111   .     S
C652   H680    1.111   .     S
C652   H679    1.110   .     S
C652   H682    1.111   .     S
C652   C495    1.527   1_655 S
C653   H660    1.082   .     S
C653   C655    1.407   .     A
C654   H661    1.082   .     S
C654   N689    1.363   .     A
C655   N690    1.363   .     A
C655   H662    1.082   .     S
C656   H663    1.082   .     S
C656   C658    1.407   .     A
C656   N689    1.363   .     A
C657   N690    1.363   .     A
C657   H664    1.082   .     S
C658   H665    1.082   .     S
H659   C475    1.088   1_655 S
H667   C880    1.111   .     S
H676   C884    1.108   1_545 S
N689   Zn702   2.004   .     S
N690   Zn701   2.004   .     S
O691   Zn701   1.981   .     S
O693   Zn702   1.981   .     S
O694   Zn702   1.980   .     S
O695   Zn701   1.980   .     S
O696   Zn701   1.964   .     S
O697   Zn702   1.964   .     S
O698   Zn702   1.976   .     S
O699   Zn701   1.976   .     S
C703   O769    1.286   .     A
C703   O772    1.287   .     A
C703   C716    1.443   .     S
C704   C706    1.411   .     A
C704   C735    1.407   .     A
C704   H744    1.082   .     S
C705   C725    1.411   .     A
C705   C736    1.410   .     A
C706   C731    1.411   .     A
C706   C237    1.513   1_556 S
C707   O774    1.275   .     A
C707   O776    1.277   .     A
C707   C709    1.399   .     S
C708   O777    1.277   .     A
C708   C710    1.399   .     S
C708   O775    1.275   .     A
C709   C866    1.329   1_455 S
C709   H893    1.088   1_455 S
C710   C787    1.329   .     S
C710   H826    1.088   .     S
C711   O778    1.387   .     S
C711   C713    1.386   .     A
C711   C722    1.412   .     A
C712   C723    1.413   .     A
C712   C715    1.387   .     A
C712   O770    1.387   .     S
C713   C716    1.400   .     A
C713   H759    1.084   .     S
C714   O771    1.286   .     A
C714   C717    1.440   .     S
C714   O773    1.286   .     A
C715   C717    1.399   .     A
C715   H761    1.084   .     S
C716   C718    1.395   .     A
C717   C719    1.394   .     A
C718   H762    1.083   .     S
C718   C720    1.380   .     A
C719   H763    1.084   .     S
C719   C721    1.380   .     A
C720   H764    1.083   .     S
C720   C722    1.402   .     A
C721   C723    1.402   .     A
C721   H765    1.083   .     S
C723   C488    1.450   1_565 S
C724   O778    1.415   .     S
C724   H746    1.109   .     S
C724   C726    1.537   .     S
C725   C732    1.407   .     A
C725   H766    1.082   .     S
C726   H747    1.111   .     S
C726   H749    1.111   .     S
C726   C883    1.527   1_455 S
C727   H752    1.111   .     S
C727   H751    1.110   .     S
C727   H750    1.110   .     S
C727   C804    1.527   .     S
C728   C729    1.539   .     S
C728   O770    1.416   .     S
C728   H753    1.111   .     S
C728   H520    1.108   1_565 S
C729   H756    1.111   .     S
C729   H755    1.111   .     S
C729   C886    1.527   1_455 S
C730   H758    1.111   .     S
C730   H757    1.110   .     S
C730   H760    1.111   .     S
C730   C807    1.527   .     S
C731   H738    1.082   .     S
C731   C733    1.407   .     A
C732   H739    1.082   .     S
C732   N767    1.363   .     A
C733   N768    1.363   .     A
C733   H740    1.082   .     S
C734   H741    1.082   .     S
C734   C736    1.407   .     A
C734   N767    1.363   .     A
C735   N768    1.363   .     A
C735   H742    1.082   .     S
C736   H743    1.082   .     S
H737   C787    1.088   .     S
H745   C490    1.111   1_565 S
H748   C866    1.088   1_455 S
N767   Zn780   2.004   .     S
N768   Zn779   2.004   .     S
O769   Zn779   1.981   .     S
O771   Zn780   1.981   .     S
O772   Zn780   1.980   .     S
O773   Zn779   1.980   .     S
O774   Zn779   1.964   .     S
O775   Zn780   1.964   .     S
O776   Zn780   1.976   .     S
O777   Zn779   1.976   .     S
C781   O847    1.286   .     A
C781   O850    1.287   .     A
C781   C794    1.443   .     S
C782   C784    1.411   .     A
C782   C813    1.407   .     A
C782   H822    1.082   .     S
C783   C803    1.411   .     A
C783   C814    1.410   .     A
C784   C809    1.411   .     A
C784   C315    1.513   1_556 S
C785   O852    1.275   .     A
C785   O854    1.277   .     A
C785   C787    1.399   .     S
C786   O855    1.277   .     A
C786   C788    1.399   .     S
C786   O853    1.275   .     A
C788   C865    1.329   .     S
C788   H904    1.088   .     S
C789   O856    1.387   .     S
C789   C791    1.386   .     A
C789   C800    1.412   .     A
C790   C801    1.413   .     A
C790   C793    1.387   .     A
C790   O848    1.387   .     S
C791   C794    1.400   .     A
C791   H837    1.084   .     S
C792   O849    1.286   .     A
C792   C795    1.440   .     S
C792   O851    1.286   .     A
C793   C795    1.399   .     A
C793   H839    1.084   .     S
C794   C796    1.395   .     A
C795   C797    1.394   .     A
C796   H840    1.083   .     S
C796   C798    1.380   .     A
C797   H841    1.084   .     S
C797   C799    1.380   .     A
C798   H842    1.083   .     S
C798   C800    1.402   .     A
C799   C801    1.402   .     A
C799   H843    1.083   .     S
C801   C566    1.450   1_565 S
C802   O856    1.415   .     S
C802   H824    1.109   .     S
C802   C804    1.537   .     S
C803   C810    1.407   .     A
C803   H844    1.082   .     S
C804   H825    1.111   .     S
C804   H827    1.111   .     S
C805   H830    1.111   .     S
C805   H829    1.110   .     S
C805   H828    1.110   .     S
C805   C882    1.527   .     S
C806   C807    1.539   .     S
C806   O848    1.416   .     S
C806   H831    1.111   .     S
C806   H598    1.108   1_565 S
C807   H834    1.111   .     S
C807   H833    1.111   .     S
C808   H836    1.111   .     S
C808   H835    1.110   .     S
C808   H838    1.111   .     S
C808   C885    1.527   .     S
C809   H816    1.082   .     S
C809   C811    1.407   .     A
C810   H817    1.082   .     S
C810   N845    1.363   .     A
C811   N846    1.363   .     A
C811   H818    1.082   .     S
C812   H819    1.082   .     S
C812   C814    1.407   .     A
C812   N845    1.363   .     A
C813   N846    1.363   .     A
C813   H820    1.082   .     S
C814   H821    1.082   .     S
H815   C865    1.088   .     S
H823   C568    1.111   1_565 S
N845   Zn858   2.004   .     S
N846   Zn857   2.004   .     S
O847   Zn857   1.981   .     S
O849   Zn858   1.981   .     S
O850   Zn858   1.980   .     S
O851   Zn857   1.980   .     S
O852   Zn857   1.964   .     S
O853   Zn858   1.964   .     S
O854   Zn858   1.976   .     S
O855   Zn857   1.976   .     S
C859   O925    1.286   .     A
C859   O928    1.287   .     A
C859   C872    1.443   .     S
C860   C862    1.411   .     A
C860   C891    1.407   .     A
C860   H900    1.082   .     S
C861   C881    1.411   .     A
C861   C892    1.410   .     A
C862   C887    1.411   .     A
C862   C393    1.513   1_556 S
C863   O930    1.275   .     A
C863   O932    1.277   .     A
C863   C865    1.399   .     S
C864   O933    1.277   .     A
C864   C866    1.399   .     S
C864   O931    1.275   .     A
C866   C709    1.329   1_655 S
C866   H748    1.088   1_655 S
C867   O934    1.387   .     S
C867   C869    1.386   .     A
C867   C878    1.412   .     A
C868   C879    1.413   .     A
C868   C871    1.387   .     A
C868   O926    1.387   .     S
C869   C872    1.400   .     A
C869   H915    1.084   .     S
C870   O927    1.286   .     A
C870   C873    1.440   .     S
C870   O929    1.286   .     A
C871   C873    1.399   .     A
C871   H917    1.084   .     S
C872   C874    1.395   .     A
C873   C875    1.394   .     A
C874   H918    1.083   .     S
C874   C876    1.380   .     A
C875   H919    1.084   .     S
C875   C877    1.380   .     A
C876   H920    1.083   .     S
C876   C878    1.402   .     A
C877   C879    1.402   .     A
C877   H921    1.083   .     S
C879   C644    1.450   1_565 S
C880   O934    1.415   .     S
C880   H902    1.109   .     S
C880   C882    1.537   .     S
C881   C888    1.407   .     A
C881   H922    1.082   .     S
C882   H903    1.111   .     S
C882   H905    1.111   .     S
C883   H908    1.111   .     S
C883   H907    1.110   .     S
C883   H906    1.110   .     S
C883   C726    1.527   1_655 S
C884   C885    1.539   .     S
C884   O926    1.416   .     S
C884   H909    1.111   .     S
C884   H676    1.108   1_565 S
C885   H912    1.111   .     S
C885   H911    1.111   .     S
C886   H914    1.111   .     S
C886   H913    1.110   .     S
C886   H916    1.111   .     S
C886   C729    1.527   1_655 S
C887   H894    1.082   .     S
C887   C889    1.407   .     A
C888   H895    1.082   .     S
C888   N923    1.363   .     A
C889   N924    1.363   .     A
C889   H896    1.082   .     S
C890   H897    1.082   .     S
C890   C892    1.407   .     A
C890   N923    1.363   .     A
C891   N924    1.363   .     A
C891   H898    1.082   .     S
C892   H899    1.082   .     S
H893   C709    1.088   1_655 S
H901   C646    1.111   1_565 S
N923   Zn936   2.004   .     S
N924   Zn935   2.004   .     S
O925   Zn935   1.981   .     S
O927   Zn936   1.981   .     S
O928   Zn936   1.980   .     S
O929   Zn935   1.980   .     S
O930   Zn935   1.964   .     S
O931   Zn936   1.964   .     S
O932   Zn936   1.976   .     S
O933   Zn935   1.976   .     S
