data_str_m3_o1_o10_pcu_sym.38
_audit_creation_date              2020-01-03
_audit_creation_method            'Materials Studio'
_symmetry_space_group_name_H-M    'P1'
_symmetry_Int_Tables_number       1
_symmetry_cell_setting            triclinic
loop_
_symmetry_equiv_pos_as_xyz
  x,y,z
_cell_length_a                    26.0400
_cell_length_b                    32.1553
_cell_length_c                    29.7180
_cell_angle_alpha                 89.8235
_cell_angle_beta                  99.0605
_cell_angle_gamma                 91.9330
loop_
_atom_site_label
_atom_site_type_symbol
_atom_site_fract_x
_atom_site_fract_y
_atom_site_fract_z
_atom_site_U_iso_or_equiv
_atom_site_adp_type
_atom_site_occupancy
O1     O     0.16666   0.10558   0.20487   0.00000  Uiso   1.00
O2     O     0.16667   0.22775   0.12846   0.00000  Uiso   1.00
O3     O     0.16666   0.10559   0.12843   0.00000  Uiso   1.00
O4     O     0.16667   0.22774   0.20490   0.00000  Uiso   1.00
C5     C     0.16705   0.08670   0.16678   0.00000  Uiso   1.00
C6     C     0.16628   0.24663   0.16655   0.00000  Uiso   1.00
O7     O     0.09058   0.16666   0.19595   0.00000  Uiso   1.00
O8     O     0.24275   0.16667   0.13739   0.00000  Uiso   1.00
O9     O     0.09058   0.16667   0.11950   0.00000  Uiso   1.00
O10    O     0.24275   0.16666   0.21383   0.00000  Uiso   1.00
C11    C     0.06723   0.16697   0.15476   0.00000  Uiso   1.00
C12    C     0.26611   0.16636   0.17858   0.00000  Uiso   1.00
Zn13   Zn    0.16667   0.16666   0.21771   0.00000  Uiso   1.00
Zn14   Zn    0.16667   0.16667   0.11563   0.00000  Uiso   1.00
N15    N     0.16665   0.16666   0.28573   0.00000  Uiso   1.00
N16    N     0.16668   0.16668   0.04760   0.00000  Uiso   1.00
C17    C     0.01247   0.16205   0.14898   0.00000  Uiso   1.00
C18    C     0.32086   0.17128   0.18436   0.00000  Uiso   1.00
C19    C     0.18031   0.02182   0.12930   0.00000  Uiso   1.00
C20    C     0.15302   0.31152   0.20404   0.00000  Uiso   1.00
H21    H     0.19177   0.03843   0.10053   0.00000  Uiso   1.00
H22    H     0.14157   0.29491   0.23281   0.00000  Uiso   1.00
C23    C     0.17892   0.31252   0.12875   0.00000  Uiso   1.00
C24    C     0.15441   0.02081   0.20459   0.00000  Uiso   1.00
H25    H     0.18841   0.29680   0.09919   0.00000  Uiso   1.00
H26    H     0.14492   0.03653   0.23415   0.00000  Uiso   1.00
C27    C     0.16583   0.29080   0.16633   0.00000  Uiso   1.00
C28    C     0.16751   0.04253   0.16700   0.00000  Uiso   1.00
C29    C     0.19573   0.19564   0.02801   0.00000  Uiso   1.00
C30    C     0.13761   0.13770   0.30532   0.00000  Uiso   1.00
C31    C     0.19488   0.19630   0.31332   0.00000  Uiso   1.00
C32    C     0.13845   0.13703   0.02001   0.00000  Uiso   1.00
N33    N     0.32078   0.14085   0.10836   0.00000  Uiso   1.00
O34    O     0.31878   0.15881   0.06887   0.00000  Uiso   1.00
O35    O     0.30224   0.10295   0.11072   0.00000  Uiso   1.00
N36    N     0.01255   0.19248   0.22498   0.00000  Uiso   1.00
O37    O     0.01456   0.17452   0.26447   0.00000  Uiso   1.00
O38    O     0.03109   0.23038   0.22261   0.00000  Uiso   1.00
C39    C     0.23046   0.22393   0.05663   0.00000  Uiso   1.00
N40    N     0.25903   0.24642   0.07931   0.00000  Uiso   1.00
C41    C     0.10287   0.10941   0.27671   0.00000  Uiso   1.00
N42    N     0.07430   0.08692   0.25402   0.00000  Uiso   1.00
N43    N     0.22203   0.22936   0.29374   0.00000  Uiso   1.00
O44    O     0.26683   0.22263   0.28172   0.00000  Uiso   1.00
O45    O     0.20940   0.26756   0.29943   0.00000  Uiso   1.00
N46    N     0.11130   0.10398   0.03960   0.00000  Uiso   1.00
O47    O     0.06651   0.11071   0.05161   0.00000  Uiso   1.00
O48    O     0.12393   0.06577   0.03390   0.00000  Uiso   1.00
O49    O     0.50000   0.10558   0.20487   0.00000  Uiso   1.00
O50    O     0.50000   0.22775   0.12846   0.00000  Uiso   1.00
O51    O     0.50000   0.10559   0.12843   0.00000  Uiso   1.00
O52    O     0.50000   0.22774   0.20490   0.00000  Uiso   1.00
C53    C     0.50038   0.08670   0.16678   0.00000  Uiso   1.00
C54    C     0.49962   0.24663   0.16655   0.00000  Uiso   1.00
O55    O     0.42392   0.16666   0.19595   0.00000  Uiso   1.00
O56    O     0.57608   0.16667   0.13739   0.00000  Uiso   1.00
O57    O     0.42392   0.16667   0.11950   0.00000  Uiso   1.00
O58    O     0.57608   0.16666   0.21383   0.00000  Uiso   1.00
C59    C     0.40056   0.16697   0.15476   0.00000  Uiso   1.00
C60    C     0.59944   0.16636   0.17858   0.00000  Uiso   1.00
Zn61   Zn    0.50000   0.16666   0.21771   0.00000  Uiso   1.00
Zn62   Zn    0.50000   0.16667   0.11563   0.00000  Uiso   1.00
N63    N     0.49999   0.16666   0.28573   0.00000  Uiso   1.00
N64    N     0.50001   0.16668   0.04760   0.00000  Uiso   1.00
C65    C     0.34581   0.16205   0.14898   0.00000  Uiso   1.00
C66    C     0.65419   0.17128   0.18436   0.00000  Uiso   1.00
C67    C     0.51365   0.02182   0.12930   0.00000  Uiso   1.00
C68    C     0.48635   0.31152   0.20404   0.00000  Uiso   1.00
H69    H     0.52510   0.03843   0.10053   0.00000  Uiso   1.00
H70    H     0.47490   0.29491   0.23281   0.00000  Uiso   1.00
C71    C     0.51226   0.31252   0.12875   0.00000  Uiso   1.00
C72    C     0.48774   0.02081   0.20459   0.00000  Uiso   1.00
H73    H     0.52175   0.29680   0.09919   0.00000  Uiso   1.00
H74    H     0.47825   0.03653   0.23415   0.00000  Uiso   1.00
C75    C     0.49916   0.29080   0.16633   0.00000  Uiso   1.00
C76    C     0.50084   0.04253   0.16700   0.00000  Uiso   1.00
C77    C     0.52906   0.19564   0.02801   0.00000  Uiso   1.00
C78    C     0.47094   0.13770   0.30532   0.00000  Uiso   1.00
C79    C     0.52821   0.19630   0.31332   0.00000  Uiso   1.00
C80    C     0.47179   0.13703   0.02001   0.00000  Uiso   1.00
N81    N     0.65412   0.14085   0.10836   0.00000  Uiso   1.00
O82    O     0.65211   0.15881   0.06887   0.00000  Uiso   1.00
O83    O     0.63557   0.10295   0.11072   0.00000  Uiso   1.00
N84    N     0.34588   0.19248   0.22498   0.00000  Uiso   1.00
O85    O     0.34789   0.17452   0.26447   0.00000  Uiso   1.00
O86    O     0.36443   0.23038   0.22261   0.00000  Uiso   1.00
C87    C     0.56379   0.22393   0.05663   0.00000  Uiso   1.00
N88    N     0.59236   0.24642   0.07931   0.00000  Uiso   1.00
C89    C     0.43620   0.10941   0.27671   0.00000  Uiso   1.00
N90    N     0.40764   0.08692   0.25402   0.00000  Uiso   1.00
N91    N     0.55537   0.22936   0.29374   0.00000  Uiso   1.00
O92    O     0.60016   0.22263   0.28172   0.00000  Uiso   1.00
O93    O     0.54273   0.26756   0.29943   0.00000  Uiso   1.00
N94    N     0.44463   0.10398   0.03960   0.00000  Uiso   1.00
O95    O     0.39984   0.11071   0.05161   0.00000  Uiso   1.00
O96    O     0.45727   0.06577   0.03390   0.00000  Uiso   1.00
O97    O     0.83333   0.10558   0.20487   0.00000  Uiso   1.00
O98    O     0.83334   0.22775   0.12846   0.00000  Uiso   1.00
O99    O     0.83333   0.10559   0.12843   0.00000  Uiso   1.00
O100   O     0.83334   0.22774   0.20490   0.00000  Uiso   1.00
C101   C     0.83371   0.08670   0.16678   0.00000  Uiso   1.00
C102   C     0.83295   0.24663   0.16655   0.00000  Uiso   1.00
O103   O     0.75725   0.16666   0.19595   0.00000  Uiso   1.00
O104   O     0.90942   0.16667   0.13739   0.00000  Uiso   1.00
O105   O     0.75725   0.16667   0.11950   0.00000  Uiso   1.00
O106   O     0.90942   0.16666   0.21383   0.00000  Uiso   1.00
C107   C     0.73389   0.16697   0.15476   0.00000  Uiso   1.00
C108   C     0.93277   0.16636   0.17858   0.00000  Uiso   1.00
Zn109  Zn    0.83333   0.16666   0.21771   0.00000  Uiso   1.00
Zn110  Zn    0.83333   0.16667   0.11563   0.00000  Uiso   1.00
N111   N     0.83332   0.16666   0.28573   0.00000  Uiso   1.00
N112   N     0.83335   0.16668   0.04760   0.00000  Uiso   1.00
C113   C     0.67914   0.16205   0.14898   0.00000  Uiso   1.00
C114   C     0.98752   0.17128   0.18436   0.00000  Uiso   1.00
C115   C     0.84698   0.02182   0.12930   0.00000  Uiso   1.00
C116   C     0.81969   0.31152   0.20404   0.00000  Uiso   1.00
H117   H     0.85843   0.03843   0.10053   0.00000  Uiso   1.00
H118   H     0.80823   0.29491   0.23281   0.00000  Uiso   1.00
C119   C     0.84559   0.31252   0.12875   0.00000  Uiso   1.00
C120   C     0.82108   0.02081   0.20459   0.00000  Uiso   1.00
H121   H     0.85508   0.29680   0.09919   0.00000  Uiso   1.00
H122   H     0.81159   0.03653   0.23415   0.00000  Uiso   1.00
C123   C     0.83249   0.29080   0.16633   0.00000  Uiso   1.00
C124   C     0.83417   0.04253   0.16700   0.00000  Uiso   1.00
C125   C     0.86239   0.19564   0.02801   0.00000  Uiso   1.00
C126   C     0.80427   0.13770   0.30532   0.00000  Uiso   1.00
C127   C     0.86155   0.19630   0.31332   0.00000  Uiso   1.00
C128   C     0.80512   0.13703   0.02001   0.00000  Uiso   1.00
N129   N     0.98745   0.14085   0.10836   0.00000  Uiso   1.00
O130   O     0.98544   0.15881   0.06887   0.00000  Uiso   1.00
O131   O     0.96891   0.10295   0.11072   0.00000  Uiso   1.00
N132   N     0.67922   0.19248   0.22498   0.00000  Uiso   1.00
O133   O     0.68122   0.17452   0.26447   0.00000  Uiso   1.00
O134   O     0.69776   0.23038   0.22261   0.00000  Uiso   1.00
C135   C     0.89713   0.22393   0.05663   0.00000  Uiso   1.00
N136   N     0.92570   0.24642   0.07931   0.00000  Uiso   1.00
C137   C     0.76954   0.10941   0.27671   0.00000  Uiso   1.00
N138   N     0.74097   0.08692   0.25402   0.00000  Uiso   1.00
N139   N     0.88870   0.22936   0.29374   0.00000  Uiso   1.00
O140   O     0.93349   0.22263   0.28172   0.00000  Uiso   1.00
O141   O     0.87607   0.26756   0.29943   0.00000  Uiso   1.00
N142   N     0.77797   0.10398   0.03960   0.00000  Uiso   1.00
O143   O     0.73317   0.11071   0.05161   0.00000  Uiso   1.00
O144   O     0.79060   0.06577   0.03390   0.00000  Uiso   1.00
O145   O     0.16666   0.43892   0.20487   0.00000  Uiso   1.00
O146   O     0.16667   0.56108   0.12846   0.00000  Uiso   1.00
O147   O     0.16666   0.43893   0.12843   0.00000  Uiso   1.00
O148   O     0.16667   0.56107   0.20490   0.00000  Uiso   1.00
C149   C     0.16705   0.42004   0.16678   0.00000  Uiso   1.00
C150   C     0.16628   0.57996   0.16655   0.00000  Uiso   1.00
O151   O     0.09058   0.50000   0.19595   0.00000  Uiso   1.00
O152   O     0.24275   0.50000   0.13739   0.00000  Uiso   1.00
O153   O     0.09058   0.50000   0.11950   0.00000  Uiso   1.00
O154   O     0.24275   0.50000   0.21383   0.00000  Uiso   1.00
C155   C     0.06723   0.50030   0.15476   0.00000  Uiso   1.00
C156   C     0.26611   0.49970   0.17858   0.00000  Uiso   1.00
Zn157  Zn    0.16667   0.49999   0.21771   0.00000  Uiso   1.00
Zn158  Zn    0.16667   0.50001   0.11563   0.00000  Uiso   1.00
N159   N     0.16665   0.49999   0.28573   0.00000  Uiso   1.00
N160   N     0.16668   0.50001   0.04760   0.00000  Uiso   1.00
C161   C     0.01247   0.49539   0.14898   0.00000  Uiso   1.00
C162   C     0.32086   0.50461   0.18436   0.00000  Uiso   1.00
C163   C     0.18031   0.35515   0.12930   0.00000  Uiso   1.00
C164   C     0.15302   0.64485   0.20404   0.00000  Uiso   1.00
H165   H     0.19177   0.37176   0.10053   0.00000  Uiso   1.00
H166   H     0.14157   0.62824   0.23281   0.00000  Uiso   1.00
C167   C     0.17892   0.64586   0.12875   0.00000  Uiso   1.00
C168   C     0.15441   0.35414   0.20459   0.00000  Uiso   1.00
H169   H     0.18841   0.63013   0.09919   0.00000  Uiso   1.00
H170   H     0.14492   0.36987   0.23415   0.00000  Uiso   1.00
C171   C     0.16583   0.62414   0.16633   0.00000  Uiso   1.00
C172   C     0.16751   0.37586   0.16700   0.00000  Uiso   1.00
C173   C     0.19573   0.52897   0.02801   0.00000  Uiso   1.00
C174   C     0.13761   0.47103   0.30532   0.00000  Uiso   1.00
C175   C     0.19488   0.52964   0.31332   0.00000  Uiso   1.00
C176   C     0.13845   0.47036   0.02001   0.00000  Uiso   1.00
N177   N     0.32078   0.47419   0.10836   0.00000  Uiso   1.00
O178   O     0.31878   0.49215   0.06887   0.00000  Uiso   1.00
O179   O     0.30224   0.43628   0.11072   0.00000  Uiso   1.00
N180   N     0.01255   0.52581   0.22498   0.00000  Uiso   1.00
O181   O     0.01456   0.50785   0.26447   0.00000  Uiso   1.00
O182   O     0.03109   0.56372   0.22261   0.00000  Uiso   1.00
C183   C     0.23046   0.55726   0.05663   0.00000  Uiso   1.00
N184   N     0.25903   0.57975   0.07931   0.00000  Uiso   1.00
C185   C     0.10287   0.44274   0.27671   0.00000  Uiso   1.00
N186   N     0.07430   0.42025   0.25402   0.00000  Uiso   1.00
N187   N     0.22203   0.56269   0.29374   0.00000  Uiso   1.00
O188   O     0.26683   0.55596   0.28172   0.00000  Uiso   1.00
O189   O     0.20940   0.60089   0.29943   0.00000  Uiso   1.00
N190   N     0.11130   0.43731   0.03960   0.00000  Uiso   1.00
O191   O     0.06651   0.44404   0.05161   0.00000  Uiso   1.00
O192   O     0.12393   0.39911   0.03390   0.00000  Uiso   1.00
O193   O     0.50000   0.43892   0.20487   0.00000  Uiso   1.00
O194   O     0.50000   0.56108   0.12846   0.00000  Uiso   1.00
O195   O     0.50000   0.43893   0.12843   0.00000  Uiso   1.00
O196   O     0.50000   0.56107   0.20490   0.00000  Uiso   1.00
C197   C     0.50038   0.42004   0.16678   0.00000  Uiso   1.00
C198   C     0.49962   0.57996   0.16655   0.00000  Uiso   1.00
O199   O     0.42392   0.50000   0.19595   0.00000  Uiso   1.00
O200   O     0.57608   0.50000   0.13739   0.00000  Uiso   1.00
O201   O     0.42392   0.50000   0.11950   0.00000  Uiso   1.00
O202   O     0.57608   0.50000   0.21383   0.00000  Uiso   1.00
C203   C     0.40056   0.50030   0.15476   0.00000  Uiso   1.00
C204   C     0.59944   0.49970   0.17858   0.00000  Uiso   1.00
Zn205  Zn    0.50000   0.49999   0.21771   0.00000  Uiso   1.00
Zn206  Zn    0.50000   0.50001   0.11563   0.00000  Uiso   1.00
N207   N     0.49999   0.49999   0.28573   0.00000  Uiso   1.00
N208   N     0.50001   0.50001   0.04760   0.00000  Uiso   1.00
C209   C     0.34581   0.49539   0.14898   0.00000  Uiso   1.00
C210   C     0.65419   0.50461   0.18436   0.00000  Uiso   1.00
C211   C     0.51365   0.35515   0.12930   0.00000  Uiso   1.00
C212   C     0.48635   0.64485   0.20404   0.00000  Uiso   1.00
H213   H     0.52510   0.37176   0.10053   0.00000  Uiso   1.00
H214   H     0.47490   0.62824   0.23281   0.00000  Uiso   1.00
C215   C     0.51226   0.64586   0.12875   0.00000  Uiso   1.00
C216   C     0.48774   0.35414   0.20459   0.00000  Uiso   1.00
H217   H     0.52175   0.63013   0.09919   0.00000  Uiso   1.00
H218   H     0.47825   0.36987   0.23415   0.00000  Uiso   1.00
C219   C     0.49916   0.62414   0.16633   0.00000  Uiso   1.00
C220   C     0.50084   0.37586   0.16700   0.00000  Uiso   1.00
C221   C     0.52906   0.52897   0.02801   0.00000  Uiso   1.00
C222   C     0.47094   0.47103   0.30532   0.00000  Uiso   1.00
C223   C     0.52821   0.52964   0.31332   0.00000  Uiso   1.00
C224   C     0.47179   0.47036   0.02001   0.00000  Uiso   1.00
N225   N     0.65412   0.47419   0.10836   0.00000  Uiso   1.00
O226   O     0.65211   0.49215   0.06887   0.00000  Uiso   1.00
O227   O     0.63557   0.43628   0.11072   0.00000  Uiso   1.00
N228   N     0.34588   0.52581   0.22498   0.00000  Uiso   1.00
O229   O     0.34789   0.50785   0.26447   0.00000  Uiso   1.00
O230   O     0.36443   0.56372   0.22261   0.00000  Uiso   1.00
C231   C     0.56379   0.55726   0.05663   0.00000  Uiso   1.00
N232   N     0.59236   0.57975   0.07931   0.00000  Uiso   1.00
C233   C     0.43620   0.44274   0.27671   0.00000  Uiso   1.00
N234   N     0.40764   0.42025   0.25402   0.00000  Uiso   1.00
N235   N     0.55537   0.56269   0.29374   0.00000  Uiso   1.00
O236   O     0.60016   0.55596   0.28172   0.00000  Uiso   1.00
O237   O     0.54273   0.60089   0.29943   0.00000  Uiso   1.00
N238   N     0.44463   0.43731   0.03960   0.00000  Uiso   1.00
O239   O     0.39984   0.44404   0.05161   0.00000  Uiso   1.00
O240   O     0.45727   0.39911   0.03390   0.00000  Uiso   1.00
O241   O     0.83333   0.43892   0.20487   0.00000  Uiso   1.00
O242   O     0.83334   0.56108   0.12846   0.00000  Uiso   1.00
O243   O     0.83333   0.43893   0.12843   0.00000  Uiso   1.00
O244   O     0.83334   0.56107   0.20490   0.00000  Uiso   1.00
C245   C     0.83371   0.42004   0.16678   0.00000  Uiso   1.00
C246   C     0.83295   0.57996   0.16655   0.00000  Uiso   1.00
O247   O     0.75725   0.50000   0.19595   0.00000  Uiso   1.00
O248   O     0.90942   0.50000   0.13739   0.00000  Uiso   1.00
O249   O     0.75725   0.50000   0.11950   0.00000  Uiso   1.00
O250   O     0.90942   0.50000   0.21383   0.00000  Uiso   1.00
C251   C     0.73389   0.50030   0.15476   0.00000  Uiso   1.00
C252   C     0.93277   0.49970   0.17858   0.00000  Uiso   1.00
Zn253  Zn    0.83333   0.49999   0.21771   0.00000  Uiso   1.00
Zn254  Zn    0.83333   0.50001   0.11563   0.00000  Uiso   1.00
N255   N     0.83332   0.49999   0.28573   0.00000  Uiso   1.00
N256   N     0.83335   0.50001   0.04760   0.00000  Uiso   1.00
C257   C     0.67914   0.49539   0.14898   0.00000  Uiso   1.00
C258   C     0.98752   0.50461   0.18436   0.00000  Uiso   1.00
C259   C     0.84698   0.35515   0.12930   0.00000  Uiso   1.00
C260   C     0.81969   0.64485   0.20404   0.00000  Uiso   1.00
H261   H     0.85843   0.37176   0.10053   0.00000  Uiso   1.00
H262   H     0.80823   0.62824   0.23281   0.00000  Uiso   1.00
C263   C     0.84559   0.64586   0.12875   0.00000  Uiso   1.00
C264   C     0.82108   0.35414   0.20459   0.00000  Uiso   1.00
H265   H     0.85508   0.63013   0.09919   0.00000  Uiso   1.00
H266   H     0.81159   0.36987   0.23415   0.00000  Uiso   1.00
C267   C     0.83249   0.62414   0.16633   0.00000  Uiso   1.00
C268   C     0.83417   0.37586   0.16700   0.00000  Uiso   1.00
C269   C     0.86239   0.52897   0.02801   0.00000  Uiso   1.00
C270   C     0.80427   0.47103   0.30532   0.00000  Uiso   1.00
C271   C     0.86155   0.52964   0.31332   0.00000  Uiso   1.00
C272   C     0.80512   0.47036   0.02001   0.00000  Uiso   1.00
N273   N     0.98745   0.47419   0.10836   0.00000  Uiso   1.00
O274   O     0.98544   0.49215   0.06887   0.00000  Uiso   1.00
O275   O     0.96891   0.43628   0.11072   0.00000  Uiso   1.00
N276   N     0.67922   0.52581   0.22498   0.00000  Uiso   1.00
O277   O     0.68122   0.50785   0.26447   0.00000  Uiso   1.00
O278   O     0.69776   0.56372   0.22261   0.00000  Uiso   1.00
C279   C     0.89713   0.55726   0.05663   0.00000  Uiso   1.00
N280   N     0.92570   0.57975   0.07931   0.00000  Uiso   1.00
C281   C     0.76954   0.44274   0.27671   0.00000  Uiso   1.00
N282   N     0.74097   0.42025   0.25402   0.00000  Uiso   1.00
N283   N     0.88870   0.56269   0.29374   0.00000  Uiso   1.00
O284   O     0.93349   0.55596   0.28172   0.00000  Uiso   1.00
O285   O     0.87607   0.60089   0.29943   0.00000  Uiso   1.00
N286   N     0.77797   0.43731   0.03960   0.00000  Uiso   1.00
O287   O     0.73317   0.44404   0.05161   0.00000  Uiso   1.00
O288   O     0.79060   0.39911   0.03390   0.00000  Uiso   1.00
O289   O     0.16666   0.77225   0.20487   0.00000  Uiso   1.00
O290   O     0.16667   0.89442   0.12846   0.00000  Uiso   1.00
O291   O     0.16666   0.77226   0.12843   0.00000  Uiso   1.00
O292   O     0.16667   0.89441   0.20490   0.00000  Uiso   1.00
C293   C     0.16705   0.75337   0.16678   0.00000  Uiso   1.00
C294   C     0.16628   0.91330   0.16655   0.00000  Uiso   1.00
O295   O     0.09058   0.83333   0.19595   0.00000  Uiso   1.00
O296   O     0.24275   0.83334   0.13739   0.00000  Uiso   1.00
O297   O     0.09058   0.83334   0.11950   0.00000  Uiso   1.00
O298   O     0.24275   0.83333   0.21383   0.00000  Uiso   1.00
C299   C     0.06723   0.83364   0.15476   0.00000  Uiso   1.00
C300   C     0.26611   0.83303   0.17858   0.00000  Uiso   1.00
Zn301  Zn    0.16667   0.83333   0.21771   0.00000  Uiso   1.00
Zn302  Zn    0.16667   0.83334   0.11563   0.00000  Uiso   1.00
N303   N     0.16665   0.83332   0.28573   0.00000  Uiso   1.00
N304   N     0.16668   0.83334   0.04760   0.00000  Uiso   1.00
C305   C     0.01247   0.82872   0.14898   0.00000  Uiso   1.00
C306   C     0.32086   0.83795   0.18436   0.00000  Uiso   1.00
C307   C     0.18031   0.68848   0.12930   0.00000  Uiso   1.00
C308   C     0.15302   0.97818   0.20404   0.00000  Uiso   1.00
H309   H     0.19177   0.70509   0.10053   0.00000  Uiso   1.00
H310   H     0.14157   0.96158   0.23281   0.00000  Uiso   1.00
C311   C     0.17892   0.97919   0.12875   0.00000  Uiso   1.00
C312   C     0.15441   0.68748   0.20459   0.00000  Uiso   1.00
H313   H     0.18841   0.96347   0.09919   0.00000  Uiso   1.00
H314   H     0.14492   0.70320   0.23415   0.00000  Uiso   1.00
C315   C     0.16583   0.95747   0.16633   0.00000  Uiso   1.00
C316   C     0.16751   0.70920   0.16700   0.00000  Uiso   1.00
C317   C     0.19573   0.86230   0.02801   0.00000  Uiso   1.00
C318   C     0.13761   0.80436   0.30532   0.00000  Uiso   1.00
C319   C     0.19488   0.86297   0.31332   0.00000  Uiso   1.00
C320   C     0.13845   0.80370   0.02001   0.00000  Uiso   1.00
N321   N     0.32078   0.80752   0.10836   0.00000  Uiso   1.00
O322   O     0.31878   0.82548   0.06887   0.00000  Uiso   1.00
O323   O     0.30224   0.76962   0.11072   0.00000  Uiso   1.00
N324   N     0.01255   0.85915   0.22498   0.00000  Uiso   1.00
O325   O     0.01456   0.84119   0.26447   0.00000  Uiso   1.00
O326   O     0.03109   0.89705   0.22261   0.00000  Uiso   1.00
C327   C     0.23046   0.89059   0.05663   0.00000  Uiso   1.00
N328   N     0.25903   0.91308   0.07931   0.00000  Uiso   1.00
C329   C     0.10287   0.77607   0.27671   0.00000  Uiso   1.00
N330   N     0.07430   0.75358   0.25402   0.00000  Uiso   1.00
N331   N     0.22203   0.89602   0.29374   0.00000  Uiso   1.00
O332   O     0.26683   0.88929   0.28172   0.00000  Uiso   1.00
O333   O     0.20940   0.93423   0.29943   0.00000  Uiso   1.00
N334   N     0.11130   0.77064   0.03960   0.00000  Uiso   1.00
O335   O     0.06651   0.77737   0.05161   0.00000  Uiso   1.00
O336   O     0.12393   0.73244   0.03390   0.00000  Uiso   1.00
O337   O     0.50000   0.77225   0.20487   0.00000  Uiso   1.00
O338   O     0.50000   0.89442   0.12846   0.00000  Uiso   1.00
O339   O     0.50000   0.77226   0.12843   0.00000  Uiso   1.00
O340   O     0.50000   0.89441   0.20490   0.00000  Uiso   1.00
C341   C     0.50038   0.75337   0.16678   0.00000  Uiso   1.00
C342   C     0.49962   0.91330   0.16655   0.00000  Uiso   1.00
O343   O     0.42392   0.83333   0.19595   0.00000  Uiso   1.00
O344   O     0.57608   0.83334   0.13739   0.00000  Uiso   1.00
O345   O     0.42392   0.83334   0.11950   0.00000  Uiso   1.00
O346   O     0.57608   0.83333   0.21383   0.00000  Uiso   1.00
C347   C     0.40056   0.83364   0.15476   0.00000  Uiso   1.00
C348   C     0.59944   0.83303   0.17858   0.00000  Uiso   1.00
Zn349  Zn    0.50000   0.83333   0.21771   0.00000  Uiso   1.00
Zn350  Zn    0.50000   0.83334   0.11563   0.00000  Uiso   1.00
N351   N     0.49999   0.83332   0.28573   0.00000  Uiso   1.00
N352   N     0.50001   0.83334   0.04760   0.00000  Uiso   1.00
C353   C     0.34581   0.82872   0.14898   0.00000  Uiso   1.00
C354   C     0.65419   0.83795   0.18436   0.00000  Uiso   1.00
C355   C     0.51365   0.68848   0.12930   0.00000  Uiso   1.00
C356   C     0.48635   0.97818   0.20404   0.00000  Uiso   1.00
H357   H     0.52510   0.70509   0.10053   0.00000  Uiso   1.00
H358   H     0.47490   0.96158   0.23281   0.00000  Uiso   1.00
C359   C     0.51226   0.97919   0.12875   0.00000  Uiso   1.00
C360   C     0.48774   0.68748   0.20459   0.00000  Uiso   1.00
H361   H     0.52175   0.96347   0.09919   0.00000  Uiso   1.00
H362   H     0.47825   0.70320   0.23415   0.00000  Uiso   1.00
C363   C     0.49916   0.95747   0.16633   0.00000  Uiso   1.00
C364   C     0.50084   0.70920   0.16700   0.00000  Uiso   1.00
C365   C     0.52906   0.86230   0.02801   0.00000  Uiso   1.00
C366   C     0.47094   0.80436   0.30532   0.00000  Uiso   1.00
C367   C     0.52821   0.86297   0.31332   0.00000  Uiso   1.00
C368   C     0.47179   0.80370   0.02001   0.00000  Uiso   1.00
N369   N     0.65412   0.80752   0.10836   0.00000  Uiso   1.00
O370   O     0.65211   0.82548   0.06887   0.00000  Uiso   1.00
O371   O     0.63557   0.76962   0.11072   0.00000  Uiso   1.00
N372   N     0.34588   0.85915   0.22498   0.00000  Uiso   1.00
O373   O     0.34789   0.84119   0.26447   0.00000  Uiso   1.00
O374   O     0.36443   0.89705   0.22261   0.00000  Uiso   1.00
C375   C     0.56379   0.89059   0.05663   0.00000  Uiso   1.00
N376   N     0.59236   0.91308   0.07931   0.00000  Uiso   1.00
C377   C     0.43620   0.77607   0.27671   0.00000  Uiso   1.00
N378   N     0.40764   0.75358   0.25402   0.00000  Uiso   1.00
N379   N     0.55537   0.89602   0.29374   0.00000  Uiso   1.00
O380   O     0.60016   0.88929   0.28172   0.00000  Uiso   1.00
O381   O     0.54273   0.93423   0.29943   0.00000  Uiso   1.00
N382   N     0.44463   0.77064   0.03960   0.00000  Uiso   1.00
O383   O     0.39984   0.77737   0.05161   0.00000  Uiso   1.00
O384   O     0.45727   0.73244   0.03390   0.00000  Uiso   1.00
O385   O     0.83333   0.77225   0.20487   0.00000  Uiso   1.00
O386   O     0.83334   0.89442   0.12846   0.00000  Uiso   1.00
O387   O     0.83333   0.77226   0.12843   0.00000  Uiso   1.00
O388   O     0.83334   0.89441   0.20490   0.00000  Uiso   1.00
C389   C     0.83371   0.75337   0.16678   0.00000  Uiso   1.00
C390   C     0.83295   0.91330   0.16655   0.00000  Uiso   1.00
O391   O     0.75725   0.83333   0.19595   0.00000  Uiso   1.00
O392   O     0.90942   0.83334   0.13739   0.00000  Uiso   1.00
O393   O     0.75725   0.83334   0.11950   0.00000  Uiso   1.00
O394   O     0.90942   0.83333   0.21383   0.00000  Uiso   1.00
C395   C     0.73389   0.83364   0.15476   0.00000  Uiso   1.00
C396   C     0.93277   0.83303   0.17858   0.00000  Uiso   1.00
Zn397  Zn    0.83333   0.83333   0.21771   0.00000  Uiso   1.00
Zn398  Zn    0.83333   0.83334   0.11563   0.00000  Uiso   1.00
N399   N     0.83332   0.83332   0.28573   0.00000  Uiso   1.00
N400   N     0.83335   0.83334   0.04760   0.00000  Uiso   1.00
C401   C     0.67914   0.82872   0.14898   0.00000  Uiso   1.00
C402   C     0.98752   0.83795   0.18436   0.00000  Uiso   1.00
C403   C     0.84698   0.68848   0.12930   0.00000  Uiso   1.00
C404   C     0.81969   0.97818   0.20404   0.00000  Uiso   1.00
H405   H     0.85843   0.70509   0.10053   0.00000  Uiso   1.00
H406   H     0.80823   0.96158   0.23281   0.00000  Uiso   1.00
C407   C     0.84559   0.97919   0.12875   0.00000  Uiso   1.00
C408   C     0.82108   0.68748   0.20459   0.00000  Uiso   1.00
H409   H     0.85508   0.96347   0.09919   0.00000  Uiso   1.00
H410   H     0.81159   0.70320   0.23415   0.00000  Uiso   1.00
C411   C     0.83249   0.95747   0.16633   0.00000  Uiso   1.00
C412   C     0.83417   0.70920   0.16700   0.00000  Uiso   1.00
C413   C     0.86239   0.86230   0.02801   0.00000  Uiso   1.00
C414   C     0.80427   0.80436   0.30532   0.00000  Uiso   1.00
C415   C     0.86155   0.86297   0.31332   0.00000  Uiso   1.00
C416   C     0.80512   0.80370   0.02001   0.00000  Uiso   1.00
N417   N     0.98745   0.80752   0.10836   0.00000  Uiso   1.00
O418   O     0.98544   0.82548   0.06887   0.00000  Uiso   1.00
O419   O     0.96891   0.76962   0.11072   0.00000  Uiso   1.00
N420   N     0.67922   0.85915   0.22498   0.00000  Uiso   1.00
O421   O     0.68122   0.84119   0.26447   0.00000  Uiso   1.00
O422   O     0.69776   0.89705   0.22261   0.00000  Uiso   1.00
C423   C     0.89713   0.89059   0.05663   0.00000  Uiso   1.00
N424   N     0.92570   0.91308   0.07931   0.00000  Uiso   1.00
C425   C     0.76954   0.77607   0.27671   0.00000  Uiso   1.00
N426   N     0.74097   0.75358   0.25402   0.00000  Uiso   1.00
N427   N     0.88870   0.89602   0.29374   0.00000  Uiso   1.00
O428   O     0.93349   0.88929   0.28172   0.00000  Uiso   1.00
O429   O     0.87607   0.93423   0.29943   0.00000  Uiso   1.00
N430   N     0.77797   0.77064   0.03960   0.00000  Uiso   1.00
O431   O     0.73317   0.77737   0.05161   0.00000  Uiso   1.00
O432   O     0.79060   0.73244   0.03390   0.00000  Uiso   1.00
O433   O     0.16666   0.10558   0.53821   0.00000  Uiso   1.00
O434   O     0.16667   0.22775   0.46179   0.00000  Uiso   1.00
O435   O     0.16666   0.10559   0.46176   0.00000  Uiso   1.00
O436   O     0.16667   0.22774   0.53824   0.00000  Uiso   1.00
C437   C     0.16705   0.08670   0.50012   0.00000  Uiso   1.00
C438   C     0.16628   0.24663   0.49988   0.00000  Uiso   1.00
O439   O     0.09058   0.16666   0.52928   0.00000  Uiso   1.00
O440   O     0.24275   0.16667   0.47072   0.00000  Uiso   1.00
O441   O     0.09058   0.16667   0.45284   0.00000  Uiso   1.00
O442   O     0.24275   0.16666   0.54716   0.00000  Uiso   1.00
C443   C     0.06723   0.16697   0.48809   0.00000  Uiso   1.00
C444   C     0.26611   0.16636   0.51191   0.00000  Uiso   1.00
Zn445  Zn    0.16667   0.16666   0.55104   0.00000  Uiso   1.00
Zn446  Zn    0.16667   0.16667   0.44896   0.00000  Uiso   1.00
N447   N     0.16665   0.16666   0.61907   0.00000  Uiso   1.00
N448   N     0.16668   0.16668   0.38093   0.00000  Uiso   1.00
C449   C     0.01247   0.16205   0.48231   0.00000  Uiso   1.00
C450   C     0.32086   0.17128   0.51769   0.00000  Uiso   1.00
C451   C     0.18031   0.02182   0.46263   0.00000  Uiso   1.00
C452   C     0.15302   0.31152   0.53737   0.00000  Uiso   1.00
H453   H     0.19177   0.03843   0.43386   0.00000  Uiso   1.00
H454   H     0.14157   0.29491   0.56614   0.00000  Uiso   1.00
C455   C     0.17892   0.31252   0.46208   0.00000  Uiso   1.00
C456   C     0.15441   0.02081   0.53792   0.00000  Uiso   1.00
H457   H     0.18841   0.29680   0.43252   0.00000  Uiso   1.00
H458   H     0.14492   0.03653   0.56748   0.00000  Uiso   1.00
C459   C     0.16583   0.29080   0.49966   0.00000  Uiso   1.00
C460   C     0.16751   0.04253   0.50034   0.00000  Uiso   1.00
C461   C     0.19573   0.19564   0.36135   0.00000  Uiso   1.00
C462   C     0.13761   0.13770   0.63865   0.00000  Uiso   1.00
C463   C     0.19488   0.19630   0.64666   0.00000  Uiso   1.00
C464   C     0.13845   0.13703   0.35334   0.00000  Uiso   1.00
N465   N     0.32078   0.14085   0.44169   0.00000  Uiso   1.00
O466   O     0.31878   0.15881   0.40220   0.00000  Uiso   1.00
O467   O     0.30224   0.10295   0.44405   0.00000  Uiso   1.00
N468   N     0.01255   0.19248   0.55831   0.00000  Uiso   1.00
O469   O     0.01456   0.17452   0.59780   0.00000  Uiso   1.00
O470   O     0.03109   0.23038   0.55595   0.00000  Uiso   1.00
C471   C     0.23046   0.22393   0.38996   0.00000  Uiso   1.00
N472   N     0.25903   0.24642   0.41265   0.00000  Uiso   1.00
C473   C     0.10287   0.10941   0.61004   0.00000  Uiso   1.00
N474   N     0.07430   0.08692   0.58735   0.00000  Uiso   1.00
N475   N     0.22203   0.22936   0.62707   0.00000  Uiso   1.00
O476   O     0.26683   0.22263   0.61505   0.00000  Uiso   1.00
O477   O     0.20940   0.26756   0.63277   0.00000  Uiso   1.00
N478   N     0.11130   0.10398   0.37293   0.00000  Uiso   1.00
O479   O     0.06651   0.11071   0.38495   0.00000  Uiso   1.00
O480   O     0.12393   0.06577   0.36723   0.00000  Uiso   1.00
O481   O     0.50000   0.10558   0.53821   0.00000  Uiso   1.00
O482   O     0.50000   0.22775   0.46179   0.00000  Uiso   1.00
O483   O     0.50000   0.10559   0.46176   0.00000  Uiso   1.00
O484   O     0.50000   0.22774   0.53824   0.00000  Uiso   1.00
C485   C     0.50038   0.08670   0.50012   0.00000  Uiso   1.00
C486   C     0.49962   0.24663   0.49988   0.00000  Uiso   1.00
O487   O     0.42392   0.16666   0.52928   0.00000  Uiso   1.00
O488   O     0.57608   0.16667   0.47072   0.00000  Uiso   1.00
O489   O     0.42392   0.16667   0.45284   0.00000  Uiso   1.00
O490   O     0.57608   0.16666   0.54716   0.00000  Uiso   1.00
C491   C     0.40056   0.16697   0.48809   0.00000  Uiso   1.00
C492   C     0.59944   0.16636   0.51191   0.00000  Uiso   1.00
Zn493  Zn    0.50000   0.16666   0.55104   0.00000  Uiso   1.00
Zn494  Zn    0.50000   0.16667   0.44896   0.00000  Uiso   1.00
N495   N     0.49999   0.16666   0.61907   0.00000  Uiso   1.00
N496   N     0.50001   0.16668   0.38093   0.00000  Uiso   1.00
C497   C     0.34581   0.16205   0.48231   0.00000  Uiso   1.00
C498   C     0.65419   0.17128   0.51769   0.00000  Uiso   1.00
C499   C     0.51365   0.02182   0.46263   0.00000  Uiso   1.00
C500   C     0.48635   0.31152   0.53737   0.00000  Uiso   1.00
H501   H     0.52510   0.03843   0.43386   0.00000  Uiso   1.00
H502   H     0.47490   0.29491   0.56614   0.00000  Uiso   1.00
C503   C     0.51226   0.31252   0.46208   0.00000  Uiso   1.00
C504   C     0.48774   0.02081   0.53792   0.00000  Uiso   1.00
H505   H     0.52175   0.29680   0.43252   0.00000  Uiso   1.00
H506   H     0.47825   0.03653   0.56748   0.00000  Uiso   1.00
C507   C     0.49916   0.29080   0.49966   0.00000  Uiso   1.00
C508   C     0.50084   0.04253   0.50034   0.00000  Uiso   1.00
C509   C     0.52906   0.19564   0.36135   0.00000  Uiso   1.00
C510   C     0.47094   0.13770   0.63865   0.00000  Uiso   1.00
C511   C     0.52821   0.19630   0.64666   0.00000  Uiso   1.00
C512   C     0.47179   0.13703   0.35334   0.00000  Uiso   1.00
N513   N     0.65412   0.14085   0.44169   0.00000  Uiso   1.00
O514   O     0.65211   0.15881   0.40220   0.00000  Uiso   1.00
O515   O     0.63557   0.10295   0.44405   0.00000  Uiso   1.00
N516   N     0.34588   0.19248   0.55831   0.00000  Uiso   1.00
O517   O     0.34789   0.17452   0.59780   0.00000  Uiso   1.00
O518   O     0.36443   0.23038   0.55595   0.00000  Uiso   1.00
C519   C     0.56379   0.22393   0.38996   0.00000  Uiso   1.00
N520   N     0.59236   0.24642   0.41265   0.00000  Uiso   1.00
C521   C     0.43620   0.10941   0.61004   0.00000  Uiso   1.00
N522   N     0.40764   0.08692   0.58735   0.00000  Uiso   1.00
N523   N     0.55537   0.22936   0.62707   0.00000  Uiso   1.00
O524   O     0.60016   0.22263   0.61505   0.00000  Uiso   1.00
O525   O     0.54273   0.26756   0.63277   0.00000  Uiso   1.00
N526   N     0.44463   0.10398   0.37293   0.00000  Uiso   1.00
O527   O     0.39984   0.11071   0.38495   0.00000  Uiso   1.00
O528   O     0.45727   0.06577   0.36723   0.00000  Uiso   1.00
O529   O     0.83333   0.10558   0.53821   0.00000  Uiso   1.00
O530   O     0.83334   0.22775   0.46179   0.00000  Uiso   1.00
O531   O     0.83333   0.10559   0.46176   0.00000  Uiso   1.00
O532   O     0.83334   0.22774   0.53824   0.00000  Uiso   1.00
C533   C     0.83371   0.08670   0.50012   0.00000  Uiso   1.00
C534   C     0.83295   0.24663   0.49988   0.00000  Uiso   1.00
O535   O     0.75725   0.16666   0.52928   0.00000  Uiso   1.00
O536   O     0.90942   0.16667   0.47072   0.00000  Uiso   1.00
O537   O     0.75725   0.16667   0.45284   0.00000  Uiso   1.00
O538   O     0.90942   0.16666   0.54716   0.00000  Uiso   1.00
C539   C     0.73389   0.16697   0.48809   0.00000  Uiso   1.00
C540   C     0.93277   0.16636   0.51191   0.00000  Uiso   1.00
Zn541  Zn    0.83333   0.16666   0.55104   0.00000  Uiso   1.00
Zn542  Zn    0.83333   0.16667   0.44896   0.00000  Uiso   1.00
N543   N     0.83332   0.16666   0.61907   0.00000  Uiso   1.00
N544   N     0.83335   0.16668   0.38093   0.00000  Uiso   1.00
C545   C     0.67914   0.16205   0.48231   0.00000  Uiso   1.00
C546   C     0.98752   0.17128   0.51769   0.00000  Uiso   1.00
C547   C     0.84698   0.02182   0.46263   0.00000  Uiso   1.00
C548   C     0.81969   0.31152   0.53737   0.00000  Uiso   1.00
H549   H     0.85843   0.03843   0.43386   0.00000  Uiso   1.00
H550   H     0.80823   0.29491   0.56614   0.00000  Uiso   1.00
C551   C     0.84559   0.31252   0.46208   0.00000  Uiso   1.00
C552   C     0.82108   0.02081   0.53792   0.00000  Uiso   1.00
H553   H     0.85508   0.29680   0.43252   0.00000  Uiso   1.00
H554   H     0.81159   0.03653   0.56748   0.00000  Uiso   1.00
C555   C     0.83249   0.29080   0.49966   0.00000  Uiso   1.00
C556   C     0.83417   0.04253   0.50034   0.00000  Uiso   1.00
C557   C     0.86239   0.19564   0.36135   0.00000  Uiso   1.00
C558   C     0.80427   0.13770   0.63865   0.00000  Uiso   1.00
C559   C     0.86155   0.19630   0.64666   0.00000  Uiso   1.00
C560   C     0.80512   0.13703   0.35334   0.00000  Uiso   1.00
N561   N     0.98745   0.14085   0.44169   0.00000  Uiso   1.00
O562   O     0.98544   0.15881   0.40220   0.00000  Uiso   1.00
O563   O     0.96891   0.10295   0.44405   0.00000  Uiso   1.00
N564   N     0.67922   0.19248   0.55831   0.00000  Uiso   1.00
O565   O     0.68122   0.17452   0.59780   0.00000  Uiso   1.00
O566   O     0.69776   0.23038   0.55595   0.00000  Uiso   1.00
C567   C     0.89713   0.22393   0.38996   0.00000  Uiso   1.00
N568   N     0.92570   0.24642   0.41265   0.00000  Uiso   1.00
C569   C     0.76954   0.10941   0.61004   0.00000  Uiso   1.00
N570   N     0.74097   0.08692   0.58735   0.00000  Uiso   1.00
N571   N     0.88870   0.22936   0.62707   0.00000  Uiso   1.00
O572   O     0.93349   0.22263   0.61505   0.00000  Uiso   1.00
O573   O     0.87607   0.26756   0.63277   0.00000  Uiso   1.00
N574   N     0.77797   0.10398   0.37293   0.00000  Uiso   1.00
O575   O     0.73317   0.11071   0.38495   0.00000  Uiso   1.00
O576   O     0.79060   0.06577   0.36723   0.00000  Uiso   1.00
O577   O     0.16666   0.43892   0.53821   0.00000  Uiso   1.00
O578   O     0.16667   0.56108   0.46179   0.00000  Uiso   1.00
O579   O     0.16666   0.43893   0.46176   0.00000  Uiso   1.00
O580   O     0.16667   0.56107   0.53824   0.00000  Uiso   1.00
C581   C     0.16705   0.42004   0.50012   0.00000  Uiso   1.00
C582   C     0.16628   0.57996   0.49988   0.00000  Uiso   1.00
O583   O     0.09058   0.50000   0.52928   0.00000  Uiso   1.00
O584   O     0.24275   0.50000   0.47072   0.00000  Uiso   1.00
O585   O     0.09058   0.50000   0.45284   0.00000  Uiso   1.00
O586   O     0.24275   0.50000   0.54716   0.00000  Uiso   1.00
C587   C     0.06723   0.50030   0.48809   0.00000  Uiso   1.00
C588   C     0.26611   0.49970   0.51191   0.00000  Uiso   1.00
Zn589  Zn    0.16667   0.49999   0.55104   0.00000  Uiso   1.00
Zn590  Zn    0.16667   0.50001   0.44896   0.00000  Uiso   1.00
N591   N     0.16665   0.49999   0.61907   0.00000  Uiso   1.00
N592   N     0.16668   0.50001   0.38093   0.00000  Uiso   1.00
C593   C     0.01247   0.49539   0.48231   0.00000  Uiso   1.00
C594   C     0.32086   0.50461   0.51769   0.00000  Uiso   1.00
C595   C     0.18031   0.35515   0.46263   0.00000  Uiso   1.00
C596   C     0.15302   0.64485   0.53737   0.00000  Uiso   1.00
H597   H     0.19177   0.37176   0.43386   0.00000  Uiso   1.00
H598   H     0.14157   0.62824   0.56614   0.00000  Uiso   1.00
C599   C     0.17892   0.64586   0.46208   0.00000  Uiso   1.00
C600   C     0.15441   0.35414   0.53792   0.00000  Uiso   1.00
H601   H     0.18841   0.63013   0.43252   0.00000  Uiso   1.00
H602   H     0.14492   0.36987   0.56748   0.00000  Uiso   1.00
C603   C     0.16583   0.62414   0.49966   0.00000  Uiso   1.00
C604   C     0.16751   0.37586   0.50034   0.00000  Uiso   1.00
C605   C     0.19573   0.52897   0.36135   0.00000  Uiso   1.00
C606   C     0.13761   0.47103   0.63865   0.00000  Uiso   1.00
C607   C     0.19488   0.52964   0.64666   0.00000  Uiso   1.00
C608   C     0.13845   0.47036   0.35334   0.00000  Uiso   1.00
N609   N     0.32078   0.47419   0.44169   0.00000  Uiso   1.00
O610   O     0.31878   0.49215   0.40220   0.00000  Uiso   1.00
O611   O     0.30224   0.43628   0.44405   0.00000  Uiso   1.00
N612   N     0.01255   0.52581   0.55831   0.00000  Uiso   1.00
O613   O     0.01456   0.50785   0.59780   0.00000  Uiso   1.00
O614   O     0.03109   0.56372   0.55595   0.00000  Uiso   1.00
C615   C     0.23046   0.55726   0.38996   0.00000  Uiso   1.00
N616   N     0.25903   0.57975   0.41265   0.00000  Uiso   1.00
C617   C     0.10287   0.44274   0.61004   0.00000  Uiso   1.00
N618   N     0.07430   0.42025   0.58735   0.00000  Uiso   1.00
N619   N     0.22203   0.56269   0.62707   0.00000  Uiso   1.00
O620   O     0.26683   0.55596   0.61505   0.00000  Uiso   1.00
O621   O     0.20940   0.60089   0.63277   0.00000  Uiso   1.00
N622   N     0.11130   0.43731   0.37293   0.00000  Uiso   1.00
O623   O     0.06651   0.44404   0.38495   0.00000  Uiso   1.00
O624   O     0.12393   0.39911   0.36723   0.00000  Uiso   1.00
O625   O     0.50000   0.43892   0.53821   0.00000  Uiso   1.00
O626   O     0.50000   0.56108   0.46179   0.00000  Uiso   1.00
O627   O     0.50000   0.43893   0.46176   0.00000  Uiso   1.00
O628   O     0.50000   0.56107   0.53824   0.00000  Uiso   1.00
C629   C     0.50038   0.42004   0.50012   0.00000  Uiso   1.00
C630   C     0.49962   0.57996   0.49988   0.00000  Uiso   1.00
O631   O     0.42392   0.50000   0.52928   0.00000  Uiso   1.00
O632   O     0.57608   0.50000   0.47072   0.00000  Uiso   1.00
O633   O     0.42392   0.50000   0.45284   0.00000  Uiso   1.00
O634   O     0.57608   0.50000   0.54716   0.00000  Uiso   1.00
C635   C     0.40056   0.50030   0.48809   0.00000  Uiso   1.00
C636   C     0.59944   0.49970   0.51191   0.00000  Uiso   1.00
Zn637  Zn    0.50000   0.49999   0.55104   0.00000  Uiso   1.00
Zn638  Zn    0.50000   0.50001   0.44896   0.00000  Uiso   1.00
N639   N     0.49999   0.49999   0.61907   0.00000  Uiso   1.00
N640   N     0.50001   0.50001   0.38093   0.00000  Uiso   1.00
C641   C     0.34581   0.49539   0.48231   0.00000  Uiso   1.00
C642   C     0.65419   0.50461   0.51769   0.00000  Uiso   1.00
C643   C     0.51365   0.35515   0.46263   0.00000  Uiso   1.00
C644   C     0.48635   0.64485   0.53737   0.00000  Uiso   1.00
H645   H     0.52510   0.37176   0.43386   0.00000  Uiso   1.00
H646   H     0.47490   0.62824   0.56614   0.00000  Uiso   1.00
C647   C     0.51226   0.64586   0.46208   0.00000  Uiso   1.00
C648   C     0.48774   0.35414   0.53792   0.00000  Uiso   1.00
H649   H     0.52175   0.63013   0.43252   0.00000  Uiso   1.00
H650   H     0.47825   0.36987   0.56748   0.00000  Uiso   1.00
C651   C     0.49916   0.62414   0.49966   0.00000  Uiso   1.00
C652   C     0.50084   0.37586   0.50034   0.00000  Uiso   1.00
C653   C     0.52906   0.52897   0.36135   0.00000  Uiso   1.00
C654   C     0.47094   0.47103   0.63865   0.00000  Uiso   1.00
C655   C     0.52821   0.52964   0.64666   0.00000  Uiso   1.00
C656   C     0.47179   0.47036   0.35334   0.00000  Uiso   1.00
N657   N     0.65412   0.47419   0.44169   0.00000  Uiso   1.00
O658   O     0.65211   0.49215   0.40220   0.00000  Uiso   1.00
O659   O     0.63557   0.43628   0.44405   0.00000  Uiso   1.00
N660   N     0.34588   0.52581   0.55831   0.00000  Uiso   1.00
O661   O     0.34789   0.50785   0.59780   0.00000  Uiso   1.00
O662   O     0.36443   0.56372   0.55595   0.00000  Uiso   1.00
C663   C     0.56379   0.55726   0.38996   0.00000  Uiso   1.00
N664   N     0.59236   0.57975   0.41265   0.00000  Uiso   1.00
C665   C     0.43620   0.44274   0.61004   0.00000  Uiso   1.00
N666   N     0.40764   0.42025   0.58735   0.00000  Uiso   1.00
N667   N     0.55537   0.56269   0.62707   0.00000  Uiso   1.00
O668   O     0.60016   0.55596   0.61505   0.00000  Uiso   1.00
O669   O     0.54273   0.60089   0.63277   0.00000  Uiso   1.00
N670   N     0.44463   0.43731   0.37293   0.00000  Uiso   1.00
O671   O     0.39984   0.44404   0.38495   0.00000  Uiso   1.00
O672   O     0.45727   0.39911   0.36723   0.00000  Uiso   1.00
O673   O     0.83333   0.43892   0.53821   0.00000  Uiso   1.00
O674   O     0.83334   0.56108   0.46179   0.00000  Uiso   1.00
O675   O     0.83333   0.43893   0.46176   0.00000  Uiso   1.00
O676   O     0.83334   0.56107   0.53824   0.00000  Uiso   1.00
C677   C     0.83371   0.42004   0.50012   0.00000  Uiso   1.00
C678   C     0.83295   0.57996   0.49988   0.00000  Uiso   1.00
O679   O     0.75725   0.50000   0.52928   0.00000  Uiso   1.00
O680   O     0.90942   0.50000   0.47072   0.00000  Uiso   1.00
O681   O     0.75725   0.50000   0.45284   0.00000  Uiso   1.00
O682   O     0.90942   0.50000   0.54716   0.00000  Uiso   1.00
C683   C     0.73389   0.50030   0.48809   0.00000  Uiso   1.00
C684   C     0.93277   0.49970   0.51191   0.00000  Uiso   1.00
Zn685  Zn    0.83333   0.49999   0.55104   0.00000  Uiso   1.00
Zn686  Zn    0.83333   0.50001   0.44896   0.00000  Uiso   1.00
N687   N     0.83332   0.49999   0.61907   0.00000  Uiso   1.00
N688   N     0.83335   0.50001   0.38093   0.00000  Uiso   1.00
C689   C     0.67914   0.49539   0.48231   0.00000  Uiso   1.00
C690   C     0.98752   0.50461   0.51769   0.00000  Uiso   1.00
C691   C     0.84698   0.35515   0.46263   0.00000  Uiso   1.00
C692   C     0.81969   0.64485   0.53737   0.00000  Uiso   1.00
H693   H     0.85843   0.37176   0.43386   0.00000  Uiso   1.00
H694   H     0.80823   0.62824   0.56614   0.00000  Uiso   1.00
C695   C     0.84559   0.64586   0.46208   0.00000  Uiso   1.00
C696   C     0.82108   0.35414   0.53792   0.00000  Uiso   1.00
H697   H     0.85508   0.63013   0.43252   0.00000  Uiso   1.00
H698   H     0.81159   0.36987   0.56748   0.00000  Uiso   1.00
C699   C     0.83249   0.62414   0.49966   0.00000  Uiso   1.00
C700   C     0.83417   0.37586   0.50034   0.00000  Uiso   1.00
C701   C     0.86239   0.52897   0.36135   0.00000  Uiso   1.00
C702   C     0.80427   0.47103   0.63865   0.00000  Uiso   1.00
C703   C     0.86155   0.52964   0.64666   0.00000  Uiso   1.00
C704   C     0.80512   0.47036   0.35334   0.00000  Uiso   1.00
N705   N     0.98745   0.47419   0.44169   0.00000  Uiso   1.00
O706   O     0.98544   0.49215   0.40220   0.00000  Uiso   1.00
O707   O     0.96891   0.43628   0.44405   0.00000  Uiso   1.00
N708   N     0.67922   0.52581   0.55831   0.00000  Uiso   1.00
O709   O     0.68122   0.50785   0.59780   0.00000  Uiso   1.00
O710   O     0.69776   0.56372   0.55595   0.00000  Uiso   1.00
C711   C     0.89713   0.55726   0.38996   0.00000  Uiso   1.00
N712   N     0.92570   0.57975   0.41265   0.00000  Uiso   1.00
C713   C     0.76954   0.44274   0.61004   0.00000  Uiso   1.00
N714   N     0.74097   0.42025   0.58735   0.00000  Uiso   1.00
N715   N     0.88870   0.56269   0.62707   0.00000  Uiso   1.00
O716   O     0.93349   0.55596   0.61505   0.00000  Uiso   1.00
O717   O     0.87607   0.60089   0.63277   0.00000  Uiso   1.00
N718   N     0.77797   0.43731   0.37293   0.00000  Uiso   1.00
O719   O     0.73317   0.44404   0.38495   0.00000  Uiso   1.00
O720   O     0.79060   0.39911   0.36723   0.00000  Uiso   1.00
O721   O     0.16666   0.77225   0.53821   0.00000  Uiso   1.00
O722   O     0.16667   0.89442   0.46179   0.00000  Uiso   1.00
O723   O     0.16666   0.77226   0.46176   0.00000  Uiso   1.00
O724   O     0.16667   0.89441   0.53824   0.00000  Uiso   1.00
C725   C     0.16705   0.75337   0.50012   0.00000  Uiso   1.00
C726   C     0.16628   0.91330   0.49988   0.00000  Uiso   1.00
O727   O     0.09058   0.83333   0.52928   0.00000  Uiso   1.00
O728   O     0.24275   0.83334   0.47072   0.00000  Uiso   1.00
O729   O     0.09058   0.83334   0.45284   0.00000  Uiso   1.00
O730   O     0.24275   0.83333   0.54716   0.00000  Uiso   1.00
C731   C     0.06723   0.83364   0.48809   0.00000  Uiso   1.00
C732   C     0.26611   0.83303   0.51191   0.00000  Uiso   1.00
Zn733  Zn    0.16667   0.83333   0.55104   0.00000  Uiso   1.00
Zn734  Zn    0.16667   0.83334   0.44896   0.00000  Uiso   1.00
N735   N     0.16665   0.83332   0.61907   0.00000  Uiso   1.00
N736   N     0.16668   0.83334   0.38093   0.00000  Uiso   1.00
C737   C     0.01247   0.82872   0.48231   0.00000  Uiso   1.00
C738   C     0.32086   0.83795   0.51769   0.00000  Uiso   1.00
C739   C     0.18031   0.68848   0.46263   0.00000  Uiso   1.00
C740   C     0.15302   0.97818   0.53737   0.00000  Uiso   1.00
H741   H     0.19177   0.70509   0.43386   0.00000  Uiso   1.00
H742   H     0.14157   0.96158   0.56614   0.00000  Uiso   1.00
C743   C     0.17892   0.97919   0.46208   0.00000  Uiso   1.00
C744   C     0.15441   0.68748   0.53792   0.00000  Uiso   1.00
H745   H     0.18841   0.96347   0.43252   0.00000  Uiso   1.00
H746   H     0.14492   0.70320   0.56748   0.00000  Uiso   1.00
C747   C     0.16583   0.95747   0.49966   0.00000  Uiso   1.00
C748   C     0.16751   0.70920   0.50034   0.00000  Uiso   1.00
C749   C     0.19573   0.86230   0.36135   0.00000  Uiso   1.00
C750   C     0.13761   0.80436   0.63865   0.00000  Uiso   1.00
C751   C     0.19488   0.86297   0.64666   0.00000  Uiso   1.00
C752   C     0.13845   0.80370   0.35334   0.00000  Uiso   1.00
N753   N     0.32078   0.80752   0.44169   0.00000  Uiso   1.00
O754   O     0.31878   0.82548   0.40220   0.00000  Uiso   1.00
O755   O     0.30224   0.76962   0.44405   0.00000  Uiso   1.00
N756   N     0.01255   0.85915   0.55831   0.00000  Uiso   1.00
O757   O     0.01456   0.84119   0.59780   0.00000  Uiso   1.00
O758   O     0.03109   0.89705   0.55595   0.00000  Uiso   1.00
C759   C     0.23046   0.89059   0.38996   0.00000  Uiso   1.00
N760   N     0.25903   0.91308   0.41265   0.00000  Uiso   1.00
C761   C     0.10287   0.77607   0.61004   0.00000  Uiso   1.00
N762   N     0.07430   0.75358   0.58735   0.00000  Uiso   1.00
N763   N     0.22203   0.89602   0.62707   0.00000  Uiso   1.00
O764   O     0.26683   0.88929   0.61505   0.00000  Uiso   1.00
O765   O     0.20940   0.93423   0.63277   0.00000  Uiso   1.00
N766   N     0.11130   0.77064   0.37293   0.00000  Uiso   1.00
O767   O     0.06651   0.77737   0.38495   0.00000  Uiso   1.00
O768   O     0.12393   0.73244   0.36723   0.00000  Uiso   1.00
O769   O     0.50000   0.77225   0.53821   0.00000  Uiso   1.00
O770   O     0.50000   0.89442   0.46179   0.00000  Uiso   1.00
O771   O     0.50000   0.77226   0.46176   0.00000  Uiso   1.00
O772   O     0.50000   0.89441   0.53824   0.00000  Uiso   1.00
C773   C     0.50038   0.75337   0.50012   0.00000  Uiso   1.00
C774   C     0.49962   0.91330   0.49988   0.00000  Uiso   1.00
O775   O     0.42392   0.83333   0.52928   0.00000  Uiso   1.00
O776   O     0.57608   0.83334   0.47072   0.00000  Uiso   1.00
O777   O     0.42392   0.83334   0.45284   0.00000  Uiso   1.00
O778   O     0.57608   0.83333   0.54716   0.00000  Uiso   1.00
C779   C     0.40056   0.83364   0.48809   0.00000  Uiso   1.00
C780   C     0.59944   0.83303   0.51191   0.00000  Uiso   1.00
Zn781  Zn    0.50000   0.83333   0.55104   0.00000  Uiso   1.00
Zn782  Zn    0.50000   0.83334   0.44896   0.00000  Uiso   1.00
N783   N     0.49999   0.83332   0.61907   0.00000  Uiso   1.00
N784   N     0.50001   0.83334   0.38093   0.00000  Uiso   1.00
C785   C     0.34581   0.82872   0.48231   0.00000  Uiso   1.00
C786   C     0.65419   0.83795   0.51769   0.00000  Uiso   1.00
C787   C     0.51365   0.68848   0.46263   0.00000  Uiso   1.00
C788   C     0.48635   0.97818   0.53737   0.00000  Uiso   1.00
H789   H     0.52510   0.70509   0.43386   0.00000  Uiso   1.00
H790   H     0.47490   0.96158   0.56614   0.00000  Uiso   1.00
C791   C     0.51226   0.97919   0.46208   0.00000  Uiso   1.00
C792   C     0.48774   0.68748   0.53792   0.00000  Uiso   1.00
H793   H     0.52175   0.96347   0.43252   0.00000  Uiso   1.00
H794   H     0.47825   0.70320   0.56748   0.00000  Uiso   1.00
C795   C     0.49916   0.95747   0.49966   0.00000  Uiso   1.00
C796   C     0.50084   0.70920   0.50034   0.00000  Uiso   1.00
C797   C     0.52906   0.86230   0.36135   0.00000  Uiso   1.00
C798   C     0.47094   0.80436   0.63865   0.00000  Uiso   1.00
C799   C     0.52821   0.86297   0.64666   0.00000  Uiso   1.00
C800   C     0.47179   0.80370   0.35334   0.00000  Uiso   1.00
N801   N     0.65412   0.80752   0.44169   0.00000  Uiso   1.00
O802   O     0.65211   0.82548   0.40220   0.00000  Uiso   1.00
O803   O     0.63557   0.76962   0.44405   0.00000  Uiso   1.00
N804   N     0.34588   0.85915   0.55831   0.00000  Uiso   1.00
O805   O     0.34789   0.84119   0.59780   0.00000  Uiso   1.00
O806   O     0.36443   0.89705   0.55595   0.00000  Uiso   1.00
C807   C     0.56379   0.89059   0.38996   0.00000  Uiso   1.00
N808   N     0.59236   0.91308   0.41265   0.00000  Uiso   1.00
C809   C     0.43620   0.77607   0.61004   0.00000  Uiso   1.00
N810   N     0.40764   0.75358   0.58735   0.00000  Uiso   1.00
N811   N     0.55537   0.89602   0.62707   0.00000  Uiso   1.00
O812   O     0.60016   0.88929   0.61505   0.00000  Uiso   1.00
O813   O     0.54273   0.93423   0.63277   0.00000  Uiso   1.00
N814   N     0.44463   0.77064   0.37293   0.00000  Uiso   1.00
O815   O     0.39984   0.77737   0.38495   0.00000  Uiso   1.00
O816   O     0.45727   0.73244   0.36723   0.00000  Uiso   1.00
O817   O     0.83333   0.77225   0.53821   0.00000  Uiso   1.00
O818   O     0.83334   0.89442   0.46179   0.00000  Uiso   1.00
O819   O     0.83333   0.77226   0.46176   0.00000  Uiso   1.00
O820   O     0.83334   0.89441   0.53824   0.00000  Uiso   1.00
C821   C     0.83371   0.75337   0.50012   0.00000  Uiso   1.00
C822   C     0.83295   0.91330   0.49988   0.00000  Uiso   1.00
O823   O     0.75725   0.83333   0.52928   0.00000  Uiso   1.00
O824   O     0.90942   0.83334   0.47072   0.00000  Uiso   1.00
O825   O     0.75725   0.83334   0.45284   0.00000  Uiso   1.00
O826   O     0.90942   0.83333   0.54716   0.00000  Uiso   1.00
C827   C     0.73389   0.83364   0.48809   0.00000  Uiso   1.00
C828   C     0.93277   0.83303   0.51191   0.00000  Uiso   1.00
Zn829  Zn    0.83333   0.83333   0.55104   0.00000  Uiso   1.00
Zn830  Zn    0.83333   0.83334   0.44896   0.00000  Uiso   1.00
N831   N     0.83332   0.83332   0.61907   0.00000  Uiso   1.00
N832   N     0.83335   0.83334   0.38093   0.00000  Uiso   1.00
C833   C     0.67914   0.82872   0.48231   0.00000  Uiso   1.00
C834   C     0.98752   0.83795   0.51769   0.00000  Uiso   1.00
C835   C     0.84698   0.68848   0.46263   0.00000  Uiso   1.00
C836   C     0.81969   0.97818   0.53737   0.00000  Uiso   1.00
H837   H     0.85843   0.70509   0.43386   0.00000  Uiso   1.00
H838   H     0.80823   0.96158   0.56614   0.00000  Uiso   1.00
C839   C     0.84559   0.97919   0.46208   0.00000  Uiso   1.00
C840   C     0.82108   0.68748   0.53792   0.00000  Uiso   1.00
H841   H     0.85508   0.96347   0.43252   0.00000  Uiso   1.00
H842   H     0.81159   0.70320   0.56748   0.00000  Uiso   1.00
C843   C     0.83249   0.95747   0.49966   0.00000  Uiso   1.00
C844   C     0.83417   0.70920   0.50034   0.00000  Uiso   1.00
C845   C     0.86239   0.86230   0.36135   0.00000  Uiso   1.00
C846   C     0.80427   0.80436   0.63865   0.00000  Uiso   1.00
C847   C     0.86155   0.86297   0.64666   0.00000  Uiso   1.00
C848   C     0.80512   0.80370   0.35334   0.00000  Uiso   1.00
N849   N     0.98745   0.80752   0.44169   0.00000  Uiso   1.00
O850   O     0.98544   0.82548   0.40220   0.00000  Uiso   1.00
O851   O     0.96891   0.76962   0.44405   0.00000  Uiso   1.00
N852   N     0.67922   0.85915   0.55831   0.00000  Uiso   1.00
O853   O     0.68122   0.84119   0.59780   0.00000  Uiso   1.00
O854   O     0.69776   0.89705   0.55595   0.00000  Uiso   1.00
C855   C     0.89713   0.89059   0.38996   0.00000  Uiso   1.00
N856   N     0.92570   0.91308   0.41265   0.00000  Uiso   1.00
C857   C     0.76954   0.77607   0.61004   0.00000  Uiso   1.00
N858   N     0.74097   0.75358   0.58735   0.00000  Uiso   1.00
N859   N     0.88870   0.89602   0.62707   0.00000  Uiso   1.00
O860   O     0.93349   0.88929   0.61505   0.00000  Uiso   1.00
O861   O     0.87607   0.93423   0.63277   0.00000  Uiso   1.00
N862   N     0.77797   0.77064   0.37293   0.00000  Uiso   1.00
O863   O     0.73317   0.77737   0.38495   0.00000  Uiso   1.00
O864   O     0.79060   0.73244   0.36723   0.00000  Uiso   1.00
O865   O     0.16666   0.10558   0.87154   0.00000  Uiso   1.00
O866   O     0.16667   0.22775   0.79513   0.00000  Uiso   1.00
O867   O     0.16666   0.10559   0.79510   0.00000  Uiso   1.00
O868   O     0.16667   0.22774   0.87157   0.00000  Uiso   1.00
C869   C     0.16705   0.08670   0.83345   0.00000  Uiso   1.00
C870   C     0.16628   0.24663   0.83322   0.00000  Uiso   1.00
O871   O     0.09058   0.16666   0.86261   0.00000  Uiso   1.00
O872   O     0.24275   0.16667   0.80405   0.00000  Uiso   1.00
O873   O     0.09058   0.16667   0.78617   0.00000  Uiso   1.00
O874   O     0.24275   0.16666   0.88050   0.00000  Uiso   1.00
C875   C     0.06723   0.16697   0.82142   0.00000  Uiso   1.00
C876   C     0.26611   0.16636   0.84524   0.00000  Uiso   1.00
Zn877  Zn    0.16667   0.16666   0.88437   0.00000  Uiso   1.00
Zn878  Zn    0.16667   0.16667   0.78229   0.00000  Uiso   1.00
N879   N     0.16665   0.16666   0.95240   0.00000  Uiso   1.00
N880   N     0.16668   0.16668   0.71427   0.00000  Uiso   1.00
C881   C     0.01247   0.16205   0.81564   0.00000  Uiso   1.00
C882   C     0.32086   0.17128   0.85102   0.00000  Uiso   1.00
C883   C     0.18031   0.02182   0.79596   0.00000  Uiso   1.00
C884   C     0.15302   0.31152   0.87070   0.00000  Uiso   1.00
H885   H     0.19177   0.03843   0.76719   0.00000  Uiso   1.00
H886   H     0.14157   0.29491   0.89947   0.00000  Uiso   1.00
C887   C     0.17892   0.31252   0.79541   0.00000  Uiso   1.00
C888   C     0.15441   0.02081   0.87125   0.00000  Uiso   1.00
H889   H     0.18841   0.29680   0.76585   0.00000  Uiso   1.00
H890   H     0.14492   0.03653   0.90081   0.00000  Uiso   1.00
C891   C     0.16583   0.29080   0.83300   0.00000  Uiso   1.00
C892   C     0.16751   0.04253   0.83367   0.00000  Uiso   1.00
C893   C     0.19573   0.19564   0.69468   0.00000  Uiso   1.00
C894   C     0.13761   0.13770   0.97199   0.00000  Uiso   1.00
C895   C     0.19488   0.19630   0.97999   0.00000  Uiso   1.00
C896   C     0.13845   0.13703   0.68668   0.00000  Uiso   1.00
N897   N     0.32078   0.14085   0.77502   0.00000  Uiso   1.00
O898   O     0.31878   0.15881   0.73553   0.00000  Uiso   1.00
O899   O     0.30224   0.10295   0.77738   0.00000  Uiso   1.00
N900   N     0.01255   0.19248   0.89164   0.00000  Uiso   1.00
O901   O     0.01456   0.17452   0.93113   0.00000  Uiso   1.00
O902   O     0.03109   0.23038   0.88928   0.00000  Uiso   1.00
C903   C     0.23046   0.22393   0.72329   0.00000  Uiso   1.00
N904   N     0.25903   0.24642   0.74598   0.00000  Uiso   1.00
C905   C     0.10287   0.10941   0.94337   0.00000  Uiso   1.00
N906   N     0.07430   0.08692   0.92069   0.00000  Uiso   1.00
N907   N     0.22203   0.22936   0.96040   0.00000  Uiso   1.00
O908   O     0.26683   0.22263   0.94839   0.00000  Uiso   1.00
O909   O     0.20940   0.26756   0.96610   0.00000  Uiso   1.00
N910   N     0.11130   0.10398   0.70626   0.00000  Uiso   1.00
O911   O     0.06651   0.11071   0.71828   0.00000  Uiso   1.00
O912   O     0.12393   0.06577   0.70057   0.00000  Uiso   1.00
O913   O     0.50000   0.10558   0.87154   0.00000  Uiso   1.00
O914   O     0.50000   0.22775   0.79513   0.00000  Uiso   1.00
O915   O     0.50000   0.10559   0.79510   0.00000  Uiso   1.00
O916   O     0.50000   0.22774   0.87157   0.00000  Uiso   1.00
C917   C     0.50038   0.08670   0.83345   0.00000  Uiso   1.00
C918   C     0.49962   0.24663   0.83322   0.00000  Uiso   1.00
O919   O     0.42392   0.16666   0.86261   0.00000  Uiso   1.00
O920   O     0.57608   0.16667   0.80405   0.00000  Uiso   1.00
O921   O     0.42392   0.16667   0.78617   0.00000  Uiso   1.00
O922   O     0.57608   0.16666   0.88050   0.00000  Uiso   1.00
C923   C     0.40056   0.16697   0.82142   0.00000  Uiso   1.00
C924   C     0.59944   0.16636   0.84524   0.00000  Uiso   1.00
Zn925  Zn    0.50000   0.16666   0.88437   0.00000  Uiso   1.00
Zn926  Zn    0.50000   0.16667   0.78229   0.00000  Uiso   1.00
N927   N     0.49999   0.16666   0.95240   0.00000  Uiso   1.00
N928   N     0.50001   0.16668   0.71427   0.00000  Uiso   1.00
C929   C     0.34581   0.16205   0.81564   0.00000  Uiso   1.00
C930   C     0.65419   0.17128   0.85102   0.00000  Uiso   1.00
C931   C     0.51365   0.02182   0.79596   0.00000  Uiso   1.00
C932   C     0.48635   0.31152   0.87070   0.00000  Uiso   1.00
H933   H     0.52510   0.03843   0.76719   0.00000  Uiso   1.00
H934   H     0.47490   0.29491   0.89947   0.00000  Uiso   1.00
C935   C     0.51226   0.31252   0.79541   0.00000  Uiso   1.00
C936   C     0.48774   0.02081   0.87125   0.00000  Uiso   1.00
H937   H     0.52175   0.29680   0.76585   0.00000  Uiso   1.00
H938   H     0.47825   0.03653   0.90081   0.00000  Uiso   1.00
C939   C     0.49916   0.29080   0.83300   0.00000  Uiso   1.00
C940   C     0.50084   0.04253   0.83367   0.00000  Uiso   1.00
C941   C     0.52906   0.19564   0.69468   0.00000  Uiso   1.00
C942   C     0.47094   0.13770   0.97199   0.00000  Uiso   1.00
C943   C     0.52821   0.19630   0.97999   0.00000  Uiso   1.00
C944   C     0.47179   0.13703   0.68668   0.00000  Uiso   1.00
N945   N     0.65412   0.14085   0.77502   0.00000  Uiso   1.00
O946   O     0.65211   0.15881   0.73553   0.00000  Uiso   1.00
O947   O     0.63557   0.10295   0.77738   0.00000  Uiso   1.00
N948   N     0.34588   0.19248   0.89164   0.00000  Uiso   1.00
O949   O     0.34789   0.17452   0.93113   0.00000  Uiso   1.00
O950   O     0.36443   0.23038   0.88928   0.00000  Uiso   1.00
C951   C     0.56379   0.22393   0.72329   0.00000  Uiso   1.00
N952   N     0.59236   0.24642   0.74598   0.00000  Uiso   1.00
C953   C     0.43620   0.10941   0.94337   0.00000  Uiso   1.00
N954   N     0.40764   0.08692   0.92069   0.00000  Uiso   1.00
N955   N     0.55537   0.22936   0.96040   0.00000  Uiso   1.00
O956   O     0.60016   0.22263   0.94839   0.00000  Uiso   1.00
O957   O     0.54273   0.26756   0.96610   0.00000  Uiso   1.00
N958   N     0.44463   0.10398   0.70626   0.00000  Uiso   1.00
O959   O     0.39984   0.11071   0.71828   0.00000  Uiso   1.00
O960   O     0.45727   0.06577   0.70057   0.00000  Uiso   1.00
O961   O     0.83333   0.10558   0.87154   0.00000  Uiso   1.00
O962   O     0.83334   0.22775   0.79513   0.00000  Uiso   1.00
O963   O     0.83333   0.10559   0.79510   0.00000  Uiso   1.00
O964   O     0.83334   0.22774   0.87157   0.00000  Uiso   1.00
C965   C     0.83371   0.08670   0.83345   0.00000  Uiso   1.00
C966   C     0.83295   0.24663   0.83322   0.00000  Uiso   1.00
O967   O     0.75725   0.16666   0.86261   0.00000  Uiso   1.00
O968   O     0.90942   0.16667   0.80405   0.00000  Uiso   1.00
O969   O     0.75725   0.16667   0.78617   0.00000  Uiso   1.00
O970   O     0.90942   0.16666   0.88050   0.00000  Uiso   1.00
C971   C     0.73389   0.16697   0.82142   0.00000  Uiso   1.00
C972   C     0.93277   0.16636   0.84524   0.00000  Uiso   1.00
Zn973  Zn    0.83333   0.16666   0.88437   0.00000  Uiso   1.00
Zn974  Zn    0.83333   0.16667   0.78229   0.00000  Uiso   1.00
N975   N     0.83332   0.16666   0.95240   0.00000  Uiso   1.00
N976   N     0.83335   0.16668   0.71427   0.00000  Uiso   1.00
C977   C     0.67914   0.16205   0.81564   0.00000  Uiso   1.00
C978   C     0.98752   0.17128   0.85102   0.00000  Uiso   1.00
C979   C     0.84698   0.02182   0.79596   0.00000  Uiso   1.00
C980   C     0.81969   0.31152   0.87070   0.00000  Uiso   1.00
H981   H     0.85843   0.03843   0.76719   0.00000  Uiso   1.00
H982   H     0.80823   0.29491   0.89947   0.00000  Uiso   1.00
C983   C     0.84559   0.31252   0.79541   0.00000  Uiso   1.00
C984   C     0.82108   0.02081   0.87125   0.00000  Uiso   1.00
H985   H     0.85508   0.29680   0.76585   0.00000  Uiso   1.00
H986   H     0.81159   0.03653   0.90081   0.00000  Uiso   1.00
C987   C     0.83249   0.29080   0.83300   0.00000  Uiso   1.00
C988   C     0.83417   0.04253   0.83367   0.00000  Uiso   1.00
C989   C     0.86239   0.19564   0.69468   0.00000  Uiso   1.00
C990   C     0.80427   0.13770   0.97199   0.00000  Uiso   1.00
C991   C     0.86155   0.19630   0.97999   0.00000  Uiso   1.00
C992   C     0.80512   0.13703   0.68668   0.00000  Uiso   1.00
N993   N     0.98745   0.14085   0.77502   0.00000  Uiso   1.00
O994   O     0.98544   0.15881   0.73553   0.00000  Uiso   1.00
O995   O     0.96891   0.10295   0.77738   0.00000  Uiso   1.00
N996   N     0.67922   0.19248   0.89164   0.00000  Uiso   1.00
O997   O     0.68122   0.17452   0.93113   0.00000  Uiso   1.00
O998   O     0.69776   0.23038   0.88928   0.00000  Uiso   1.00
C999   C     0.89713   0.22393   0.72329   0.00000  Uiso   1.00
N1000  N     0.92570   0.24642   0.74598   0.00000  Uiso   1.00
C1001  C     0.76954   0.10941   0.94337   0.00000  Uiso   1.00
N1002  N     0.74097   0.08692   0.92069   0.00000  Uiso   1.00
N1003  N     0.88870   0.22936   0.96040   0.00000  Uiso   1.00
O1004  O     0.93349   0.22263   0.94839   0.00000  Uiso   1.00
O1005  O     0.87607   0.26756   0.96610   0.00000  Uiso   1.00
N1006  N     0.77797   0.10398   0.70626   0.00000  Uiso   1.00
O1007  O     0.73317   0.11071   0.71828   0.00000  Uiso   1.00
O1008  O     0.79060   0.06577   0.70057   0.00000  Uiso   1.00
O1009  O     0.16666   0.43892   0.87154   0.00000  Uiso   1.00
O1010  O     0.16667   0.56108   0.79513   0.00000  Uiso   1.00
O1011  O     0.16666   0.43893   0.79510   0.00000  Uiso   1.00
O1012  O     0.16667   0.56107   0.87157   0.00000  Uiso   1.00
C1013  C     0.16705   0.42004   0.83345   0.00000  Uiso   1.00
C1014  C     0.16628   0.57996   0.83322   0.00000  Uiso   1.00
O1015  O     0.09058   0.50000   0.86261   0.00000  Uiso   1.00
O1016  O     0.24275   0.50000   0.80405   0.00000  Uiso   1.00
O1017  O     0.09058   0.50000   0.78617   0.00000  Uiso   1.00
O1018  O     0.24275   0.50000   0.88050   0.00000  Uiso   1.00
C1019  C     0.06723   0.50030   0.82142   0.00000  Uiso   1.00
C1020  C     0.26611   0.49970   0.84524   0.00000  Uiso   1.00
Zn1021 Zn    0.16667   0.49999   0.88437   0.00000  Uiso   1.00
Zn1022 Zn    0.16667   0.50001   0.78229   0.00000  Uiso   1.00
N1023  N     0.16665   0.49999   0.95240   0.00000  Uiso   1.00
N1024  N     0.16668   0.50001   0.71427   0.00000  Uiso   1.00
C1025  C     0.01247   0.49539   0.81564   0.00000  Uiso   1.00
C1026  C     0.32086   0.50461   0.85102   0.00000  Uiso   1.00
C1027  C     0.18031   0.35515   0.79596   0.00000  Uiso   1.00
C1028  C     0.15302   0.64485   0.87070   0.00000  Uiso   1.00
H1029  H     0.19177   0.37176   0.76719   0.00000  Uiso   1.00
H1030  H     0.14157   0.62824   0.89947   0.00000  Uiso   1.00
C1031  C     0.17892   0.64586   0.79541   0.00000  Uiso   1.00
C1032  C     0.15441   0.35414   0.87125   0.00000  Uiso   1.00
H1033  H     0.18841   0.63013   0.76585   0.00000  Uiso   1.00
H1034  H     0.14492   0.36987   0.90081   0.00000  Uiso   1.00
C1035  C     0.16583   0.62414   0.83300   0.00000  Uiso   1.00
C1036  C     0.16751   0.37586   0.83367   0.00000  Uiso   1.00
C1037  C     0.19573   0.52897   0.69468   0.00000  Uiso   1.00
C1038  C     0.13761   0.47103   0.97199   0.00000  Uiso   1.00
C1039  C     0.19488   0.52964   0.97999   0.00000  Uiso   1.00
C1040  C     0.13845   0.47036   0.68668   0.00000  Uiso   1.00
N1041  N     0.32078   0.47419   0.77502   0.00000  Uiso   1.00
O1042  O     0.31878   0.49215   0.73553   0.00000  Uiso   1.00
O1043  O     0.30224   0.43628   0.77738   0.00000  Uiso   1.00
N1044  N     0.01255   0.52581   0.89164   0.00000  Uiso   1.00
O1045  O     0.01456   0.50785   0.93113   0.00000  Uiso   1.00
O1046  O     0.03109   0.56372   0.88928   0.00000  Uiso   1.00
C1047  C     0.23046   0.55726   0.72329   0.00000  Uiso   1.00
N1048  N     0.25903   0.57975   0.74598   0.00000  Uiso   1.00
C1049  C     0.10287   0.44274   0.94337   0.00000  Uiso   1.00
N1050  N     0.07430   0.42025   0.92069   0.00000  Uiso   1.00
N1051  N     0.22203   0.56269   0.96040   0.00000  Uiso   1.00
O1052  O     0.26683   0.55596   0.94839   0.00000  Uiso   1.00
O1053  O     0.20940   0.60089   0.96610   0.00000  Uiso   1.00
N1054  N     0.11130   0.43731   0.70626   0.00000  Uiso   1.00
O1055  O     0.06651   0.44404   0.71828   0.00000  Uiso   1.00
O1056  O     0.12393   0.39911   0.70057   0.00000  Uiso   1.00
O1057  O     0.50000   0.43892   0.87154   0.00000  Uiso   1.00
O1058  O     0.50000   0.56108   0.79513   0.00000  Uiso   1.00
O1059  O     0.50000   0.43893   0.79510   0.00000  Uiso   1.00
O1060  O     0.50000   0.56107   0.87157   0.00000  Uiso   1.00
C1061  C     0.50038   0.42004   0.83345   0.00000  Uiso   1.00
C1062  C     0.49962   0.57996   0.83322   0.00000  Uiso   1.00
O1063  O     0.42392   0.50000   0.86261   0.00000  Uiso   1.00
O1064  O     0.57608   0.50000   0.80405   0.00000  Uiso   1.00
O1065  O     0.42392   0.50000   0.78617   0.00000  Uiso   1.00
O1066  O     0.57608   0.50000   0.88050   0.00000  Uiso   1.00
C1067  C     0.40056   0.50030   0.82142   0.00000  Uiso   1.00
C1068  C     0.59944   0.49970   0.84524   0.00000  Uiso   1.00
Zn1069 Zn    0.50000   0.49999   0.88437   0.00000  Uiso   1.00
Zn1070 Zn    0.50000   0.50001   0.78229   0.00000  Uiso   1.00
N1071  N     0.49999   0.49999   0.95240   0.00000  Uiso   1.00
N1072  N     0.50001   0.50001   0.71427   0.00000  Uiso   1.00
C1073  C     0.34581   0.49539   0.81564   0.00000  Uiso   1.00
C1074  C     0.65419   0.50461   0.85102   0.00000  Uiso   1.00
C1075  C     0.51365   0.35515   0.79596   0.00000  Uiso   1.00
C1076  C     0.48635   0.64485   0.87070   0.00000  Uiso   1.00
H1077  H     0.52510   0.37176   0.76719   0.00000  Uiso   1.00
H1078  H     0.47490   0.62824   0.89947   0.00000  Uiso   1.00
C1079  C     0.51226   0.64586   0.79541   0.00000  Uiso   1.00
C1080  C     0.48774   0.35414   0.87125   0.00000  Uiso   1.00
H1081  H     0.52175   0.63013   0.76585   0.00000  Uiso   1.00
H1082  H     0.47825   0.36987   0.90081   0.00000  Uiso   1.00
C1083  C     0.49916   0.62414   0.83300   0.00000  Uiso   1.00
C1084  C     0.50084   0.37586   0.83367   0.00000  Uiso   1.00
C1085  C     0.52906   0.52897   0.69468   0.00000  Uiso   1.00
C1086  C     0.47094   0.47103   0.97199   0.00000  Uiso   1.00
C1087  C     0.52821   0.52964   0.97999   0.00000  Uiso   1.00
C1088  C     0.47179   0.47036   0.68668   0.00000  Uiso   1.00
N1089  N     0.65412   0.47419   0.77502   0.00000  Uiso   1.00
O1090  O     0.65211   0.49215   0.73553   0.00000  Uiso   1.00
O1091  O     0.63557   0.43628   0.77738   0.00000  Uiso   1.00
N1092  N     0.34588   0.52581   0.89164   0.00000  Uiso   1.00
O1093  O     0.34789   0.50785   0.93113   0.00000  Uiso   1.00
O1094  O     0.36443   0.56372   0.88928   0.00000  Uiso   1.00
C1095  C     0.56379   0.55726   0.72329   0.00000  Uiso   1.00
N1096  N     0.59236   0.57975   0.74598   0.00000  Uiso   1.00
C1097  C     0.43620   0.44274   0.94337   0.00000  Uiso   1.00
N1098  N     0.40764   0.42025   0.92069   0.00000  Uiso   1.00
N1099  N     0.55537   0.56269   0.96040   0.00000  Uiso   1.00
O1100  O     0.60016   0.55596   0.94839   0.00000  Uiso   1.00
O1101  O     0.54273   0.60089   0.96610   0.00000  Uiso   1.00
N1102  N     0.44463   0.43731   0.70626   0.00000  Uiso   1.00
O1103  O     0.39984   0.44404   0.71828   0.00000  Uiso   1.00
O1104  O     0.45727   0.39911   0.70057   0.00000  Uiso   1.00
O1105  O     0.83333   0.43892   0.87154   0.00000  Uiso   1.00
O1106  O     0.83334   0.56108   0.79513   0.00000  Uiso   1.00
O1107  O     0.83333   0.43893   0.79510   0.00000  Uiso   1.00
O1108  O     0.83334   0.56107   0.87157   0.00000  Uiso   1.00
C1109  C     0.83371   0.42004   0.83345   0.00000  Uiso   1.00
C1110  C     0.83295   0.57996   0.83322   0.00000  Uiso   1.00
O1111  O     0.75725   0.50000   0.86261   0.00000  Uiso   1.00
O1112  O     0.90942   0.50000   0.80405   0.00000  Uiso   1.00
O1113  O     0.75725   0.50000   0.78617   0.00000  Uiso   1.00
O1114  O     0.90942   0.50000   0.88050   0.00000  Uiso   1.00
C1115  C     0.73389   0.50030   0.82142   0.00000  Uiso   1.00
C1116  C     0.93277   0.49970   0.84524   0.00000  Uiso   1.00
Zn1117 Zn    0.83333   0.49999   0.88437   0.00000  Uiso   1.00
Zn1118 Zn    0.83333   0.50001   0.78229   0.00000  Uiso   1.00
N1119  N     0.83332   0.49999   0.95240   0.00000  Uiso   1.00
N1120  N     0.83335   0.50001   0.71427   0.00000  Uiso   1.00
C1121  C     0.67914   0.49539   0.81564   0.00000  Uiso   1.00
C1122  C     0.98752   0.50461   0.85102   0.00000  Uiso   1.00
C1123  C     0.84698   0.35515   0.79596   0.00000  Uiso   1.00
C1124  C     0.81969   0.64485   0.87070   0.00000  Uiso   1.00
H1125  H     0.85843   0.37176   0.76719   0.00000  Uiso   1.00
H1126  H     0.80823   0.62824   0.89947   0.00000  Uiso   1.00
C1127  C     0.84559   0.64586   0.79541   0.00000  Uiso   1.00
C1128  C     0.82108   0.35414   0.87125   0.00000  Uiso   1.00
H1129  H     0.85508   0.63013   0.76585   0.00000  Uiso   1.00
H1130  H     0.81159   0.36987   0.90081   0.00000  Uiso   1.00
C1131  C     0.83249   0.62414   0.83300   0.00000  Uiso   1.00
C1132  C     0.83417   0.37586   0.83367   0.00000  Uiso   1.00
C1133  C     0.86239   0.52897   0.69468   0.00000  Uiso   1.00
C1134  C     0.80427   0.47103   0.97199   0.00000  Uiso   1.00
C1135  C     0.86155   0.52964   0.97999   0.00000  Uiso   1.00
C1136  C     0.80512   0.47036   0.68668   0.00000  Uiso   1.00
N1137  N     0.98745   0.47419   0.77502   0.00000  Uiso   1.00
O1138  O     0.98544   0.49215   0.73553   0.00000  Uiso   1.00
O1139  O     0.96891   0.43628   0.77738   0.00000  Uiso   1.00
N1140  N     0.67922   0.52581   0.89164   0.00000  Uiso   1.00
O1141  O     0.68122   0.50785   0.93113   0.00000  Uiso   1.00
O1142  O     0.69776   0.56372   0.88928   0.00000  Uiso   1.00
C1143  C     0.89713   0.55726   0.72329   0.00000  Uiso   1.00
N1144  N     0.92570   0.57975   0.74598   0.00000  Uiso   1.00
C1145  C     0.76954   0.44274   0.94337   0.00000  Uiso   1.00
N1146  N     0.74097   0.42025   0.92069   0.00000  Uiso   1.00
N1147  N     0.88870   0.56269   0.96040   0.00000  Uiso   1.00
O1148  O     0.93349   0.55596   0.94839   0.00000  Uiso   1.00
O1149  O     0.87607   0.60089   0.96610   0.00000  Uiso   1.00
N1150  N     0.77797   0.43731   0.70626   0.00000  Uiso   1.00
O1151  O     0.73317   0.44404   0.71828   0.00000  Uiso   1.00
O1152  O     0.79060   0.39911   0.70057   0.00000  Uiso   1.00
O1153  O     0.16666   0.77225   0.87154   0.00000  Uiso   1.00
O1154  O     0.16667   0.89442   0.79513   0.00000  Uiso   1.00
O1155  O     0.16666   0.77226   0.79510   0.00000  Uiso   1.00
O1156  O     0.16667   0.89441   0.87157   0.00000  Uiso   1.00
C1157  C     0.16705   0.75337   0.83345   0.00000  Uiso   1.00
C1158  C     0.16628   0.91330   0.83322   0.00000  Uiso   1.00
O1159  O     0.09058   0.83333   0.86261   0.00000  Uiso   1.00
O1160  O     0.24275   0.83334   0.80405   0.00000  Uiso   1.00
O1161  O     0.09058   0.83334   0.78617   0.00000  Uiso   1.00
O1162  O     0.24275   0.83333   0.88050   0.00000  Uiso   1.00
C1163  C     0.06723   0.83364   0.82142   0.00000  Uiso   1.00
C1164  C     0.26611   0.83303   0.84524   0.00000  Uiso   1.00
Zn1165 Zn    0.16667   0.83333   0.88437   0.00000  Uiso   1.00
Zn1166 Zn    0.16667   0.83334   0.78229   0.00000  Uiso   1.00
N1167  N     0.16665   0.83332   0.95240   0.00000  Uiso   1.00
N1168  N     0.16668   0.83334   0.71427   0.00000  Uiso   1.00
C1169  C     0.01247   0.82872   0.81564   0.00000  Uiso   1.00
C1170  C     0.32086   0.83795   0.85102   0.00000  Uiso   1.00
C1171  C     0.18031   0.68848   0.79596   0.00000  Uiso   1.00
C1172  C     0.15302   0.97818   0.87070   0.00000  Uiso   1.00
H1173  H     0.19177   0.70509   0.76719   0.00000  Uiso   1.00
H1174  H     0.14157   0.96158   0.89947   0.00000  Uiso   1.00
C1175  C     0.17892   0.97919   0.79541   0.00000  Uiso   1.00
C1176  C     0.15441   0.68748   0.87125   0.00000  Uiso   1.00
H1177  H     0.18841   0.96347   0.76585   0.00000  Uiso   1.00
H1178  H     0.14492   0.70320   0.90081   0.00000  Uiso   1.00
C1179  C     0.16583   0.95747   0.83300   0.00000  Uiso   1.00
C1180  C     0.16751   0.70920   0.83367   0.00000  Uiso   1.00
C1181  C     0.19573   0.86230   0.69468   0.00000  Uiso   1.00
C1182  C     0.13761   0.80436   0.97199   0.00000  Uiso   1.00
C1183  C     0.19488   0.86297   0.97999   0.00000  Uiso   1.00
C1184  C     0.13845   0.80370   0.68668   0.00000  Uiso   1.00
N1185  N     0.32078   0.80752   0.77502   0.00000  Uiso   1.00
O1186  O     0.31878   0.82548   0.73553   0.00000  Uiso   1.00
O1187  O     0.30224   0.76962   0.77738   0.00000  Uiso   1.00
N1188  N     0.01255   0.85915   0.89164   0.00000  Uiso   1.00
O1189  O     0.01456   0.84119   0.93113   0.00000  Uiso   1.00
O1190  O     0.03109   0.89705   0.88928   0.00000  Uiso   1.00
C1191  C     0.23046   0.89059   0.72329   0.00000  Uiso   1.00
N1192  N     0.25903   0.91308   0.74598   0.00000  Uiso   1.00
C1193  C     0.10287   0.77607   0.94337   0.00000  Uiso   1.00
N1194  N     0.07430   0.75358   0.92069   0.00000  Uiso   1.00
N1195  N     0.22203   0.89602   0.96040   0.00000  Uiso   1.00
O1196  O     0.26683   0.88929   0.94839   0.00000  Uiso   1.00
O1197  O     0.20940   0.93423   0.96610   0.00000  Uiso   1.00
N1198  N     0.11130   0.77064   0.70626   0.00000  Uiso   1.00
O1199  O     0.06651   0.77737   0.71828   0.00000  Uiso   1.00
O1200  O     0.12393   0.73244   0.70057   0.00000  Uiso   1.00
O1201  O     0.50000   0.77225   0.87154   0.00000  Uiso   1.00
O1202  O     0.50000   0.89442   0.79513   0.00000  Uiso   1.00
O1203  O     0.50000   0.77226   0.79510   0.00000  Uiso   1.00
O1204  O     0.50000   0.89441   0.87157   0.00000  Uiso   1.00
C1205  C     0.50038   0.75337   0.83345   0.00000  Uiso   1.00
C1206  C     0.49962   0.91330   0.83322   0.00000  Uiso   1.00
O1207  O     0.42392   0.83333   0.86261   0.00000  Uiso   1.00
O1208  O     0.57608   0.83334   0.80405   0.00000  Uiso   1.00
O1209  O     0.42392   0.83334   0.78617   0.00000  Uiso   1.00
O1210  O     0.57608   0.83333   0.88050   0.00000  Uiso   1.00
C1211  C     0.40056   0.83364   0.82142   0.00000  Uiso   1.00
C1212  C     0.59944   0.83303   0.84524   0.00000  Uiso   1.00
Zn1213 Zn    0.50000   0.83333   0.88437   0.00000  Uiso   1.00
Zn1214 Zn    0.50000   0.83334   0.78229   0.00000  Uiso   1.00
N1215  N     0.49999   0.83332   0.95240   0.00000  Uiso   1.00
N1216  N     0.50001   0.83334   0.71427   0.00000  Uiso   1.00
C1217  C     0.34581   0.82872   0.81564   0.00000  Uiso   1.00
C1218  C     0.65419   0.83795   0.85102   0.00000  Uiso   1.00
C1219  C     0.51365   0.68848   0.79596   0.00000  Uiso   1.00
C1220  C     0.48635   0.97818   0.87070   0.00000  Uiso   1.00
H1221  H     0.52510   0.70509   0.76719   0.00000  Uiso   1.00
H1222  H     0.47490   0.96158   0.89947   0.00000  Uiso   1.00
C1223  C     0.51226   0.97919   0.79541   0.00000  Uiso   1.00
C1224  C     0.48774   0.68748   0.87125   0.00000  Uiso   1.00
H1225  H     0.52175   0.96347   0.76585   0.00000  Uiso   1.00
H1226  H     0.47825   0.70320   0.90081   0.00000  Uiso   1.00
C1227  C     0.49916   0.95747   0.83300   0.00000  Uiso   1.00
C1228  C     0.50084   0.70920   0.83367   0.00000  Uiso   1.00
C1229  C     0.52906   0.86230   0.69468   0.00000  Uiso   1.00
C1230  C     0.47094   0.80436   0.97199   0.00000  Uiso   1.00
C1231  C     0.52821   0.86297   0.97999   0.00000  Uiso   1.00
C1232  C     0.47179   0.80370   0.68668   0.00000  Uiso   1.00
N1233  N     0.65412   0.80752   0.77502   0.00000  Uiso   1.00
O1234  O     0.65211   0.82548   0.73553   0.00000  Uiso   1.00
O1235  O     0.63557   0.76962   0.77738   0.00000  Uiso   1.00
N1236  N     0.34588   0.85915   0.89164   0.00000  Uiso   1.00
O1237  O     0.34789   0.84119   0.93113   0.00000  Uiso   1.00
O1238  O     0.36443   0.89705   0.88928   0.00000  Uiso   1.00
C1239  C     0.56379   0.89059   0.72329   0.00000  Uiso   1.00
N1240  N     0.59236   0.91308   0.74598   0.00000  Uiso   1.00
C1241  C     0.43620   0.77607   0.94337   0.00000  Uiso   1.00
N1242  N     0.40764   0.75358   0.92069   0.00000  Uiso   1.00
N1243  N     0.55537   0.89602   0.96040   0.00000  Uiso   1.00
O1244  O     0.60016   0.88929   0.94839   0.00000  Uiso   1.00
O1245  O     0.54273   0.93423   0.96610   0.00000  Uiso   1.00
N1246  N     0.44463   0.77064   0.70626   0.00000  Uiso   1.00
O1247  O     0.39984   0.77737   0.71828   0.00000  Uiso   1.00
O1248  O     0.45727   0.73244   0.70057   0.00000  Uiso   1.00
O1249  O     0.83333   0.77225   0.87154   0.00000  Uiso   1.00
O1250  O     0.83334   0.89442   0.79513   0.00000  Uiso   1.00
O1251  O     0.83333   0.77226   0.79510   0.00000  Uiso   1.00
O1252  O     0.83334   0.89441   0.87157   0.00000  Uiso   1.00
C1253  C     0.83371   0.75337   0.83345   0.00000  Uiso   1.00
C1254  C     0.83295   0.91330   0.83322   0.00000  Uiso   1.00
O1255  O     0.75725   0.83333   0.86261   0.00000  Uiso   1.00
O1256  O     0.90942   0.83334   0.80405   0.00000  Uiso   1.00
O1257  O     0.75725   0.83334   0.78617   0.00000  Uiso   1.00
O1258  O     0.90942   0.83333   0.88050   0.00000  Uiso   1.00
C1259  C     0.73389   0.83364   0.82142   0.00000  Uiso   1.00
C1260  C     0.93277   0.83303   0.84524   0.00000  Uiso   1.00
Zn1261 Zn    0.83333   0.83333   0.88437   0.00000  Uiso   1.00
Zn1262 Zn    0.83333   0.83334   0.78229   0.00000  Uiso   1.00
N1263  N     0.83332   0.83332   0.95240   0.00000  Uiso   1.00
N1264  N     0.83335   0.83334   0.71427   0.00000  Uiso   1.00
C1265  C     0.67914   0.82872   0.81564   0.00000  Uiso   1.00
C1266  C     0.98752   0.83795   0.85102   0.00000  Uiso   1.00
C1267  C     0.84698   0.68848   0.79596   0.00000  Uiso   1.00
C1268  C     0.81969   0.97818   0.87070   0.00000  Uiso   1.00
H1269  H     0.85843   0.70509   0.76719   0.00000  Uiso   1.00
H1270  H     0.80823   0.96158   0.89947   0.00000  Uiso   1.00
C1271  C     0.84559   0.97919   0.79541   0.00000  Uiso   1.00
C1272  C     0.82108   0.68748   0.87125   0.00000  Uiso   1.00
H1273  H     0.85508   0.96347   0.76585   0.00000  Uiso   1.00
H1274  H     0.81159   0.70320   0.90081   0.00000  Uiso   1.00
C1275  C     0.83249   0.95747   0.83300   0.00000  Uiso   1.00
C1276  C     0.83417   0.70920   0.83367   0.00000  Uiso   1.00
C1277  C     0.86239   0.86230   0.69468   0.00000  Uiso   1.00
C1278  C     0.80427   0.80436   0.97199   0.00000  Uiso   1.00
C1279  C     0.86155   0.86297   0.97999   0.00000  Uiso   1.00
C1280  C     0.80512   0.80370   0.68668   0.00000  Uiso   1.00
N1281  N     0.98745   0.80752   0.77502   0.00000  Uiso   1.00
O1282  O     0.98544   0.82548   0.73553   0.00000  Uiso   1.00
O1283  O     0.96891   0.76962   0.77738   0.00000  Uiso   1.00
N1284  N     0.67922   0.85915   0.89164   0.00000  Uiso   1.00
O1285  O     0.68122   0.84119   0.93113   0.00000  Uiso   1.00
O1286  O     0.69776   0.89705   0.88928   0.00000  Uiso   1.00
C1287  C     0.89713   0.89059   0.72329   0.00000  Uiso   1.00
N1288  N     0.92570   0.91308   0.74598   0.00000  Uiso   1.00
C1289  C     0.76954   0.77607   0.94337   0.00000  Uiso   1.00
N1290  N     0.74097   0.75358   0.92069   0.00000  Uiso   1.00
N1291  N     0.88870   0.89602   0.96040   0.00000  Uiso   1.00
O1292  O     0.93349   0.88929   0.94839   0.00000  Uiso   1.00
O1293  O     0.87607   0.93423   0.96610   0.00000  Uiso   1.00
N1294  N     0.77797   0.77064   0.70626   0.00000  Uiso   1.00
O1295  O     0.73317   0.77737   0.71828   0.00000  Uiso   1.00
O1296  O     0.79060   0.73244   0.70057   0.00000  Uiso   1.00
loop_
_geom_bond_atom_site_label_1
_geom_bond_atom_site_label_2
_geom_bond_distance
_geom_bond_site_symmetry_2
_ccdc_geom_bond_type
O1     C5      1.288   .     A
O1     Zn13    2.002   .     S
O2     C6      1.288   .     A
O2     Zn14    2.002   .     S
O3     Zn14    1.999   .     S
O3     C5      1.289   .     A
O4     C6      1.289   .     A
O4     Zn13    1.999   .     S
C5     C28     1.421   .     S
C6     C27     1.421   .     S
O7     C11     1.278   .     A
O7     Zn13    1.985   .     S
O8     C12     1.278   .     A
O8     Zn14    1.985   .     S
O9     Zn14    2.003   .     S
O9     C11     1.292   .     A
O10    C12     1.292   .     A
O10    Zn13    2.003   .     S
C11    C17     1.412   .     S
C12    C18     1.412   .     S
Zn13   N15     2.022   .     S
Zn14   N16     2.022   .     S
N15    C31     1.374   .     A
N15    C30     1.366   .     A
N16    C32     1.374   .     A
N16    C29     1.366   .     A
C17    C114    1.359   1_455 S
C17    N129    1.440   1_455 S
C18    C65     1.359   .     S
C18    N84     1.440   .     S
C19    C28     1.396   .     A
C19    H21     1.083   .     S
C19    C311    1.370   1_545 S
C20    C27     1.396   .     A
C20    H22     1.083   .     S
C20    C168    1.370   .     S
C23    C27     1.397   .     A
C23    H25     1.081   .     S
C23    C163    1.370   .     S
C24    C28     1.397   .     A
C24    H26     1.081   .     S
C24    C308    1.370   1_545 S
C29    C39     1.441   .     S
C29    C895    1.424   1_554 S
C30    C41     1.441   .     S
C30    C464    1.424   .     S
C31    N43     1.429   .     S
C31    C461    1.424   .     S
C32    N46     1.429   .     S
C32    C894    1.424   1_554 S
N33    O35     1.302   .     A
N33    O34     1.301   .     A
N33    C65     1.440   .     S
N36    O38     1.302   .     A
N36    O37     1.301   .     A
N36    C114    1.440   1_455 S
C39    N40     1.157   .     T
C41    N42     1.157   .     T
N43    O45     1.301   .     A
N43    O44     1.298   .     A
N46    O48     1.301   .     A
N46    O47     1.298   .     A
O49    C53     1.288   .     A
O49    Zn61    2.002   .     S
O50    C54     1.288   .     A
O50    Zn62    2.002   .     S
O51    Zn62    1.999   .     S
O51    C53     1.289   .     A
O52    C54     1.289   .     A
O52    Zn61    1.999   .     S
C53    C76     1.421   .     S
C54    C75     1.421   .     S
O55    C59     1.278   .     A
O55    Zn61    1.985   .     S
O56    C60     1.278   .     A
O56    Zn62    1.985   .     S
O57    Zn62    2.003   .     S
O57    C59     1.292   .     A
O58    C60     1.292   .     A
O58    Zn61    2.003   .     S
C59    C65     1.412   .     S
C60    C66     1.412   .     S
Zn61   N63     2.022   .     S
Zn62   N64     2.022   .     S
N63    C79     1.374   .     A
N63    C78     1.366   .     A
N64    C80     1.374   .     A
N64    C77     1.366   .     A
C66    C113    1.359   .     S
C66    N132    1.440   .     S
C67    C76     1.396   .     A
C67    H69     1.083   .     S
C67    C359    1.370   1_545 S
C68    C75     1.396   .     A
C68    H70     1.083   .     S
C68    C216    1.370   .     S
C71    C75     1.397   .     A
C71    H73     1.081   .     S
C71    C211    1.370   .     S
C72    C76     1.397   .     A
C72    H74     1.081   .     S
C72    C356    1.370   1_545 S
C77    C87     1.441   .     S
C77    C943    1.424   1_554 S
C78    C89     1.441   .     S
C78    C512    1.424   .     S
C79    N91     1.429   .     S
C79    C509    1.424   .     S
C80    N94     1.429   .     S
C80    C942    1.424   1_554 S
N81    O83     1.302   .     A
N81    O82     1.301   .     A
N81    C113    1.440   .     S
N84    O86     1.302   .     A
N84    O85     1.301   .     A
C87    N88     1.157   .     T
C89    N90     1.157   .     T
N91    O93     1.301   .     A
N91    O92     1.298   .     A
N94    O96     1.301   .     A
N94    O95     1.298   .     A
O97    C101    1.288   .     A
O97    Zn109   2.002   .     S
O98    C102    1.288   .     A
O98    Zn110   2.002   .     S
O99    Zn110   1.999   .     S
O99    C101    1.289   .     A
O100   C102    1.289   .     A
O100   Zn109   1.999   .     S
C101   C124    1.421   .     S
C102   C123    1.421   .     S
O103   C107    1.278   .     A
O103   Zn109   1.985   .     S
O104   C108    1.278   .     A
O104   Zn110   1.985   .     S
O105   Zn110   2.003   .     S
O105   C107    1.292   .     A
O106   C108    1.292   .     A
O106   Zn109   2.003   .     S
C107   C113    1.412   .     S
C108   C114    1.412   .     S
Zn109  N111    2.022   .     S
Zn110  N112    2.022   .     S
N111   C127    1.374   .     A
N111   C126    1.366   .     A
N112   C128    1.374   .     A
N112   C125    1.366   .     A
C114   C17     1.359   1_655 S
C114   N36     1.440   1_655 S
C115   C124    1.396   .     A
C115   H117    1.083   .     S
C115   C407    1.370   1_545 S
C116   C123    1.396   .     A
C116   H118    1.083   .     S
C116   C264    1.370   .     S
C119   C123    1.397   .     A
C119   H121    1.081   .     S
C119   C259    1.370   .     S
C120   C124    1.397   .     A
C120   H122    1.081   .     S
C120   C404    1.370   1_545 S
C125   C135    1.441   .     S
C125   C991    1.424   1_554 S
C126   C137    1.441   .     S
C126   C560    1.424   .     S
C127   N139    1.429   .     S
C127   C557    1.424   .     S
C128   N142    1.429   .     S
C128   C990    1.424   1_554 S
N129   O131    1.302   .     A
N129   O130    1.301   .     A
N129   C17     1.440   1_655 S
N132   O134    1.302   .     A
N132   O133    1.301   .     A
C135   N136    1.157   .     T
C137   N138    1.157   .     T
N139   O141    1.301   .     A
N139   O140    1.298   .     A
N142   O144    1.301   .     A
N142   O143    1.298   .     A
O145   C149    1.288   .     A
O145   Zn157   2.002   .     S
O146   C150    1.288   .     A
O146   Zn158   2.002   .     S
O147   Zn158   1.999   .     S
O147   C149    1.289   .     A
O148   C150    1.289   .     A
O148   Zn157   1.999   .     S
C149   C172    1.421   .     S
C150   C171    1.421   .     S
O151   C155    1.278   .     A
O151   Zn157   1.985   .     S
O152   C156    1.278   .     A
O152   Zn158   1.985   .     S
O153   Zn158   2.003   .     S
O153   C155    1.292   .     A
O154   C156    1.292   .     A
O154   Zn157   2.003   .     S
C155   C161    1.412   .     S
C156   C162    1.412   .     S
Zn157  N159    2.022   .     S
Zn158  N160    2.022   .     S
N159   C175    1.374   .     A
N159   C174    1.366   .     A
N160   C176    1.374   .     A
N160   C173    1.366   .     A
C161   C258    1.359   1_455 S
C161   N273    1.440   1_455 S
C162   C209    1.359   .     S
C162   N228    1.440   .     S
C163   C172    1.396   .     A
C163   H165    1.083   .     S
C164   C171    1.396   .     A
C164   H166    1.083   .     S
C164   C312    1.370   .     S
C167   C171    1.397   .     A
C167   H169    1.081   .     S
C167   C307    1.370   .     S
C168   C172    1.397   .     A
C168   H170    1.081   .     S
C173   C183    1.441   .     S
C173   C1039   1.424   1_554 S
C174   C185    1.441   .     S
C174   C608    1.424   .     S
C175   N187    1.429   .     S
C175   C605    1.424   .     S
C176   N190    1.429   .     S
C176   C1038   1.424   1_554 S
N177   O179    1.302   .     A
N177   O178    1.301   .     A
N177   C209    1.440   .     S
N180   O182    1.302   .     A
N180   O181    1.301   .     A
N180   C258    1.440   1_455 S
C183   N184    1.157   .     T
C185   N186    1.157   .     T
N187   O189    1.301   .     A
N187   O188    1.298   .     A
N190   O192    1.301   .     A
N190   O191    1.298   .     A
O193   C197    1.288   .     A
O193   Zn205   2.002   .     S
O194   C198    1.288   .     A
O194   Zn206   2.002   .     S
O195   Zn206   1.999   .     S
O195   C197    1.289   .     A
O196   C198    1.289   .     A
O196   Zn205   1.999   .     S
C197   C220    1.421   .     S
C198   C219    1.421   .     S
O199   C203    1.278   .     A
O199   Zn205   1.985   .     S
O200   C204    1.278   .     A
O200   Zn206   1.985   .     S
O201   Zn206   2.003   .     S
O201   C203    1.292   .     A
O202   C204    1.292   .     A
O202   Zn205   2.003   .     S
C203   C209    1.412   .     S
C204   C210    1.412   .     S
Zn205  N207    2.022   .     S
Zn206  N208    2.022   .     S
N207   C223    1.374   .     A
N207   C222    1.366   .     A
N208   C224    1.374   .     A
N208   C221    1.366   .     A
C210   C257    1.359   .     S
C210   N276    1.440   .     S
C211   C220    1.396   .     A
C211   H213    1.083   .     S
C212   C219    1.396   .     A
C212   H214    1.083   .     S
C212   C360    1.370   .     S
C215   C219    1.397   .     A
C215   H217    1.081   .     S
C215   C355    1.370   .     S
C216   C220    1.397   .     A
C216   H218    1.081   .     S
C221   C231    1.441   .     S
C221   C1087   1.424   1_554 S
C222   C233    1.441   .     S
C222   C656    1.424   .     S
C223   N235    1.429   .     S
C223   C653    1.424   .     S
C224   N238    1.429   .     S
C224   C1086   1.424   1_554 S
N225   O227    1.302   .     A
N225   O226    1.301   .     A
N225   C257    1.440   .     S
N228   O230    1.302   .     A
N228   O229    1.301   .     A
C231   N232    1.157   .     T
C233   N234    1.157   .     T
N235   O237    1.301   .     A
N235   O236    1.298   .     A
N238   O240    1.301   .     A
N238   O239    1.298   .     A
O241   C245    1.288   .     A
O241   Zn253   2.002   .     S
O242   C246    1.288   .     A
O242   Zn254   2.002   .     S
O243   Zn254   1.999   .     S
O243   C245    1.289   .     A
O244   C246    1.289   .     A
O244   Zn253   1.999   .     S
C245   C268    1.421   .     S
C246   C267    1.421   .     S
O247   C251    1.278   .     A
O247   Zn253   1.985   .     S
O248   C252    1.278   .     A
O248   Zn254   1.985   .     S
O249   Zn254   2.003   .     S
O249   C251    1.292   .     A
O250   C252    1.292   .     A
O250   Zn253   2.003   .     S
C251   C257    1.412   .     S
C252   C258    1.412   .     S
Zn253  N255    2.022   .     S
Zn254  N256    2.022   .     S
N255   C271    1.374   .     A
N255   C270    1.366   .     A
N256   C272    1.374   .     A
N256   C269    1.366   .     A
C258   C161    1.359   1_655 S
C258   N180    1.440   1_655 S
C259   C268    1.396   .     A
C259   H261    1.083   .     S
C260   C267    1.396   .     A
C260   H262    1.083   .     S
C260   C408    1.370   .     S
C263   C267    1.397   .     A
C263   H265    1.081   .     S
C263   C403    1.370   .     S
C264   C268    1.397   .     A
C264   H266    1.081   .     S
C269   C279    1.441   .     S
C269   C1135   1.424   1_554 S
C270   C281    1.441   .     S
C270   C704    1.424   .     S
C271   N283    1.429   .     S
C271   C701    1.424   .     S
C272   N286    1.429   .     S
C272   C1134   1.424   1_554 S
N273   O275    1.302   .     A
N273   O274    1.301   .     A
N273   C161    1.440   1_655 S
N276   O278    1.302   .     A
N276   O277    1.301   .     A
C279   N280    1.157   .     T
C281   N282    1.157   .     T
N283   O285    1.301   .     A
N283   O284    1.298   .     A
N286   O288    1.301   .     A
N286   O287    1.298   .     A
O289   C293    1.288   .     A
O289   Zn301   2.002   .     S
O290   C294    1.288   .     A
O290   Zn302   2.002   .     S
O291   Zn302   1.999   .     S
O291   C293    1.289   .     A
O292   C294    1.289   .     A
O292   Zn301   1.999   .     S
C293   C316    1.421   .     S
C294   C315    1.421   .     S
O295   C299    1.278   .     A
O295   Zn301   1.985   .     S
O296   C300    1.278   .     A
O296   Zn302   1.985   .     S
O297   Zn302   2.003   .     S
O297   C299    1.292   .     A
O298   C300    1.292   .     A
O298   Zn301   2.003   .     S
C299   C305    1.412   .     S
C300   C306    1.412   .     S
Zn301  N303    2.022   .     S
Zn302  N304    2.022   .     S
N303   C319    1.374   .     A
N303   C318    1.366   .     A
N304   C320    1.374   .     A
N304   C317    1.366   .     A
C305   C402    1.359   1_455 S
C305   N417    1.440   1_455 S
C306   C353    1.359   .     S
C306   N372    1.440   .     S
C307   C316    1.396   .     A
C307   H309    1.083   .     S
C308   C315    1.396   .     A
C308   H310    1.083   .     S
C308   C24     1.370   1_565 S
C311   C315    1.397   .     A
C311   H313    1.081   .     S
C311   C19     1.370   1_565 S
C312   C316    1.397   .     A
C312   H314    1.081   .     S
C317   C327    1.441   .     S
C317   C1183   1.424   1_554 S
C318   C329    1.441   .     S
C318   C752    1.424   .     S
C319   N331    1.429   .     S
C319   C749    1.424   .     S
C320   N334    1.429   .     S
C320   C1182   1.424   1_554 S
N321   O323    1.302   .     A
N321   O322    1.301   .     A
N321   C353    1.440   .     S
N324   O326    1.302   .     A
N324   O325    1.301   .     A
N324   C402    1.440   1_455 S
C327   N328    1.157   .     T
C329   N330    1.157   .     T
N331   O333    1.301   .     A
N331   O332    1.298   .     A
N334   O336    1.301   .     A
N334   O335    1.298   .     A
O337   C341    1.288   .     A
O337   Zn349   2.002   .     S
O338   C342    1.288   .     A
O338   Zn350   2.002   .     S
O339   Zn350   1.999   .     S
O339   C341    1.289   .     A
O340   C342    1.289   .     A
O340   Zn349   1.999   .     S
C341   C364    1.421   .     S
C342   C363    1.421   .     S
O343   C347    1.278   .     A
O343   Zn349   1.985   .     S
O344   C348    1.278   .     A
O344   Zn350   1.985   .     S
O345   Zn350   2.003   .     S
O345   C347    1.292   .     A
O346   C348    1.292   .     A
O346   Zn349   2.003   .     S
C347   C353    1.412   .     S
C348   C354    1.412   .     S
Zn349  N351    2.022   .     S
Zn350  N352    2.022   .     S
N351   C367    1.374   .     A
N351   C366    1.366   .     A
N352   C368    1.374   .     A
N352   C365    1.366   .     A
C354   C401    1.359   .     S
C354   N420    1.440   .     S
C355   C364    1.396   .     A
C355   H357    1.083   .     S
C356   C363    1.396   .     A
C356   H358    1.083   .     S
C356   C72     1.370   1_565 S
C359   C363    1.397   .     A
C359   H361    1.081   .     S
C359   C67     1.370   1_565 S
C360   C364    1.397   .     A
C360   H362    1.081   .     S
C365   C375    1.441   .     S
C365   C1231   1.424   1_554 S
C366   C377    1.441   .     S
C366   C800    1.424   .     S
C367   N379    1.429   .     S
C367   C797    1.424   .     S
C368   N382    1.429   .     S
C368   C1230   1.424   1_554 S
N369   O371    1.302   .     A
N369   O370    1.301   .     A
N369   C401    1.440   .     S
N372   O374    1.302   .     A
N372   O373    1.301   .     A
C375   N376    1.157   .     T
C377   N378    1.157   .     T
N379   O381    1.301   .     A
N379   O380    1.298   .     A
N382   O384    1.301   .     A
N382   O383    1.298   .     A
O385   C389    1.288   .     A
O385   Zn397   2.002   .     S
O386   C390    1.288   .     A
O386   Zn398   2.002   .     S
O387   Zn398   1.999   .     S
O387   C389    1.289   .     A
O388   C390    1.289   .     A
O388   Zn397   1.999   .     S
C389   C412    1.421   .     S
C390   C411    1.421   .     S
O391   C395    1.278   .     A
O391   Zn397   1.985   .     S
O392   C396    1.278   .     A
O392   Zn398   1.985   .     S
O393   Zn398   2.003   .     S
O393   C395    1.292   .     A
O394   C396    1.292   .     A
O394   Zn397   2.003   .     S
C395   C401    1.412   .     S
C396   C402    1.412   .     S
Zn397  N399    2.022   .     S
Zn398  N400    2.022   .     S
N399   C415    1.374   .     A
N399   C414    1.366   .     A
N400   C416    1.374   .     A
N400   C413    1.366   .     A
C402   C305    1.359   1_655 S
C402   N324    1.440   1_655 S
C403   C412    1.396   .     A
C403   H405    1.083   .     S
C404   C411    1.396   .     A
C404   H406    1.083   .     S
C404   C120    1.370   1_565 S
C407   C411    1.397   .     A
C407   H409    1.081   .     S
C407   C115    1.370   1_565 S
C408   C412    1.397   .     A
C408   H410    1.081   .     S
C413   C423    1.441   .     S
C413   C1279   1.424   1_554 S
C414   C425    1.441   .     S
C414   C848    1.424   .     S
C415   N427    1.429   .     S
C415   C845    1.424   .     S
C416   N430    1.429   .     S
C416   C1278   1.424   1_554 S
N417   O419    1.302   .     A
N417   O418    1.301   .     A
N417   C305    1.440   1_655 S
N420   O422    1.302   .     A
N420   O421    1.301   .     A
C423   N424    1.157   .     T
C425   N426    1.157   .     T
N427   O429    1.301   .     A
N427   O428    1.298   .     A
N430   O432    1.301   .     A
N430   O431    1.298   .     A
O433   C437    1.288   .     A
O433   Zn445   2.002   .     S
O434   C438    1.288   .     A
O434   Zn446   2.002   .     S
O435   Zn446   1.999   .     S
O435   C437    1.289   .     A
O436   C438    1.289   .     A
O436   Zn445   1.999   .     S
C437   C460    1.421   .     S
C438   C459    1.421   .     S
O439   C443    1.278   .     A
O439   Zn445   1.985   .     S
O440   C444    1.278   .     A
O440   Zn446   1.985   .     S
O441   Zn446   2.003   .     S
O441   C443    1.292   .     A
O442   C444    1.292   .     A
O442   Zn445   2.003   .     S
C443   C449    1.412   .     S
C444   C450    1.412   .     S
Zn445  N447    2.022   .     S
Zn446  N448    2.022   .     S
N447   C463    1.374   .     A
N447   C462    1.366   .     A
N448   C464    1.374   .     A
N448   C461    1.366   .     A
C449   C546    1.359   1_455 S
C449   N561    1.440   1_455 S
C450   C497    1.359   .     S
C450   N516    1.440   .     S
C451   C460    1.396   .     A
C451   H453    1.083   .     S
C451   C743    1.370   1_545 S
C452   C459    1.396   .     A
C452   H454    1.083   .     S
C452   C600    1.370   .     S
C455   C459    1.397   .     A
C455   H457    1.081   .     S
C455   C595    1.370   .     S
C456   C460    1.397   .     A
C456   H458    1.081   .     S
C456   C740    1.370   1_545 S
C461   C471    1.441   .     S
C462   C473    1.441   .     S
C462   C896    1.424   .     S
C463   N475    1.429   .     S
C463   C893    1.424   .     S
C464   N478    1.429   .     S
N465   O467    1.302   .     A
N465   O466    1.301   .     A
N465   C497    1.440   .     S
N468   O470    1.302   .     A
N468   O469    1.301   .     A
N468   C546    1.440   1_455 S
C471   N472    1.157   .     T
C473   N474    1.157   .     T
N475   O477    1.301   .     A
N475   O476    1.298   .     A
N478   O480    1.301   .     A
N478   O479    1.298   .     A
O481   C485    1.288   .     A
O481   Zn493   2.002   .     S
O482   C486    1.288   .     A
O482   Zn494   2.002   .     S
O483   Zn494   1.999   .     S
O483   C485    1.289   .     A
O484   C486    1.289   .     A
O484   Zn493   1.999   .     S
C485   C508    1.421   .     S
C486   C507    1.421   .     S
O487   C491    1.278   .     A
O487   Zn493   1.985   .     S
O488   C492    1.278   .     A
O488   Zn494   1.985   .     S
O489   Zn494   2.003   .     S
O489   C491    1.292   .     A
O490   C492    1.292   .     A
O490   Zn493   2.003   .     S
C491   C497    1.412   .     S
C492   C498    1.412   .     S
Zn493  N495    2.022   .     S
Zn494  N496    2.022   .     S
N495   C511    1.374   .     A
N495   C510    1.366   .     A
N496   C512    1.374   .     A
N496   C509    1.366   .     A
C498   C545    1.359   .     S
C498   N564    1.440   .     S
C499   C508    1.396   .     A
C499   H501    1.083   .     S
C499   C791    1.370   1_545 S
C500   C507    1.396   .     A
C500   H502    1.083   .     S
C500   C648    1.370   .     S
C503   C507    1.397   .     A
C503   H505    1.081   .     S
C503   C643    1.370   .     S
C504   C508    1.397   .     A
C504   H506    1.081   .     S
C504   C788    1.370   1_545 S
C509   C519    1.441   .     S
C510   C521    1.441   .     S
C510   C944    1.424   .     S
C511   N523    1.429   .     S
C511   C941    1.424   .     S
C512   N526    1.429   .     S
N513   O515    1.302   .     A
N513   O514    1.301   .     A
N513   C545    1.440   .     S
N516   O518    1.302   .     A
N516   O517    1.301   .     A
C519   N520    1.157   .     T
C521   N522    1.157   .     T
N523   O525    1.301   .     A
N523   O524    1.298   .     A
N526   O528    1.301   .     A
N526   O527    1.298   .     A
O529   C533    1.288   .     A
O529   Zn541   2.002   .     S
O530   C534    1.288   .     A
O530   Zn542   2.002   .     S
O531   Zn542   1.999   .     S
O531   C533    1.289   .     A
O532   C534    1.289   .     A
O532   Zn541   1.999   .     S
C533   C556    1.421   .     S
C534   C555    1.421   .     S
O535   C539    1.278   .     A
O535   Zn541   1.985   .     S
O536   C540    1.278   .     A
O536   Zn542   1.985   .     S
O537   Zn542   2.003   .     S
O537   C539    1.292   .     A
O538   C540    1.292   .     A
O538   Zn541   2.003   .     S
C539   C545    1.412   .     S
C540   C546    1.412   .     S
Zn541  N543    2.022   .     S
Zn542  N544    2.022   .     S
N543   C559    1.374   .     A
N543   C558    1.366   .     A
N544   C560    1.374   .     A
N544   C557    1.366   .     A
C546   C449    1.359   1_655 S
C546   N468    1.440   1_655 S
C547   C556    1.396   .     A
C547   H549    1.083   .     S
C547   C839    1.370   1_545 S
C548   C555    1.396   .     A
C548   H550    1.083   .     S
C548   C696    1.370   .     S
C551   C555    1.397   .     A
C551   H553    1.081   .     S
C551   C691    1.370   .     S
C552   C556    1.397   .     A
C552   H554    1.081   .     S
C552   C836    1.370   1_545 S
C557   C567    1.441   .     S
C558   C569    1.441   .     S
C558   C992    1.424   .     S
C559   N571    1.429   .     S
C559   C989    1.424   .     S
C560   N574    1.429   .     S
N561   O563    1.302   .     A
N561   O562    1.301   .     A
N561   C449    1.440   1_655 S
N564   O566    1.302   .     A
N564   O565    1.301   .     A
C567   N568    1.157   .     T
C569   N570    1.157   .     T
N571   O573    1.301   .     A
N571   O572    1.298   .     A
N574   O576    1.301   .     A
N574   O575    1.298   .     A
O577   C581    1.288   .     A
O577   Zn589   2.002   .     S
O578   C582    1.288   .     A
O578   Zn590   2.002   .     S
O579   Zn590   1.999   .     S
O579   C581    1.289   .     A
O580   C582    1.289   .     A
O580   Zn589   1.999   .     S
C581   C604    1.421   .     S
C582   C603    1.421   .     S
O583   C587    1.278   .     A
O583   Zn589   1.985   .     S
O584   C588    1.278   .     A
O584   Zn590   1.985   .     S
O585   Zn590   2.003   .     S
O585   C587    1.292   .     A
O586   C588    1.292   .     A
O586   Zn589   2.003   .     S
C587   C593    1.412   .     S
C588   C594    1.412   .     S
Zn589  N591    2.022   .     S
Zn590  N592    2.022   .     S
N591   C607    1.374   .     A
N591   C606    1.366   .     A
N592   C608    1.374   .     A
N592   C605    1.366   .     A
C593   C690    1.359   1_455 S
C593   N705    1.440   1_455 S
C594   C641    1.359   .     S
C594   N660    1.440   .     S
C595   C604    1.396   .     A
C595   H597    1.083   .     S
C596   C603    1.396   .     A
C596   H598    1.083   .     S
C596   C744    1.370   .     S
C599   C603    1.397   .     A
C599   H601    1.081   .     S
C599   C739    1.370   .     S
C600   C604    1.397   .     A
C600   H602    1.081   .     S
C605   C615    1.441   .     S
C606   C617    1.441   .     S
C606   C1040   1.424   .     S
C607   N619    1.429   .     S
C607   C1037   1.424   .     S
C608   N622    1.429   .     S
N609   O611    1.302   .     A
N609   O610    1.301   .     A
N609   C641    1.440   .     S
N612   O614    1.302   .     A
N612   O613    1.301   .     A
N612   C690    1.440   1_455 S
C615   N616    1.157   .     T
C617   N618    1.157   .     T
N619   O621    1.301   .     A
N619   O620    1.298   .     A
N622   O624    1.301   .     A
N622   O623    1.298   .     A
O625   C629    1.288   .     A
O625   Zn637   2.002   .     S
O626   C630    1.288   .     A
O626   Zn638   2.002   .     S
O627   Zn638   1.999   .     S
O627   C629    1.289   .     A
O628   C630    1.289   .     A
O628   Zn637   1.999   .     S
C629   C652    1.421   .     S
C630   C651    1.421   .     S
O631   C635    1.278   .     A
O631   Zn637   1.985   .     S
O632   C636    1.278   .     A
O632   Zn638   1.985   .     S
O633   Zn638   2.003   .     S
O633   C635    1.292   .     A
O634   C636    1.292   .     A
O634   Zn637   2.003   .     S
C635   C641    1.412   .     S
C636   C642    1.412   .     S
Zn637  N639    2.022   .     S
Zn638  N640    2.022   .     S
N639   C655    1.374   .     A
N639   C654    1.366   .     A
N640   C656    1.374   .     A
N640   C653    1.366   .     A
C642   C689    1.359   .     S
C642   N708    1.440   .     S
C643   C652    1.396   .     A
C643   H645    1.083   .     S
C644   C651    1.396   .     A
C644   H646    1.083   .     S
C644   C792    1.370   .     S
C647   C651    1.397   .     A
C647   H649    1.081   .     S
C647   C787    1.370   .     S
C648   C652    1.397   .     A
C648   H650    1.081   .     S
C653   C663    1.441   .     S
C654   C665    1.441   .     S
C654   C1088   1.424   .     S
C655   N667    1.429   .     S
C655   C1085   1.424   .     S
C656   N670    1.429   .     S
N657   O659    1.302   .     A
N657   O658    1.301   .     A
N657   C689    1.440   .     S
N660   O662    1.302   .     A
N660   O661    1.301   .     A
C663   N664    1.157   .     T
C665   N666    1.157   .     T
N667   O669    1.301   .     A
N667   O668    1.298   .     A
N670   O672    1.301   .     A
N670   O671    1.298   .     A
O673   C677    1.288   .     A
O673   Zn685   2.002   .     S
O674   C678    1.288   .     A
O674   Zn686   2.002   .     S
O675   Zn686   1.999   .     S
O675   C677    1.289   .     A
O676   C678    1.289   .     A
O676   Zn685   1.999   .     S
C677   C700    1.421   .     S
C678   C699    1.421   .     S
O679   C683    1.278   .     A
O679   Zn685   1.985   .     S
O680   C684    1.278   .     A
O680   Zn686   1.985   .     S
O681   Zn686   2.003   .     S
O681   C683    1.292   .     A
O682   C684    1.292   .     A
O682   Zn685   2.003   .     S
C683   C689    1.412   .     S
C684   C690    1.412   .     S
Zn685  N687    2.022   .     S
Zn686  N688    2.022   .     S
N687   C703    1.374   .     A
N687   C702    1.366   .     A
N688   C704    1.374   .     A
N688   C701    1.366   .     A
C690   C593    1.359   1_655 S
C690   N612    1.440   1_655 S
C691   C700    1.396   .     A
C691   H693    1.083   .     S
C692   C699    1.396   .     A
C692   H694    1.083   .     S
C692   C840    1.370   .     S
C695   C699    1.397   .     A
C695   H697    1.081   .     S
C695   C835    1.370   .     S
C696   C700    1.397   .     A
C696   H698    1.081   .     S
C701   C711    1.441   .     S
C702   C713    1.441   .     S
C702   C1136   1.424   .     S
C703   N715    1.429   .     S
C703   C1133   1.424   .     S
C704   N718    1.429   .     S
N705   O707    1.302   .     A
N705   O706    1.301   .     A
N705   C593    1.440   1_655 S
N708   O710    1.302   .     A
N708   O709    1.301   .     A
C711   N712    1.157   .     T
C713   N714    1.157   .     T
N715   O717    1.301   .     A
N715   O716    1.298   .     A
N718   O720    1.301   .     A
N718   O719    1.298   .     A
O721   C725    1.288   .     A
O721   Zn733   2.002   .     S
O722   C726    1.288   .     A
O722   Zn734   2.002   .     S
O723   Zn734   1.999   .     S
O723   C725    1.289   .     A
O724   C726    1.289   .     A
O724   Zn733   1.999   .     S
C725   C748    1.421   .     S
C726   C747    1.421   .     S
O727   C731    1.278   .     A
O727   Zn733   1.985   .     S
O728   C732    1.278   .     A
O728   Zn734   1.985   .     S
O729   Zn734   2.003   .     S
O729   C731    1.292   .     A
O730   C732    1.292   .     A
O730   Zn733   2.003   .     S
C731   C737    1.412   .     S
C732   C738    1.412   .     S
Zn733  N735    2.022   .     S
Zn734  N736    2.022   .     S
N735   C751    1.374   .     A
N735   C750    1.366   .     A
N736   C752    1.374   .     A
N736   C749    1.366   .     A
C737   C834    1.359   1_455 S
C737   N849    1.440   1_455 S
C738   C785    1.359   .     S
C738   N804    1.440   .     S
C739   C748    1.396   .     A
C739   H741    1.083   .     S
C740   C747    1.396   .     A
C740   H742    1.083   .     S
C740   C456    1.370   1_565 S
C743   C747    1.397   .     A
C743   H745    1.081   .     S
C743   C451    1.370   1_565 S
C744   C748    1.397   .     A
C744   H746    1.081   .     S
C749   C759    1.441   .     S
C750   C761    1.441   .     S
C750   C1184   1.424   .     S
C751   N763    1.429   .     S
C751   C1181   1.424   .     S
C752   N766    1.429   .     S
N753   O755    1.302   .     A
N753   O754    1.301   .     A
N753   C785    1.440   .     S
N756   O758    1.302   .     A
N756   O757    1.301   .     A
N756   C834    1.440   1_455 S
C759   N760    1.157   .     T
C761   N762    1.157   .     T
N763   O765    1.301   .     A
N763   O764    1.298   .     A
N766   O768    1.301   .     A
N766   O767    1.298   .     A
O769   C773    1.288   .     A
O769   Zn781   2.002   .     S
O770   C774    1.288   .     A
O770   Zn782   2.002   .     S
O771   Zn782   1.999   .     S
O771   C773    1.289   .     A
O772   C774    1.289   .     A
O772   Zn781   1.999   .     S
C773   C796    1.421   .     S
C774   C795    1.421   .     S
O775   C779    1.278   .     A
O775   Zn781   1.985   .     S
O776   C780    1.278   .     A
O776   Zn782   1.985   .     S
O777   Zn782   2.003   .     S
O777   C779    1.292   .     A
O778   C780    1.292   .     A
O778   Zn781   2.003   .     S
C779   C785    1.412   .     S
C780   C786    1.412   .     S
Zn781  N783    2.022   .     S
Zn782  N784    2.022   .     S
N783   C799    1.374   .     A
N783   C798    1.366   .     A
N784   C800    1.374   .     A
N784   C797    1.366   .     A
C786   C833    1.359   .     S
C786   N852    1.440   .     S
C787   C796    1.396   .     A
C787   H789    1.083   .     S
C788   C795    1.396   .     A
C788   H790    1.083   .     S
C788   C504    1.370   1_565 S
C791   C795    1.397   .     A
C791   H793    1.081   .     S
C791   C499    1.370   1_565 S
C792   C796    1.397   .     A
C792   H794    1.081   .     S
C797   C807    1.441   .     S
C798   C809    1.441   .     S
C798   C1232   1.424   .     S
C799   N811    1.429   .     S
C799   C1229   1.424   .     S
C800   N814    1.429   .     S
N801   O803    1.302   .     A
N801   O802    1.301   .     A
N801   C833    1.440   .     S
N804   O806    1.302   .     A
N804   O805    1.301   .     A
C807   N808    1.157   .     T
C809   N810    1.157   .     T
N811   O813    1.301   .     A
N811   O812    1.298   .     A
N814   O816    1.301   .     A
N814   O815    1.298   .     A
O817   C821    1.288   .     A
O817   Zn829   2.002   .     S
O818   C822    1.288   .     A
O818   Zn830   2.002   .     S
O819   Zn830   1.999   .     S
O819   C821    1.289   .     A
O820   C822    1.289   .     A
O820   Zn829   1.999   .     S
C821   C844    1.421   .     S
C822   C843    1.421   .     S
O823   C827    1.278   .     A
O823   Zn829   1.985   .     S
O824   C828    1.278   .     A
O824   Zn830   1.985   .     S
O825   Zn830   2.003   .     S
O825   C827    1.292   .     A
O826   C828    1.292   .     A
O826   Zn829   2.003   .     S
C827   C833    1.412   .     S
C828   C834    1.412   .     S
Zn829  N831    2.022   .     S
Zn830  N832    2.022   .     S
N831   C847    1.374   .     A
N831   C846    1.366   .     A
N832   C848    1.374   .     A
N832   C845    1.366   .     A
C834   C737    1.359   1_655 S
C834   N756    1.440   1_655 S
C835   C844    1.396   .     A
C835   H837    1.083   .     S
C836   C843    1.396   .     A
C836   H838    1.083   .     S
C836   C552    1.370   1_565 S
C839   C843    1.397   .     A
C839   H841    1.081   .     S
C839   C547    1.370   1_565 S
C840   C844    1.397   .     A
C840   H842    1.081   .     S
C845   C855    1.441   .     S
C846   C857    1.441   .     S
C846   C1280   1.424   .     S
C847   N859    1.429   .     S
C847   C1277   1.424   .     S
C848   N862    1.429   .     S
N849   O851    1.302   .     A
N849   O850    1.301   .     A
N849   C737    1.440   1_655 S
N852   O854    1.302   .     A
N852   O853    1.301   .     A
C855   N856    1.157   .     T
C857   N858    1.157   .     T
N859   O861    1.301   .     A
N859   O860    1.298   .     A
N862   O864    1.301   .     A
N862   O863    1.298   .     A
O865   C869    1.288   .     A
O865   Zn877   2.002   .     S
O866   C870    1.288   .     A
O866   Zn878   2.002   .     S
O867   Zn878   1.999   .     S
O867   C869    1.289   .     A
O868   C870    1.289   .     A
O868   Zn877   1.999   .     S
C869   C892    1.421   .     S
C870   C891    1.421   .     S
O871   C875    1.278   .     A
O871   Zn877   1.985   .     S
O872   C876    1.278   .     A
O872   Zn878   1.985   .     S
O873   Zn878   2.003   .     S
O873   C875    1.292   .     A
O874   C876    1.292   .     A
O874   Zn877   2.003   .     S
C875   C881    1.412   .     S
C876   C882    1.412   .     S
Zn877  N879    2.022   .     S
Zn878  N880    2.022   .     S
N879   C895    1.374   .     A
N879   C894    1.366   .     A
N880   C896    1.374   .     A
N880   C893    1.366   .     A
C881   C978    1.359   1_455 S
C881   N993    1.440   1_455 S
C882   C929    1.359   .     S
C882   N948    1.440   .     S
C883   C892    1.396   .     A
C883   H885    1.083   .     S
C883   C1175   1.370   1_545 S
C884   C891    1.396   .     A
C884   H886    1.083   .     S
C884   C1032   1.370   .     S
C887   C891    1.397   .     A
C887   H889    1.081   .     S
C887   C1027   1.370   .     S
C888   C892    1.397   .     A
C888   H890    1.081   .     S
C888   C1172   1.370   1_545 S
C893   C903    1.441   .     S
C894   C905    1.441   .     S
C894   C32     1.424   1_556 S
C895   N907    1.429   .     S
C895   C29     1.424   1_556 S
C896   N910    1.429   .     S
N897   O899    1.302   .     A
N897   O898    1.301   .     A
N897   C929    1.440   .     S
N900   O902    1.302   .     A
N900   O901    1.301   .     A
N900   C978    1.440   1_455 S
C903   N904    1.157   .     T
C905   N906    1.157   .     T
N907   O909    1.301   .     A
N907   O908    1.298   .     A
N910   O912    1.301   .     A
N910   O911    1.298   .     A
O913   C917    1.288   .     A
O913   Zn925   2.002   .     S
O914   C918    1.288   .     A
O914   Zn926   2.002   .     S
O915   Zn926   1.999   .     S
O915   C917    1.289   .     A
O916   C918    1.289   .     A
O916   Zn925   1.999   .     S
C917   C940    1.421   .     S
C918   C939    1.421   .     S
O919   C923    1.278   .     A
O919   Zn925   1.985   .     S
O920   C924    1.278   .     A
O920   Zn926   1.985   .     S
O921   Zn926   2.003   .     S
O921   C923    1.292   .     A
O922   C924    1.292   .     A
O922   Zn925   2.003   .     S
C923   C929    1.412   .     S
C924   C930    1.412   .     S
Zn925  N927    2.022   .     S
Zn926  N928    2.022   .     S
N927   C943    1.374   .     A
N927   C942    1.366   .     A
N928   C944    1.374   .     A
N928   C941    1.366   .     A
C930   C977    1.359   .     S
C930   N996    1.440   .     S
C931   C940    1.396   .     A
C931   H933    1.083   .     S
C931   C1223   1.370   1_545 S
C932   C939    1.396   .     A
C932   H934    1.083   .     S
C932   C1080   1.370   .     S
C935   C939    1.397   .     A
C935   H937    1.081   .     S
C935   C1075   1.370   .     S
C936   C940    1.397   .     A
C936   H938    1.081   .     S
C936   C1220   1.370   1_545 S
C941   C951    1.441   .     S
C942   C953    1.441   .     S
C942   C80     1.424   1_556 S
C943   N955    1.429   .     S
C943   C77     1.424   1_556 S
C944   N958    1.429   .     S
N945   O947    1.302   .     A
N945   O946    1.301   .     A
N945   C977    1.440   .     S
N948   O950    1.302   .     A
N948   O949    1.301   .     A
C951   N952    1.157   .     T
C953   N954    1.157   .     T
N955   O957    1.301   .     A
N955   O956    1.298   .     A
N958   O960    1.301   .     A
N958   O959    1.298   .     A
O961   C965    1.288   .     A
O961   Zn973   2.002   .     S
O962   C966    1.288   .     A
O962   Zn974   2.002   .     S
O963   Zn974   1.999   .     S
O963   C965    1.289   .     A
O964   C966    1.289   .     A
O964   Zn973   1.999   .     S
C965   C988    1.421   .     S
C966   C987    1.421   .     S
O967   C971    1.278   .     A
O967   Zn973   1.985   .     S
O968   C972    1.278   .     A
O968   Zn974   1.985   .     S
O969   Zn974   2.003   .     S
O969   C971    1.292   .     A
O970   C972    1.292   .     A
O970   Zn973   2.003   .     S
C971   C977    1.412   .     S
C972   C978    1.412   .     S
Zn973  N975    2.022   .     S
Zn974  N976    2.022   .     S
N975   C991    1.374   .     A
N975   C990    1.366   .     A
N976   C992    1.374   .     A
N976   C989    1.366   .     A
C978   C881    1.359   1_655 S
C978   N900    1.440   1_655 S
C979   C988    1.396   .     A
C979   H981    1.083   .     S
C979   C1271   1.370   1_545 S
C980   C987    1.396   .     A
C980   H982    1.083   .     S
C980   C1128   1.370   .     S
C983   C987    1.397   .     A
C983   H985    1.081   .     S
C983   C1123   1.370   .     S
C984   C988    1.397   .     A
C984   H986    1.081   .     S
C984   C1268   1.370   1_545 S
C989   C999    1.441   .     S
C990   C1001   1.441   .     S
C990   C128    1.424   1_556 S
C991   N1003   1.429   .     S
C991   C125    1.424   1_556 S
C992   N1006   1.429   .     S
N993   O995    1.302   .     A
N993   O994    1.301   .     A
N993   C881    1.440   1_655 S
N996   O998    1.302   .     A
N996   O997    1.301   .     A
C999   N1000   1.157   .     T
C1001  N1002   1.157   .     T
N1003  O1005   1.301   .     A
N1003  O1004   1.298   .     A
N1006  O1008   1.301   .     A
N1006  O1007   1.298   .     A
O1009  C1013   1.288   .     A
O1009  Zn1021  2.002   .     S
O1010  C1014   1.288   .     A
O1010  Zn1022  2.002   .     S
O1011  Zn1022  1.999   .     S
O1011  C1013   1.289   .     A
O1012  C1014   1.289   .     A
O1012  Zn1021  1.999   .     S
C1013  C1036   1.421   .     S
C1014  C1035   1.421   .     S
O1015  C1019   1.278   .     A
O1015  Zn1021  1.985   .     S
O1016  C1020   1.278   .     A
O1016  Zn1022  1.985   .     S
O1017  Zn1022  2.003   .     S
O1017  C1019   1.292   .     A
O1018  C1020   1.292   .     A
O1018  Zn1021  2.003   .     S
C1019  C1025   1.412   .     S
C1020  C1026   1.412   .     S
Zn1021 N1023   2.022   .     S
Zn1022 N1024   2.022   .     S
N1023  C1039   1.374   .     A
N1023  C1038   1.366   .     A
N1024  C1040   1.374   .     A
N1024  C1037   1.366   .     A
C1025  C1122   1.359   1_455 S
C1025  N1137   1.440   1_455 S
C1026  C1073   1.359   .     S
C1026  N1092   1.440   .     S
C1027  C1036   1.396   .     A
C1027  H1029   1.083   .     S
C1028  C1035   1.396   .     A
C1028  H1030   1.083   .     S
C1028  C1176   1.370   .     S
C1031  C1035   1.397   .     A
C1031  H1033   1.081   .     S
C1031  C1171   1.370   .     S
C1032  C1036   1.397   .     A
C1032  H1034   1.081   .     S
C1037  C1047   1.441   .     S
C1038  C1049   1.441   .     S
C1038  C176    1.424   1_556 S
C1039  N1051   1.429   .     S
C1039  C173    1.424   1_556 S
C1040  N1054   1.429   .     S
N1041  O1043   1.302   .     A
N1041  O1042   1.301   .     A
N1041  C1073   1.440   .     S
N1044  O1046   1.302   .     A
N1044  O1045   1.301   .     A
N1044  C1122   1.440   1_455 S
C1047  N1048   1.157   .     T
C1049  N1050   1.157   .     T
N1051  O1053   1.301   .     A
N1051  O1052   1.298   .     A
N1054  O1056   1.301   .     A
N1054  O1055   1.298   .     A
O1057  C1061   1.288   .     A
O1057  Zn1069  2.002   .     S
O1058  C1062   1.288   .     A
O1058  Zn1070  2.002   .     S
O1059  Zn1070  1.999   .     S
O1059  C1061   1.289   .     A
O1060  C1062   1.289   .     A
O1060  Zn1069  1.999   .     S
C1061  C1084   1.421   .     S
C1062  C1083   1.421   .     S
O1063  C1067   1.278   .     A
O1063  Zn1069  1.985   .     S
O1064  C1068   1.278   .     A
O1064  Zn1070  1.985   .     S
O1065  Zn1070  2.003   .     S
O1065  C1067   1.292   .     A
O1066  C1068   1.292   .     A
O1066  Zn1069  2.003   .     S
C1067  C1073   1.412   .     S
C1068  C1074   1.412   .     S
Zn1069 N1071   2.022   .     S
Zn1070 N1072   2.022   .     S
N1071  C1087   1.374   .     A
N1071  C1086   1.366   .     A
N1072  C1088   1.374   .     A
N1072  C1085   1.366   .     A
C1074  C1121   1.359   .     S
C1074  N1140   1.440   .     S
C1075  C1084   1.396   .     A
C1075  H1077   1.083   .     S
C1076  C1083   1.396   .     A
C1076  H1078   1.083   .     S
C1076  C1224   1.370   .     S
C1079  C1083   1.397   .     A
C1079  H1081   1.081   .     S
C1079  C1219   1.370   .     S
C1080  C1084   1.397   .     A
C1080  H1082   1.081   .     S
C1085  C1095   1.441   .     S
C1086  C1097   1.441   .     S
C1086  C224    1.424   1_556 S
C1087  N1099   1.429   .     S
C1087  C221    1.424   1_556 S
C1088  N1102   1.429   .     S
N1089  O1091   1.302   .     A
N1089  O1090   1.301   .     A
N1089  C1121   1.440   .     S
N1092  O1094   1.302   .     A
N1092  O1093   1.301   .     A
C1095  N1096   1.157   .     T
C1097  N1098   1.157   .     T
N1099  O1101   1.301   .     A
N1099  O1100   1.298   .     A
N1102  O1104   1.301   .     A
N1102  O1103   1.298   .     A
O1105  C1109   1.288   .     A
O1105  Zn1117  2.002   .     S
O1106  C1110   1.288   .     A
O1106  Zn1118  2.002   .     S
O1107  Zn1118  1.999   .     S
O1107  C1109   1.289   .     A
O1108  C1110   1.289   .     A
O1108  Zn1117  1.999   .     S
C1109  C1132   1.421   .     S
C1110  C1131   1.421   .     S
O1111  C1115   1.278   .     A
O1111  Zn1117  1.985   .     S
O1112  C1116   1.278   .     A
O1112  Zn1118  1.985   .     S
O1113  Zn1118  2.003   .     S
O1113  C1115   1.292   .     A
O1114  C1116   1.292   .     A
O1114  Zn1117  2.003   .     S
C1115  C1121   1.412   .     S
C1116  C1122   1.412   .     S
Zn1117 N1119   2.022   .     S
Zn1118 N1120   2.022   .     S
N1119  C1135   1.374   .     A
N1119  C1134   1.366   .     A
N1120  C1136   1.374   .     A
N1120  C1133   1.366   .     A
C1122  C1025   1.359   1_655 S
C1122  N1044   1.440   1_655 S
C1123  C1132   1.396   .     A
C1123  H1125   1.083   .     S
C1124  C1131   1.396   .     A
C1124  H1126   1.083   .     S
C1124  C1272   1.370   .     S
C1127  C1131   1.397   .     A
C1127  H1129   1.081   .     S
C1127  C1267   1.370   .     S
C1128  C1132   1.397   .     A
C1128  H1130   1.081   .     S
C1133  C1143   1.441   .     S
C1134  C1145   1.441   .     S
C1134  C272    1.424   1_556 S
C1135  N1147   1.429   .     S
C1135  C269    1.424   1_556 S
C1136  N1150   1.429   .     S
N1137  O1139   1.302   .     A
N1137  O1138   1.301   .     A
N1137  C1025   1.440   1_655 S
N1140  O1142   1.302   .     A
N1140  O1141   1.301   .     A
C1143  N1144   1.157   .     T
C1145  N1146   1.157   .     T
N1147  O1149   1.301   .     A
N1147  O1148   1.298   .     A
N1150  O1152   1.301   .     A
N1150  O1151   1.298   .     A
O1153  C1157   1.288   .     A
O1153  Zn1165  2.002   .     S
O1154  C1158   1.288   .     A
O1154  Zn1166  2.002   .     S
O1155  Zn1166  1.999   .     S
O1155  C1157   1.289   .     A
O1156  C1158   1.289   .     A
O1156  Zn1165  1.999   .     S
C1157  C1180   1.421   .     S
C1158  C1179   1.421   .     S
O1159  C1163   1.278   .     A
O1159  Zn1165  1.985   .     S
O1160  C1164   1.278   .     A
O1160  Zn1166  1.985   .     S
O1161  Zn1166  2.003   .     S
O1161  C1163   1.292   .     A
O1162  C1164   1.292   .     A
O1162  Zn1165  2.003   .     S
C1163  C1169   1.412   .     S
C1164  C1170   1.412   .     S
Zn1165 N1167   2.022   .     S
Zn1166 N1168   2.022   .     S
N1167  C1183   1.374   .     A
N1167  C1182   1.366   .     A
N1168  C1184   1.374   .     A
N1168  C1181   1.366   .     A
C1169  C1266   1.359   1_455 S
C1169  N1281   1.440   1_455 S
C1170  C1217   1.359   .     S
C1170  N1236   1.440   .     S
C1171  C1180   1.396   .     A
C1171  H1173   1.083   .     S
C1172  C1179   1.396   .     A
C1172  H1174   1.083   .     S
C1172  C888    1.370   1_565 S
C1175  C1179   1.397   .     A
C1175  H1177   1.081   .     S
C1175  C883    1.370   1_565 S
C1176  C1180   1.397   .     A
C1176  H1178   1.081   .     S
C1181  C1191   1.441   .     S
C1182  C1193   1.441   .     S
C1182  C320    1.424   1_556 S
C1183  N1195   1.429   .     S
C1183  C317    1.424   1_556 S
C1184  N1198   1.429   .     S
N1185  O1187   1.302   .     A
N1185  O1186   1.301   .     A
N1185  C1217   1.440   .     S
N1188  O1190   1.302   .     A
N1188  O1189   1.301   .     A
N1188  C1266   1.440   1_455 S
C1191  N1192   1.157   .     T
C1193  N1194   1.157   .     T
N1195  O1197   1.301   .     A
N1195  O1196   1.298   .     A
N1198  O1200   1.301   .     A
N1198  O1199   1.298   .     A
O1201  C1205   1.288   .     A
O1201  Zn1213  2.002   .     S
O1202  C1206   1.288   .     A
O1202  Zn1214  2.002   .     S
O1203  Zn1214  1.999   .     S
O1203  C1205   1.289   .     A
O1204  C1206   1.289   .     A
O1204  Zn1213  1.999   .     S
C1205  C1228   1.421   .     S
C1206  C1227   1.421   .     S
O1207  C1211   1.278   .     A
O1207  Zn1213  1.985   .     S
O1208  C1212   1.278   .     A
O1208  Zn1214  1.985   .     S
O1209  Zn1214  2.003   .     S
O1209  C1211   1.292   .     A
O1210  C1212   1.292   .     A
O1210  Zn1213  2.003   .     S
C1211  C1217   1.412   .     S
C1212  C1218   1.412   .     S
Zn1213 N1215   2.022   .     S
Zn1214 N1216   2.022   .     S
N1215  C1231   1.374   .     A
N1215  C1230   1.366   .     A
N1216  C1232   1.374   .     A
N1216  C1229   1.366   .     A
C1218  C1265   1.359   .     S
C1218  N1284   1.440   .     S
C1219  C1228   1.396   .     A
C1219  H1221   1.083   .     S
C1220  C1227   1.396   .     A
C1220  H1222   1.083   .     S
C1220  C936    1.370   1_565 S
C1223  C1227   1.397   .     A
C1223  H1225   1.081   .     S
C1223  C931    1.370   1_565 S
C1224  C1228   1.397   .     A
C1224  H1226   1.081   .     S
C1229  C1239   1.441   .     S
C1230  C1241   1.441   .     S
C1230  C368    1.424   1_556 S
C1231  N1243   1.429   .     S
C1231  C365    1.424   1_556 S
C1232  N1246   1.429   .     S
N1233  O1235   1.302   .     A
N1233  O1234   1.301   .     A
N1233  C1265   1.440   .     S
N1236  O1238   1.302   .     A
N1236  O1237   1.301   .     A
C1239  N1240   1.157   .     T
C1241  N1242   1.157   .     T
N1243  O1245   1.301   .     A
N1243  O1244   1.298   .     A
N1246  O1248   1.301   .     A
N1246  O1247   1.298   .     A
O1249  C1253   1.288   .     A
O1249  Zn1261  2.002   .     S
O1250  C1254   1.288   .     A
O1250  Zn1262  2.002   .     S
O1251  Zn1262  1.999   .     S
O1251  C1253   1.289   .     A
O1252  C1254   1.289   .     A
O1252  Zn1261  1.999   .     S
C1253  C1276   1.421   .     S
C1254  C1275   1.421   .     S
O1255  C1259   1.278   .     A
O1255  Zn1261  1.985   .     S
O1256  C1260   1.278   .     A
O1256  Zn1262  1.985   .     S
O1257  Zn1262  2.003   .     S
O1257  C1259   1.292   .     A
O1258  C1260   1.292   .     A
O1258  Zn1261  2.003   .     S
C1259  C1265   1.412   .     S
C1260  C1266   1.412   .     S
Zn1261 N1263   2.022   .     S
Zn1262 N1264   2.022   .     S
N1263  C1279   1.374   .     A
N1263  C1278   1.366   .     A
N1264  C1280   1.374   .     A
N1264  C1277   1.366   .     A
C1266  C1169   1.359   1_655 S
C1266  N1188   1.440   1_655 S
C1267  C1276   1.396   .     A
C1267  H1269   1.083   .     S
C1268  C1275   1.396   .     A
C1268  H1270   1.083   .     S
C1268  C984    1.370   1_565 S
C1271  C1275   1.397   .     A
C1271  H1273   1.081   .     S
C1271  C979    1.370   1_565 S
C1272  C1276   1.397   .     A
C1272  H1274   1.081   .     S
C1277  C1287   1.441   .     S
C1278  C1289   1.441   .     S
C1278  C416    1.424   1_556 S
C1279  N1291   1.429   .     S
C1279  C413    1.424   1_556 S
C1280  N1294   1.429   .     S
N1281  O1283   1.302   .     A
N1281  O1282   1.301   .     A
N1281  C1169   1.440   1_655 S
N1284  O1286   1.302   .     A
N1284  O1285   1.301   .     A
C1287  N1288   1.157   .     T
C1289  N1290   1.157   .     T
N1291  O1293   1.301   .     A
N1291  O1292   1.298   .     A
N1294  O1296   1.301   .     A
N1294  O1295   1.298   .     A
