data_str_m3_o10_o17_pcu_sym.20
_audit_creation_date              2020-01-03
_audit_creation_method            'Materials Studio'
_symmetry_space_group_name_H-M    'P1'
_symmetry_Int_Tables_number       1
_symmetry_cell_setting            triclinic
loop_
_symmetry_equiv_pos_as_xyz
  x,y,z
_cell_length_a                    23.2703
_cell_length_b                    25.6594
_cell_length_c                    29.8097
_cell_angle_alpha                 89.7524
_cell_angle_beta                  86.9644
_cell_angle_gamma                 93.4556
loop_
_atom_site_label
_atom_site_type_symbol
_atom_site_fract_x
_atom_site_fract_y
_atom_site_fract_z
_atom_site_U_iso_or_equiv
_atom_site_adp_type
_atom_site_occupancy
C1     C     0.18197   0.26488   0.24968   0.00000  Uiso   1.00
C2     C     0.19535   0.20531   0.40486   0.00000  Uiso   1.00
C3     C     0.16242   0.17155   0.11602   0.00000  Uiso   1.00
C4     C     0.17091   0.16178   0.38398   0.00000  Uiso   1.00
C5     C     0.18390   0.21640   0.09174   0.00000  Uiso   1.00
C6     C     0.14943   0.11693   0.40826   0.00000  Uiso   1.00
C7     C     0.19009   0.21287   0.04477   0.00000  Uiso   1.00
C8     C     0.14324   0.12046   0.45523   0.00000  Uiso   1.00
C9     C     0.16529   0.16824   0.02343   0.00000  Uiso   1.00
C10    C     0.16804   0.16509   0.47657   0.00000  Uiso   1.00
C11    C     0.13759   0.12671   0.04892   0.00000  Uiso   1.00
C12    C     0.15136   0.06846   0.25032   0.00000  Uiso   1.00
C13    C     0.19574   0.20662   0.45108   0.00000  Uiso   1.00
C14    C     0.22117   0.25172   0.01852   0.00000  Uiso   1.00
C15    C     0.11217   0.08161   0.48148   0.00000  Uiso   1.00
C16    C     0.22286   0.24917   0.47206   0.00000  Uiso   1.00
C17    C     0.11048   0.08417   0.02795   0.00000  Uiso   1.00
C18    C     0.19000   0.31939   0.24894   0.00000  Uiso   1.00
C19    C     0.14334   0.01394   0.25106   0.00000  Uiso   1.00
C20    C     0.16776   0.16479   0.33638   0.00000  Uiso   1.00
C21    C     0.16557   0.16854   0.16362   0.00000  Uiso   1.00
C22    C     0.13799   0.12802   0.09514   0.00000  Uiso   1.00
H23    H     0.11953   0.09505   0.11512   0.00000  Uiso   1.00
H24    H     0.32869   0.20530   0.28364   0.00000  Uiso   1.00
H25    H     0.20131   0.02626   0.10412   0.00000  Uiso   1.00
H26    H     0.13203   0.30707   0.39587   0.00000  Uiso   1.00
H27    H     0.21381   0.23829   0.38488   0.00000  Uiso   1.00
H28    H     0.24597   0.28343   0.03331   0.00000  Uiso   1.00
H29    H     0.08736   0.04990   0.46669   0.00000  Uiso   1.00
H30    H     0.24588   0.28028   0.45249   0.00000  Uiso   1.00
H31    H     0.08745   0.05306   0.04751   0.00000  Uiso   1.00
H32    H     0.23403   0.00305   0.24632   0.00000  Uiso   1.00
H33    H     0.09930   0.33028   0.25368   0.00000  Uiso   1.00
H34    H     0.00465   0.12804   0.21636   0.00000  Uiso   1.00
N35    N     0.31678   0.15265   0.23783   0.00000  Uiso   1.00
N36    N     0.01656   0.18068   0.26217   0.00000  Uiso   1.00
O37    O     0.12975   0.24619   0.25299   0.00000  Uiso   1.00
O38    O     0.25274   0.27968   0.13979   0.00000  Uiso   1.00
O39    O     0.18943   0.32888   0.08604   0.00000  Uiso   1.00
O40    O     0.08059   0.05365   0.36021   0.00000  Uiso   1.00
O41    O     0.18476   0.05314   0.34286   0.00000  Uiso   1.00
O42    O     0.14390   0.00445   0.41396   0.00000  Uiso   1.00
O43    O     0.20358   0.08714   0.24702   0.00000  Uiso   1.00
O44    O     0.22613   0.23721   0.24519   0.00000  Uiso   1.00
O45    O     0.10720   0.09613   0.25481   0.00000  Uiso   1.00
O46    O     0.11847   0.17117   0.31998   0.00000  Uiso   1.00
O47    O     0.21486   0.16216   0.18003   0.00000  Uiso   1.00
O48    O     0.21485   0.16219   0.31218   0.00000  Uiso   1.00
O49    O     0.11848   0.17115   0.18783   0.00000  Uiso   1.00
O50    O     0.14857   0.28019   0.15714   0.00000  Uiso   1.00
S51    S     0.19450   0.27710   0.12012   0.00000  Uiso   1.00
S52    S     0.13884   0.05624   0.37988   0.00000  Uiso   1.00
Zn53   Zn    0.10231   0.17266   0.25521   0.00000  Uiso   1.00
Zn54   Zn    0.23102   0.16067   0.24479   0.00000  Uiso   1.00
C55    C     0.51530   0.26488   0.24968   0.00000  Uiso   1.00
C56    C     0.52868   0.20531   0.40486   0.00000  Uiso   1.00
C57    C     0.49576   0.17155   0.11602   0.00000  Uiso   1.00
C58    C     0.50424   0.16178   0.38398   0.00000  Uiso   1.00
C59    C     0.51724   0.21640   0.09174   0.00000  Uiso   1.00
C60    C     0.48276   0.11693   0.40826   0.00000  Uiso   1.00
C61    C     0.52343   0.21287   0.04477   0.00000  Uiso   1.00
C62    C     0.47657   0.12046   0.45523   0.00000  Uiso   1.00
C63    C     0.49862   0.16824   0.02343   0.00000  Uiso   1.00
C64    C     0.50138   0.16509   0.47657   0.00000  Uiso   1.00
C65    C     0.47092   0.12671   0.04892   0.00000  Uiso   1.00
C66    C     0.48470   0.06846   0.25032   0.00000  Uiso   1.00
C67    C     0.52908   0.20662   0.45108   0.00000  Uiso   1.00
C68    C     0.55450   0.25172   0.01852   0.00000  Uiso   1.00
C69    C     0.44550   0.08161   0.48148   0.00000  Uiso   1.00
C70    C     0.55619   0.24917   0.47206   0.00000  Uiso   1.00
C71    C     0.44381   0.08417   0.02795   0.00000  Uiso   1.00
C72    C     0.52333   0.31939   0.24894   0.00000  Uiso   1.00
C73    C     0.47667   0.01394   0.25106   0.00000  Uiso   1.00
C74    C     0.50109   0.16479   0.33638   0.00000  Uiso   1.00
C75    C     0.49891   0.16854   0.16362   0.00000  Uiso   1.00
C76    C     0.47132   0.12802   0.09514   0.00000  Uiso   1.00
H77    H     0.45286   0.09505   0.11512   0.00000  Uiso   1.00
H78    H     0.66202   0.20530   0.28364   0.00000  Uiso   1.00
H79    H     0.53464   0.02626   0.10412   0.00000  Uiso   1.00
H80    H     0.46536   0.30707   0.39587   0.00000  Uiso   1.00
H81    H     0.54714   0.23829   0.38488   0.00000  Uiso   1.00
H82    H     0.57931   0.28343   0.03331   0.00000  Uiso   1.00
H83    H     0.42069   0.04990   0.46669   0.00000  Uiso   1.00
H84    H     0.57922   0.28028   0.45249   0.00000  Uiso   1.00
H85    H     0.42078   0.05306   0.04751   0.00000  Uiso   1.00
H86    H     0.56736   0.00305   0.24632   0.00000  Uiso   1.00
H87    H     0.43264   0.33028   0.25368   0.00000  Uiso   1.00
H88    H     0.33798   0.12804   0.21636   0.00000  Uiso   1.00
N89    N     0.65011   0.15265   0.23783   0.00000  Uiso   1.00
N90    N     0.34989   0.18068   0.26217   0.00000  Uiso   1.00
O91    O     0.46308   0.24619   0.25299   0.00000  Uiso   1.00
O92    O     0.58607   0.27968   0.13979   0.00000  Uiso   1.00
O93    O     0.52276   0.32888   0.08604   0.00000  Uiso   1.00
O94    O     0.41393   0.05365   0.36021   0.00000  Uiso   1.00
O95    O     0.51810   0.05314   0.34286   0.00000  Uiso   1.00
O96    O     0.47723   0.00445   0.41396   0.00000  Uiso   1.00
O97    O     0.53692   0.08714   0.24702   0.00000  Uiso   1.00
O98    O     0.55946   0.23721   0.24519   0.00000  Uiso   1.00
O99    O     0.44054   0.09613   0.25481   0.00000  Uiso   1.00
O100   O     0.45181   0.17117   0.31998   0.00000  Uiso   1.00
O101   O     0.54819   0.16216   0.18003   0.00000  Uiso   1.00
O102   O     0.54819   0.16219   0.31218   0.00000  Uiso   1.00
O103   O     0.45181   0.17115   0.18783   0.00000  Uiso   1.00
O104   O     0.48190   0.28019   0.15714   0.00000  Uiso   1.00
S105   S     0.52783   0.27710   0.12012   0.00000  Uiso   1.00
S106   S     0.47217   0.05624   0.37988   0.00000  Uiso   1.00
Zn107  Zn    0.43565   0.17266   0.25521   0.00000  Uiso   1.00
Zn108  Zn    0.56435   0.16067   0.24479   0.00000  Uiso   1.00
C109   C     0.84864   0.26488   0.24968   0.00000  Uiso   1.00
C110   C     0.86201   0.20531   0.40486   0.00000  Uiso   1.00
C111   C     0.82909   0.17155   0.11602   0.00000  Uiso   1.00
C112   C     0.83758   0.16178   0.38398   0.00000  Uiso   1.00
C113   C     0.85057   0.21640   0.09174   0.00000  Uiso   1.00
C114   C     0.81610   0.11693   0.40826   0.00000  Uiso   1.00
C115   C     0.85676   0.21287   0.04477   0.00000  Uiso   1.00
C116   C     0.80991   0.12046   0.45523   0.00000  Uiso   1.00
C117   C     0.83196   0.16824   0.02343   0.00000  Uiso   1.00
C118   C     0.83471   0.16509   0.47657   0.00000  Uiso   1.00
C119   C     0.80426   0.12671   0.04892   0.00000  Uiso   1.00
C120   C     0.81803   0.06846   0.25032   0.00000  Uiso   1.00
C121   C     0.86241   0.20662   0.45108   0.00000  Uiso   1.00
C122   C     0.88783   0.25172   0.01852   0.00000  Uiso   1.00
C123   C     0.77883   0.08161   0.48148   0.00000  Uiso   1.00
C124   C     0.88952   0.24917   0.47206   0.00000  Uiso   1.00
C125   C     0.77714   0.08417   0.02795   0.00000  Uiso   1.00
C126   C     0.85666   0.31939   0.24894   0.00000  Uiso   1.00
C127   C     0.81000   0.01394   0.25106   0.00000  Uiso   1.00
C128   C     0.83443   0.16479   0.33638   0.00000  Uiso   1.00
C129   C     0.83224   0.16854   0.16362   0.00000  Uiso   1.00
C130   C     0.80466   0.12802   0.09514   0.00000  Uiso   1.00
H131   H     0.78619   0.09505   0.11512   0.00000  Uiso   1.00
H132   H     0.99535   0.20530   0.28364   0.00000  Uiso   1.00
H133   H     0.86798   0.02626   0.10412   0.00000  Uiso   1.00
H134   H     0.79870   0.30707   0.39587   0.00000  Uiso   1.00
H135   H     0.88047   0.23829   0.38488   0.00000  Uiso   1.00
H136   H     0.91264   0.28343   0.03331   0.00000  Uiso   1.00
H137   H     0.75403   0.04990   0.46669   0.00000  Uiso   1.00
H138   H     0.91255   0.28028   0.45249   0.00000  Uiso   1.00
H139   H     0.75412   0.05306   0.04751   0.00000  Uiso   1.00
H140   H     0.90070   0.00305   0.24632   0.00000  Uiso   1.00
H141   H     0.76597   0.33028   0.25368   0.00000  Uiso   1.00
H142   H     0.67131   0.12804   0.21636   0.00000  Uiso   1.00
N143   N     0.98344   0.15265   0.23783   0.00000  Uiso   1.00
N144   N     0.68322   0.18068   0.26217   0.00000  Uiso   1.00
O145   O     0.79642   0.24619   0.25299   0.00000  Uiso   1.00
O146   O     0.91941   0.27968   0.13979   0.00000  Uiso   1.00
O147   O     0.85610   0.32888   0.08604   0.00000  Uiso   1.00
O148   O     0.74726   0.05365   0.36021   0.00000  Uiso   1.00
O149   O     0.85143   0.05314   0.34286   0.00000  Uiso   1.00
O150   O     0.81057   0.00445   0.41396   0.00000  Uiso   1.00
O151   O     0.87025   0.08714   0.24702   0.00000  Uiso   1.00
O152   O     0.89280   0.23721   0.24519   0.00000  Uiso   1.00
O153   O     0.77387   0.09613   0.25481   0.00000  Uiso   1.00
O154   O     0.78514   0.17117   0.31998   0.00000  Uiso   1.00
O155   O     0.88153   0.16216   0.18003   0.00000  Uiso   1.00
O156   O     0.88152   0.16219   0.31218   0.00000  Uiso   1.00
O157   O     0.78515   0.17115   0.18783   0.00000  Uiso   1.00
O158   O     0.81524   0.28019   0.15714   0.00000  Uiso   1.00
S159   S     0.86116   0.27710   0.12012   0.00000  Uiso   1.00
S160   S     0.80550   0.05624   0.37988   0.00000  Uiso   1.00
Zn161  Zn    0.76898   0.17266   0.25521   0.00000  Uiso   1.00
Zn162  Zn    0.89769   0.16067   0.24479   0.00000  Uiso   1.00
C163   C     0.18197   0.59821   0.24968   0.00000  Uiso   1.00
C164   C     0.19535   0.53864   0.40486   0.00000  Uiso   1.00
C165   C     0.16242   0.50489   0.11602   0.00000  Uiso   1.00
C166   C     0.17091   0.49511   0.38398   0.00000  Uiso   1.00
C167   C     0.18390   0.54973   0.09174   0.00000  Uiso   1.00
C168   C     0.14943   0.45027   0.40826   0.00000  Uiso   1.00
C169   C     0.19009   0.54621   0.04477   0.00000  Uiso   1.00
C170   C     0.14324   0.45379   0.45523   0.00000  Uiso   1.00
C171   C     0.16529   0.50158   0.02343   0.00000  Uiso   1.00
C172   C     0.16804   0.49842   0.47657   0.00000  Uiso   1.00
C173   C     0.13759   0.46004   0.04892   0.00000  Uiso   1.00
C174   C     0.15136   0.40179   0.25032   0.00000  Uiso   1.00
C175   C     0.19574   0.53996   0.45108   0.00000  Uiso   1.00
C176   C     0.22117   0.58506   0.01852   0.00000  Uiso   1.00
C177   C     0.11217   0.41494   0.48148   0.00000  Uiso   1.00
C178   C     0.22286   0.58250   0.47206   0.00000  Uiso   1.00
C179   C     0.11048   0.41750   0.02795   0.00000  Uiso   1.00
C180   C     0.19000   0.65273   0.24894   0.00000  Uiso   1.00
C181   C     0.14334   0.34727   0.25106   0.00000  Uiso   1.00
C182   C     0.16776   0.49812   0.33638   0.00000  Uiso   1.00
C183   C     0.16557   0.50188   0.16362   0.00000  Uiso   1.00
C184   C     0.13799   0.46136   0.09514   0.00000  Uiso   1.00
H185   H     0.11953   0.42838   0.11512   0.00000  Uiso   1.00
H186   H     0.32869   0.53863   0.28364   0.00000  Uiso   1.00
H187   H     0.20131   0.35959   0.10412   0.00000  Uiso   1.00
H188   H     0.13203   0.64041   0.39587   0.00000  Uiso   1.00
H189   H     0.21381   0.57162   0.38488   0.00000  Uiso   1.00
H190   H     0.24597   0.61677   0.03331   0.00000  Uiso   1.00
H191   H     0.08736   0.38323   0.46669   0.00000  Uiso   1.00
H192   H     0.24588   0.61361   0.45249   0.00000  Uiso   1.00
H193   H     0.08745   0.38639   0.04751   0.00000  Uiso   1.00
H194   H     0.23403   0.33638   0.24632   0.00000  Uiso   1.00
H195   H     0.09930   0.66362   0.25368   0.00000  Uiso   1.00
H196   H     0.00465   0.46137   0.21636   0.00000  Uiso   1.00
N197   N     0.31678   0.48598   0.23783   0.00000  Uiso   1.00
N198   N     0.01656   0.51402   0.26217   0.00000  Uiso   1.00
O199   O     0.12975   0.57952   0.25299   0.00000  Uiso   1.00
O200   O     0.25274   0.61302   0.13979   0.00000  Uiso   1.00
O201   O     0.18943   0.66222   0.08604   0.00000  Uiso   1.00
O202   O     0.08059   0.38698   0.36021   0.00000  Uiso   1.00
O203   O     0.18476   0.38648   0.34286   0.00000  Uiso   1.00
O204   O     0.14390   0.33778   0.41396   0.00000  Uiso   1.00
O205   O     0.20358   0.42048   0.24702   0.00000  Uiso   1.00
O206   O     0.22613   0.57054   0.24519   0.00000  Uiso   1.00
O207   O     0.10720   0.42946   0.25481   0.00000  Uiso   1.00
O208   O     0.11847   0.50450   0.31998   0.00000  Uiso   1.00
O209   O     0.21486   0.49550   0.18003   0.00000  Uiso   1.00
O210   O     0.21485   0.49552   0.31218   0.00000  Uiso   1.00
O211   O     0.11848   0.50448   0.18783   0.00000  Uiso   1.00
O212   O     0.14857   0.61352   0.15714   0.00000  Uiso   1.00
S213   S     0.19450   0.61043   0.12012   0.00000  Uiso   1.00
S214   S     0.13884   0.38957   0.37988   0.00000  Uiso   1.00
Zn215  Zn    0.10231   0.50600   0.25521   0.00000  Uiso   1.00
Zn216  Zn    0.23102   0.49400   0.24479   0.00000  Uiso   1.00
C217   C     0.51530   0.59821   0.24968   0.00000  Uiso   1.00
C218   C     0.52868   0.53864   0.40486   0.00000  Uiso   1.00
C219   C     0.49576   0.50489   0.11602   0.00000  Uiso   1.00
C220   C     0.50424   0.49511   0.38398   0.00000  Uiso   1.00
C221   C     0.51724   0.54973   0.09174   0.00000  Uiso   1.00
C222   C     0.48276   0.45027   0.40826   0.00000  Uiso   1.00
C223   C     0.52343   0.54621   0.04477   0.00000  Uiso   1.00
C224   C     0.47657   0.45379   0.45523   0.00000  Uiso   1.00
C225   C     0.49862   0.50158   0.02343   0.00000  Uiso   1.00
C226   C     0.50138   0.49842   0.47657   0.00000  Uiso   1.00
C227   C     0.47092   0.46004   0.04892   0.00000  Uiso   1.00
C228   C     0.48470   0.40179   0.25032   0.00000  Uiso   1.00
C229   C     0.52908   0.53996   0.45108   0.00000  Uiso   1.00
C230   C     0.55450   0.58506   0.01852   0.00000  Uiso   1.00
C231   C     0.44550   0.41494   0.48148   0.00000  Uiso   1.00
C232   C     0.55619   0.58250   0.47206   0.00000  Uiso   1.00
C233   C     0.44381   0.41750   0.02795   0.00000  Uiso   1.00
C234   C     0.52333   0.65273   0.24894   0.00000  Uiso   1.00
C235   C     0.47667   0.34727   0.25106   0.00000  Uiso   1.00
C236   C     0.50109   0.49812   0.33638   0.00000  Uiso   1.00
C237   C     0.49891   0.50188   0.16362   0.00000  Uiso   1.00
C238   C     0.47132   0.46136   0.09514   0.00000  Uiso   1.00
H239   H     0.45286   0.42838   0.11512   0.00000  Uiso   1.00
H240   H     0.66202   0.53863   0.28364   0.00000  Uiso   1.00
H241   H     0.53464   0.35959   0.10412   0.00000  Uiso   1.00
H242   H     0.46536   0.64041   0.39587   0.00000  Uiso   1.00
H243   H     0.54714   0.57162   0.38488   0.00000  Uiso   1.00
H244   H     0.57931   0.61677   0.03331   0.00000  Uiso   1.00
H245   H     0.42069   0.38323   0.46669   0.00000  Uiso   1.00
H246   H     0.57922   0.61361   0.45249   0.00000  Uiso   1.00
H247   H     0.42078   0.38639   0.04751   0.00000  Uiso   1.00
H248   H     0.56736   0.33638   0.24632   0.00000  Uiso   1.00
H249   H     0.43264   0.66362   0.25368   0.00000  Uiso   1.00
H250   H     0.33798   0.46137   0.21636   0.00000  Uiso   1.00
N251   N     0.65011   0.48598   0.23783   0.00000  Uiso   1.00
N252   N     0.34989   0.51402   0.26217   0.00000  Uiso   1.00
O253   O     0.46308   0.57952   0.25299   0.00000  Uiso   1.00
O254   O     0.58607   0.61302   0.13979   0.00000  Uiso   1.00
O255   O     0.52276   0.66222   0.08604   0.00000  Uiso   1.00
O256   O     0.41393   0.38698   0.36021   0.00000  Uiso   1.00
O257   O     0.51810   0.38648   0.34286   0.00000  Uiso   1.00
O258   O     0.47723   0.33778   0.41396   0.00000  Uiso   1.00
O259   O     0.53692   0.42048   0.24702   0.00000  Uiso   1.00
O260   O     0.55946   0.57054   0.24519   0.00000  Uiso   1.00
O261   O     0.44054   0.42946   0.25481   0.00000  Uiso   1.00
O262   O     0.45181   0.50450   0.31998   0.00000  Uiso   1.00
O263   O     0.54819   0.49550   0.18003   0.00000  Uiso   1.00
O264   O     0.54819   0.49552   0.31218   0.00000  Uiso   1.00
O265   O     0.45181   0.50448   0.18783   0.00000  Uiso   1.00
O266   O     0.48190   0.61352   0.15714   0.00000  Uiso   1.00
S267   S     0.52783   0.61043   0.12012   0.00000  Uiso   1.00
S268   S     0.47217   0.38957   0.37988   0.00000  Uiso   1.00
Zn269  Zn    0.43565   0.50600   0.25521   0.00000  Uiso   1.00
Zn270  Zn    0.56435   0.49400   0.24479   0.00000  Uiso   1.00
C271   C     0.84864   0.59821   0.24968   0.00000  Uiso   1.00
C272   C     0.86201   0.53864   0.40486   0.00000  Uiso   1.00
C273   C     0.82909   0.50489   0.11602   0.00000  Uiso   1.00
C274   C     0.83758   0.49511   0.38398   0.00000  Uiso   1.00
C275   C     0.85057   0.54973   0.09174   0.00000  Uiso   1.00
C276   C     0.81610   0.45027   0.40826   0.00000  Uiso   1.00
C277   C     0.85676   0.54621   0.04477   0.00000  Uiso   1.00
C278   C     0.80991   0.45379   0.45523   0.00000  Uiso   1.00
C279   C     0.83196   0.50158   0.02343   0.00000  Uiso   1.00
C280   C     0.83471   0.49842   0.47657   0.00000  Uiso   1.00
C281   C     0.80426   0.46004   0.04892   0.00000  Uiso   1.00
C282   C     0.81803   0.40179   0.25032   0.00000  Uiso   1.00
C283   C     0.86241   0.53996   0.45108   0.00000  Uiso   1.00
C284   C     0.88783   0.58506   0.01852   0.00000  Uiso   1.00
C285   C     0.77883   0.41494   0.48148   0.00000  Uiso   1.00
C286   C     0.88952   0.58250   0.47206   0.00000  Uiso   1.00
C287   C     0.77714   0.41750   0.02795   0.00000  Uiso   1.00
C288   C     0.85666   0.65273   0.24894   0.00000  Uiso   1.00
C289   C     0.81000   0.34727   0.25106   0.00000  Uiso   1.00
C290   C     0.83443   0.49812   0.33638   0.00000  Uiso   1.00
C291   C     0.83224   0.50188   0.16362   0.00000  Uiso   1.00
C292   C     0.80466   0.46136   0.09514   0.00000  Uiso   1.00
H293   H     0.78619   0.42838   0.11512   0.00000  Uiso   1.00
H294   H     0.99535   0.53863   0.28364   0.00000  Uiso   1.00
H295   H     0.86798   0.35959   0.10412   0.00000  Uiso   1.00
H296   H     0.79870   0.64041   0.39587   0.00000  Uiso   1.00
H297   H     0.88047   0.57162   0.38488   0.00000  Uiso   1.00
H298   H     0.91264   0.61677   0.03331   0.00000  Uiso   1.00
H299   H     0.75403   0.38323   0.46669   0.00000  Uiso   1.00
H300   H     0.91255   0.61361   0.45249   0.00000  Uiso   1.00
H301   H     0.75412   0.38639   0.04751   0.00000  Uiso   1.00
H302   H     0.90070   0.33638   0.24632   0.00000  Uiso   1.00
H303   H     0.76597   0.66362   0.25368   0.00000  Uiso   1.00
H304   H     0.67131   0.46137   0.21636   0.00000  Uiso   1.00
N305   N     0.98344   0.48598   0.23783   0.00000  Uiso   1.00
N306   N     0.68322   0.51402   0.26217   0.00000  Uiso   1.00
O307   O     0.79642   0.57952   0.25299   0.00000  Uiso   1.00
O308   O     0.91941   0.61302   0.13979   0.00000  Uiso   1.00
O309   O     0.85610   0.66222   0.08604   0.00000  Uiso   1.00
O310   O     0.74726   0.38698   0.36021   0.00000  Uiso   1.00
O311   O     0.85143   0.38648   0.34286   0.00000  Uiso   1.00
O312   O     0.81057   0.33778   0.41396   0.00000  Uiso   1.00
O313   O     0.87025   0.42048   0.24702   0.00000  Uiso   1.00
O314   O     0.89280   0.57054   0.24519   0.00000  Uiso   1.00
O315   O     0.77387   0.42946   0.25481   0.00000  Uiso   1.00
O316   O     0.78514   0.50450   0.31998   0.00000  Uiso   1.00
O317   O     0.88153   0.49550   0.18003   0.00000  Uiso   1.00
O318   O     0.88152   0.49552   0.31218   0.00000  Uiso   1.00
O319   O     0.78515   0.50448   0.18783   0.00000  Uiso   1.00
O320   O     0.81524   0.61352   0.15714   0.00000  Uiso   1.00
S321   S     0.86116   0.61043   0.12012   0.00000  Uiso   1.00
S322   S     0.80550   0.38957   0.37988   0.00000  Uiso   1.00
Zn323  Zn    0.76898   0.50600   0.25521   0.00000  Uiso   1.00
Zn324  Zn    0.89769   0.49400   0.24479   0.00000  Uiso   1.00
C325   C     0.18197   0.93154   0.24968   0.00000  Uiso   1.00
C326   C     0.19535   0.87198   0.40486   0.00000  Uiso   1.00
C327   C     0.16242   0.83822   0.11602   0.00000  Uiso   1.00
C328   C     0.17091   0.82845   0.38398   0.00000  Uiso   1.00
C329   C     0.18390   0.88307   0.09174   0.00000  Uiso   1.00
C330   C     0.14943   0.78360   0.40826   0.00000  Uiso   1.00
C331   C     0.19009   0.87954   0.04477   0.00000  Uiso   1.00
C332   C     0.14324   0.78713   0.45523   0.00000  Uiso   1.00
C333   C     0.16529   0.83491   0.02343   0.00000  Uiso   1.00
C334   C     0.16804   0.83176   0.47657   0.00000  Uiso   1.00
C335   C     0.13759   0.79338   0.04892   0.00000  Uiso   1.00
C336   C     0.15136   0.73512   0.25032   0.00000  Uiso   1.00
C337   C     0.19574   0.87329   0.45108   0.00000  Uiso   1.00
C338   C     0.22117   0.91839   0.01852   0.00000  Uiso   1.00
C339   C     0.11217   0.74828   0.48148   0.00000  Uiso   1.00
C340   C     0.22286   0.91583   0.47206   0.00000  Uiso   1.00
C341   C     0.11048   0.75083   0.02795   0.00000  Uiso   1.00
C342   C     0.19000   0.98606   0.24894   0.00000  Uiso   1.00
C343   C     0.14334   0.68061   0.25106   0.00000  Uiso   1.00
C344   C     0.16776   0.83146   0.33638   0.00000  Uiso   1.00
C345   C     0.16557   0.83521   0.16362   0.00000  Uiso   1.00
C346   C     0.13799   0.79469   0.09514   0.00000  Uiso   1.00
H347   H     0.11953   0.76171   0.11512   0.00000  Uiso   1.00
H348   H     0.32869   0.87196   0.28364   0.00000  Uiso   1.00
H349   H     0.20131   0.69293   0.10412   0.00000  Uiso   1.00
H350   H     0.13203   0.97374   0.39587   0.00000  Uiso   1.00
H351   H     0.21381   0.90495   0.38488   0.00000  Uiso   1.00
H352   H     0.24597   0.95010   0.03331   0.00000  Uiso   1.00
H353   H     0.08736   0.71657   0.46669   0.00000  Uiso   1.00
H354   H     0.24588   0.94694   0.45249   0.00000  Uiso   1.00
H355   H     0.08745   0.71973   0.04751   0.00000  Uiso   1.00
H356   H     0.23403   0.66972   0.24632   0.00000  Uiso   1.00
H357   H     0.09930   0.99695   0.25368   0.00000  Uiso   1.00
H358   H     0.00465   0.79470   0.21636   0.00000  Uiso   1.00
N359   N     0.31678   0.81932   0.23783   0.00000  Uiso   1.00
N360   N     0.01656   0.84735   0.26217   0.00000  Uiso   1.00
O361   O     0.12975   0.91286   0.25299   0.00000  Uiso   1.00
O362   O     0.25274   0.94635   0.13979   0.00000  Uiso   1.00
O363   O     0.18943   0.99555   0.08604   0.00000  Uiso   1.00
O364   O     0.08059   0.72032   0.36021   0.00000  Uiso   1.00
O365   O     0.18476   0.71981   0.34286   0.00000  Uiso   1.00
O366   O     0.14390   0.67112   0.41396   0.00000  Uiso   1.00
O367   O     0.20358   0.75381   0.24702   0.00000  Uiso   1.00
O368   O     0.22613   0.90387   0.24519   0.00000  Uiso   1.00
O369   O     0.10720   0.76279   0.25481   0.00000  Uiso   1.00
O370   O     0.11847   0.83784   0.31998   0.00000  Uiso   1.00
O371   O     0.21486   0.82883   0.18003   0.00000  Uiso   1.00
O372   O     0.21485   0.82885   0.31218   0.00000  Uiso   1.00
O373   O     0.11848   0.83781   0.18783   0.00000  Uiso   1.00
O374   O     0.14857   0.94686   0.15714   0.00000  Uiso   1.00
S375   S     0.19450   0.94376   0.12012   0.00000  Uiso   1.00
S376   S     0.13884   0.72290   0.37988   0.00000  Uiso   1.00
Zn377  Zn    0.10231   0.83933   0.25521   0.00000  Uiso   1.00
Zn378  Zn    0.23102   0.82734   0.24479   0.00000  Uiso   1.00
C379   C     0.51530   0.93154   0.24968   0.00000  Uiso   1.00
C380   C     0.52868   0.87198   0.40486   0.00000  Uiso   1.00
C381   C     0.49576   0.83822   0.11602   0.00000  Uiso   1.00
C382   C     0.50424   0.82845   0.38398   0.00000  Uiso   1.00
C383   C     0.51724   0.88307   0.09174   0.00000  Uiso   1.00
C384   C     0.48276   0.78360   0.40826   0.00000  Uiso   1.00
C385   C     0.52343   0.87954   0.04477   0.00000  Uiso   1.00
C386   C     0.47657   0.78713   0.45523   0.00000  Uiso   1.00
C387   C     0.49862   0.83491   0.02343   0.00000  Uiso   1.00
C388   C     0.50138   0.83176   0.47657   0.00000  Uiso   1.00
C389   C     0.47092   0.79338   0.04892   0.00000  Uiso   1.00
C390   C     0.48470   0.73512   0.25032   0.00000  Uiso   1.00
C391   C     0.52908   0.87329   0.45108   0.00000  Uiso   1.00
C392   C     0.55450   0.91839   0.01852   0.00000  Uiso   1.00
C393   C     0.44550   0.74828   0.48148   0.00000  Uiso   1.00
C394   C     0.55619   0.91583   0.47206   0.00000  Uiso   1.00
C395   C     0.44381   0.75083   0.02795   0.00000  Uiso   1.00
C396   C     0.52333   0.98606   0.24894   0.00000  Uiso   1.00
C397   C     0.47667   0.68061   0.25106   0.00000  Uiso   1.00
C398   C     0.50109   0.83146   0.33638   0.00000  Uiso   1.00
C399   C     0.49891   0.83521   0.16362   0.00000  Uiso   1.00
C400   C     0.47132   0.79469   0.09514   0.00000  Uiso   1.00
H401   H     0.45286   0.76171   0.11512   0.00000  Uiso   1.00
H402   H     0.66202   0.87196   0.28364   0.00000  Uiso   1.00
H403   H     0.53464   0.69293   0.10412   0.00000  Uiso   1.00
H404   H     0.46536   0.97374   0.39587   0.00000  Uiso   1.00
H405   H     0.54714   0.90495   0.38488   0.00000  Uiso   1.00
H406   H     0.57931   0.95010   0.03331   0.00000  Uiso   1.00
H407   H     0.42069   0.71657   0.46669   0.00000  Uiso   1.00
H408   H     0.57922   0.94694   0.45249   0.00000  Uiso   1.00
H409   H     0.42078   0.71973   0.04751   0.00000  Uiso   1.00
H410   H     0.56736   0.66972   0.24632   0.00000  Uiso   1.00
H411   H     0.43264   0.99695   0.25368   0.00000  Uiso   1.00
H412   H     0.33798   0.79470   0.21636   0.00000  Uiso   1.00
N413   N     0.65011   0.81932   0.23783   0.00000  Uiso   1.00
N414   N     0.34989   0.84735   0.26217   0.00000  Uiso   1.00
O415   O     0.46308   0.91286   0.25299   0.00000  Uiso   1.00
O416   O     0.58607   0.94635   0.13979   0.00000  Uiso   1.00
O417   O     0.52276   0.99555   0.08604   0.00000  Uiso   1.00
O418   O     0.41393   0.72032   0.36021   0.00000  Uiso   1.00
O419   O     0.51810   0.71981   0.34286   0.00000  Uiso   1.00
O420   O     0.47723   0.67112   0.41396   0.00000  Uiso   1.00
O421   O     0.53692   0.75381   0.24702   0.00000  Uiso   1.00
O422   O     0.55946   0.90387   0.24519   0.00000  Uiso   1.00
O423   O     0.44054   0.76279   0.25481   0.00000  Uiso   1.00
O424   O     0.45181   0.83784   0.31998   0.00000  Uiso   1.00
O425   O     0.54819   0.82883   0.18003   0.00000  Uiso   1.00
O426   O     0.54819   0.82885   0.31218   0.00000  Uiso   1.00
O427   O     0.45181   0.83781   0.18783   0.00000  Uiso   1.00
O428   O     0.48190   0.94686   0.15714   0.00000  Uiso   1.00
S429   S     0.52783   0.94376   0.12012   0.00000  Uiso   1.00
S430   S     0.47217   0.72290   0.37988   0.00000  Uiso   1.00
Zn431  Zn    0.43565   0.83933   0.25521   0.00000  Uiso   1.00
Zn432  Zn    0.56435   0.82734   0.24479   0.00000  Uiso   1.00
C433   C     0.84864   0.93154   0.24968   0.00000  Uiso   1.00
C434   C     0.86201   0.87198   0.40486   0.00000  Uiso   1.00
C435   C     0.82909   0.83822   0.11602   0.00000  Uiso   1.00
C436   C     0.83758   0.82845   0.38398   0.00000  Uiso   1.00
C437   C     0.85057   0.88307   0.09174   0.00000  Uiso   1.00
C438   C     0.81610   0.78360   0.40826   0.00000  Uiso   1.00
C439   C     0.85676   0.87954   0.04477   0.00000  Uiso   1.00
C440   C     0.80991   0.78713   0.45523   0.00000  Uiso   1.00
C441   C     0.83196   0.83491   0.02343   0.00000  Uiso   1.00
C442   C     0.83471   0.83176   0.47657   0.00000  Uiso   1.00
C443   C     0.80426   0.79338   0.04892   0.00000  Uiso   1.00
C444   C     0.81803   0.73512   0.25032   0.00000  Uiso   1.00
C445   C     0.86241   0.87329   0.45108   0.00000  Uiso   1.00
C446   C     0.88783   0.91839   0.01852   0.00000  Uiso   1.00
C447   C     0.77883   0.74828   0.48148   0.00000  Uiso   1.00
C448   C     0.88952   0.91583   0.47206   0.00000  Uiso   1.00
C449   C     0.77714   0.75083   0.02795   0.00000  Uiso   1.00
C450   C     0.85666   0.98606   0.24894   0.00000  Uiso   1.00
C451   C     0.81000   0.68061   0.25106   0.00000  Uiso   1.00
C452   C     0.83443   0.83146   0.33638   0.00000  Uiso   1.00
C453   C     0.83224   0.83521   0.16362   0.00000  Uiso   1.00
C454   C     0.80466   0.79469   0.09514   0.00000  Uiso   1.00
H455   H     0.78619   0.76171   0.11512   0.00000  Uiso   1.00
H456   H     0.99535   0.87196   0.28364   0.00000  Uiso   1.00
H457   H     0.86798   0.69293   0.10412   0.00000  Uiso   1.00
H458   H     0.79870   0.97374   0.39587   0.00000  Uiso   1.00
H459   H     0.88047   0.90495   0.38488   0.00000  Uiso   1.00
H460   H     0.91264   0.95010   0.03331   0.00000  Uiso   1.00
H461   H     0.75403   0.71657   0.46669   0.00000  Uiso   1.00
H462   H     0.91255   0.94694   0.45249   0.00000  Uiso   1.00
H463   H     0.75412   0.71973   0.04751   0.00000  Uiso   1.00
H464   H     0.90070   0.66972   0.24632   0.00000  Uiso   1.00
H465   H     0.76597   0.99695   0.25368   0.00000  Uiso   1.00
H466   H     0.67131   0.79470   0.21636   0.00000  Uiso   1.00
N467   N     0.98344   0.81932   0.23783   0.00000  Uiso   1.00
N468   N     0.68322   0.84735   0.26217   0.00000  Uiso   1.00
O469   O     0.79642   0.91286   0.25299   0.00000  Uiso   1.00
O470   O     0.91941   0.94635   0.13979   0.00000  Uiso   1.00
O471   O     0.85610   0.99555   0.08604   0.00000  Uiso   1.00
O472   O     0.74726   0.72032   0.36021   0.00000  Uiso   1.00
O473   O     0.85143   0.71981   0.34286   0.00000  Uiso   1.00
O474   O     0.81057   0.67112   0.41396   0.00000  Uiso   1.00
O475   O     0.87025   0.75381   0.24702   0.00000  Uiso   1.00
O476   O     0.89280   0.90387   0.24519   0.00000  Uiso   1.00
O477   O     0.77387   0.76279   0.25481   0.00000  Uiso   1.00
O478   O     0.78514   0.83784   0.31998   0.00000  Uiso   1.00
O479   O     0.88153   0.82883   0.18003   0.00000  Uiso   1.00
O480   O     0.88152   0.82885   0.31218   0.00000  Uiso   1.00
O481   O     0.78515   0.83781   0.18783   0.00000  Uiso   1.00
O482   O     0.81524   0.94686   0.15714   0.00000  Uiso   1.00
S483   S     0.86116   0.94376   0.12012   0.00000  Uiso   1.00
S484   S     0.80550   0.72290   0.37988   0.00000  Uiso   1.00
Zn485  Zn    0.76898   0.83933   0.25521   0.00000  Uiso   1.00
Zn486  Zn    0.89769   0.82734   0.24479   0.00000  Uiso   1.00
C487   C     0.18197   0.26488   0.74968   0.00000  Uiso   1.00
C488   C     0.19535   0.20531   0.90486   0.00000  Uiso   1.00
C489   C     0.16242   0.17155   0.61602   0.00000  Uiso   1.00
C490   C     0.17091   0.16178   0.88398   0.00000  Uiso   1.00
C491   C     0.18390   0.21640   0.59174   0.00000  Uiso   1.00
C492   C     0.14943   0.11693   0.90826   0.00000  Uiso   1.00
C493   C     0.19009   0.21287   0.54477   0.00000  Uiso   1.00
C494   C     0.14324   0.12046   0.95523   0.00000  Uiso   1.00
C495   C     0.16529   0.16824   0.52343   0.00000  Uiso   1.00
C496   C     0.16804   0.16509   0.97657   0.00000  Uiso   1.00
C497   C     0.13759   0.12671   0.54892   0.00000  Uiso   1.00
C498   C     0.15136   0.06846   0.75032   0.00000  Uiso   1.00
C499   C     0.19574   0.20662   0.95108   0.00000  Uiso   1.00
C500   C     0.22117   0.25172   0.51852   0.00000  Uiso   1.00
C501   C     0.11217   0.08161   0.98148   0.00000  Uiso   1.00
C502   C     0.22286   0.24917   0.97206   0.00000  Uiso   1.00
C503   C     0.11048   0.08417   0.52795   0.00000  Uiso   1.00
C504   C     0.19000   0.31939   0.74894   0.00000  Uiso   1.00
C505   C     0.14334   0.01394   0.75106   0.00000  Uiso   1.00
C506   C     0.16776   0.16479   0.83638   0.00000  Uiso   1.00
C507   C     0.16557   0.16854   0.66362   0.00000  Uiso   1.00
C508   C     0.13799   0.12802   0.59514   0.00000  Uiso   1.00
H509   H     0.11953   0.09505   0.61512   0.00000  Uiso   1.00
H510   H     0.32869   0.20530   0.78364   0.00000  Uiso   1.00
H511   H     0.20131   0.02626   0.60412   0.00000  Uiso   1.00
H512   H     0.13203   0.30707   0.89587   0.00000  Uiso   1.00
H513   H     0.21381   0.23829   0.88488   0.00000  Uiso   1.00
H514   H     0.24597   0.28343   0.53331   0.00000  Uiso   1.00
H515   H     0.08736   0.04990   0.96669   0.00000  Uiso   1.00
H516   H     0.24588   0.28028   0.95249   0.00000  Uiso   1.00
H517   H     0.08745   0.05306   0.54751   0.00000  Uiso   1.00
H518   H     0.23403   0.00305   0.74632   0.00000  Uiso   1.00
H519   H     0.09930   0.33028   0.75368   0.00000  Uiso   1.00
H520   H     0.00465   0.12804   0.71636   0.00000  Uiso   1.00
N521   N     0.31678   0.15265   0.73783   0.00000  Uiso   1.00
N522   N     0.01656   0.18068   0.76217   0.00000  Uiso   1.00
O523   O     0.12975   0.24619   0.75299   0.00000  Uiso   1.00
O524   O     0.25274   0.27968   0.63979   0.00000  Uiso   1.00
O525   O     0.18943   0.32888   0.58604   0.00000  Uiso   1.00
O526   O     0.08059   0.05365   0.86021   0.00000  Uiso   1.00
O527   O     0.18476   0.05314   0.84286   0.00000  Uiso   1.00
O528   O     0.14390   0.00445   0.91396   0.00000  Uiso   1.00
O529   O     0.20358   0.08714   0.74702   0.00000  Uiso   1.00
O530   O     0.22613   0.23721   0.74519   0.00000  Uiso   1.00
O531   O     0.10720   0.09613   0.75481   0.00000  Uiso   1.00
O532   O     0.11847   0.17117   0.81998   0.00000  Uiso   1.00
O533   O     0.21486   0.16216   0.68003   0.00000  Uiso   1.00
O534   O     0.21485   0.16219   0.81218   0.00000  Uiso   1.00
O535   O     0.11848   0.17115   0.68783   0.00000  Uiso   1.00
O536   O     0.14857   0.28019   0.65714   0.00000  Uiso   1.00
S537   S     0.19450   0.27710   0.62012   0.00000  Uiso   1.00
S538   S     0.13884   0.05624   0.87988   0.00000  Uiso   1.00
Zn539  Zn    0.10231   0.17266   0.75521   0.00000  Uiso   1.00
Zn540  Zn    0.23102   0.16067   0.74479   0.00000  Uiso   1.00
C541   C     0.51530   0.26488   0.74968   0.00000  Uiso   1.00
C542   C     0.52868   0.20531   0.90486   0.00000  Uiso   1.00
C543   C     0.49576   0.17155   0.61602   0.00000  Uiso   1.00
C544   C     0.50424   0.16178   0.88398   0.00000  Uiso   1.00
C545   C     0.51724   0.21640   0.59174   0.00000  Uiso   1.00
C546   C     0.48276   0.11693   0.90826   0.00000  Uiso   1.00
C547   C     0.52343   0.21287   0.54477   0.00000  Uiso   1.00
C548   C     0.47657   0.12046   0.95523   0.00000  Uiso   1.00
C549   C     0.49862   0.16824   0.52343   0.00000  Uiso   1.00
C550   C     0.50138   0.16509   0.97657   0.00000  Uiso   1.00
C551   C     0.47092   0.12671   0.54892   0.00000  Uiso   1.00
C552   C     0.48470   0.06846   0.75032   0.00000  Uiso   1.00
C553   C     0.52908   0.20662   0.95108   0.00000  Uiso   1.00
C554   C     0.55450   0.25172   0.51852   0.00000  Uiso   1.00
C555   C     0.44550   0.08161   0.98148   0.00000  Uiso   1.00
C556   C     0.55619   0.24917   0.97206   0.00000  Uiso   1.00
C557   C     0.44381   0.08417   0.52795   0.00000  Uiso   1.00
C558   C     0.52333   0.31939   0.74894   0.00000  Uiso   1.00
C559   C     0.47667   0.01394   0.75106   0.00000  Uiso   1.00
C560   C     0.50109   0.16479   0.83638   0.00000  Uiso   1.00
C561   C     0.49891   0.16854   0.66362   0.00000  Uiso   1.00
C562   C     0.47132   0.12802   0.59514   0.00000  Uiso   1.00
H563   H     0.45286   0.09505   0.61512   0.00000  Uiso   1.00
H564   H     0.66202   0.20530   0.78364   0.00000  Uiso   1.00
H565   H     0.53464   0.02626   0.60412   0.00000  Uiso   1.00
H566   H     0.46536   0.30707   0.89587   0.00000  Uiso   1.00
H567   H     0.54714   0.23829   0.88488   0.00000  Uiso   1.00
H568   H     0.57931   0.28343   0.53331   0.00000  Uiso   1.00
H569   H     0.42069   0.04990   0.96669   0.00000  Uiso   1.00
H570   H     0.57922   0.28028   0.95249   0.00000  Uiso   1.00
H571   H     0.42078   0.05306   0.54751   0.00000  Uiso   1.00
H572   H     0.56736   0.00305   0.74632   0.00000  Uiso   1.00
H573   H     0.43264   0.33028   0.75368   0.00000  Uiso   1.00
H574   H     0.33798   0.12804   0.71636   0.00000  Uiso   1.00
N575   N     0.65011   0.15265   0.73783   0.00000  Uiso   1.00
N576   N     0.34989   0.18068   0.76217   0.00000  Uiso   1.00
O577   O     0.46308   0.24619   0.75299   0.00000  Uiso   1.00
O578   O     0.58607   0.27968   0.63979   0.00000  Uiso   1.00
O579   O     0.52276   0.32888   0.58604   0.00000  Uiso   1.00
O580   O     0.41393   0.05365   0.86021   0.00000  Uiso   1.00
O581   O     0.51810   0.05314   0.84286   0.00000  Uiso   1.00
O582   O     0.47723   0.00445   0.91396   0.00000  Uiso   1.00
O583   O     0.53692   0.08714   0.74702   0.00000  Uiso   1.00
O584   O     0.55946   0.23721   0.74519   0.00000  Uiso   1.00
O585   O     0.44054   0.09613   0.75481   0.00000  Uiso   1.00
O586   O     0.45181   0.17117   0.81998   0.00000  Uiso   1.00
O587   O     0.54819   0.16216   0.68003   0.00000  Uiso   1.00
O588   O     0.54819   0.16219   0.81218   0.00000  Uiso   1.00
O589   O     0.45181   0.17115   0.68783   0.00000  Uiso   1.00
O590   O     0.48190   0.28019   0.65714   0.00000  Uiso   1.00
S591   S     0.52783   0.27710   0.62012   0.00000  Uiso   1.00
S592   S     0.47217   0.05624   0.87988   0.00000  Uiso   1.00
Zn593  Zn    0.43565   0.17266   0.75521   0.00000  Uiso   1.00
Zn594  Zn    0.56435   0.16067   0.74479   0.00000  Uiso   1.00
C595   C     0.84864   0.26488   0.74968   0.00000  Uiso   1.00
C596   C     0.86201   0.20531   0.90486   0.00000  Uiso   1.00
C597   C     0.82909   0.17155   0.61602   0.00000  Uiso   1.00
C598   C     0.83758   0.16178   0.88398   0.00000  Uiso   1.00
C599   C     0.85057   0.21640   0.59174   0.00000  Uiso   1.00
C600   C     0.81610   0.11693   0.90826   0.00000  Uiso   1.00
C601   C     0.85676   0.21287   0.54477   0.00000  Uiso   1.00
C602   C     0.80991   0.12046   0.95523   0.00000  Uiso   1.00
C603   C     0.83196   0.16824   0.52343   0.00000  Uiso   1.00
C604   C     0.83471   0.16509   0.97657   0.00000  Uiso   1.00
C605   C     0.80426   0.12671   0.54892   0.00000  Uiso   1.00
C606   C     0.81803   0.06846   0.75032   0.00000  Uiso   1.00
C607   C     0.86241   0.20662   0.95108   0.00000  Uiso   1.00
C608   C     0.88783   0.25172   0.51852   0.00000  Uiso   1.00
C609   C     0.77883   0.08161   0.98148   0.00000  Uiso   1.00
C610   C     0.88952   0.24917   0.97206   0.00000  Uiso   1.00
C611   C     0.77714   0.08417   0.52795   0.00000  Uiso   1.00
C612   C     0.85666   0.31939   0.74894   0.00000  Uiso   1.00
C613   C     0.81000   0.01394   0.75106   0.00000  Uiso   1.00
C614   C     0.83443   0.16479   0.83638   0.00000  Uiso   1.00
C615   C     0.83224   0.16854   0.66362   0.00000  Uiso   1.00
C616   C     0.80466   0.12802   0.59514   0.00000  Uiso   1.00
H617   H     0.78619   0.09505   0.61512   0.00000  Uiso   1.00
H618   H     0.99535   0.20530   0.78364   0.00000  Uiso   1.00
H619   H     0.86798   0.02626   0.60412   0.00000  Uiso   1.00
H620   H     0.79870   0.30707   0.89587   0.00000  Uiso   1.00
H621   H     0.88047   0.23829   0.88488   0.00000  Uiso   1.00
H622   H     0.91264   0.28343   0.53331   0.00000  Uiso   1.00
H623   H     0.75403   0.04990   0.96669   0.00000  Uiso   1.00
H624   H     0.91255   0.28028   0.95249   0.00000  Uiso   1.00
H625   H     0.75412   0.05306   0.54751   0.00000  Uiso   1.00
H626   H     0.90070   0.00305   0.74632   0.00000  Uiso   1.00
H627   H     0.76597   0.33028   0.75368   0.00000  Uiso   1.00
H628   H     0.67131   0.12804   0.71636   0.00000  Uiso   1.00
N629   N     0.98344   0.15265   0.73783   0.00000  Uiso   1.00
N630   N     0.68322   0.18068   0.76217   0.00000  Uiso   1.00
O631   O     0.79642   0.24619   0.75299   0.00000  Uiso   1.00
O632   O     0.91941   0.27968   0.63979   0.00000  Uiso   1.00
O633   O     0.85610   0.32888   0.58604   0.00000  Uiso   1.00
O634   O     0.74726   0.05365   0.86021   0.00000  Uiso   1.00
O635   O     0.85143   0.05314   0.84286   0.00000  Uiso   1.00
O636   O     0.81057   0.00445   0.91396   0.00000  Uiso   1.00
O637   O     0.87025   0.08714   0.74702   0.00000  Uiso   1.00
O638   O     0.89280   0.23721   0.74519   0.00000  Uiso   1.00
O639   O     0.77387   0.09613   0.75481   0.00000  Uiso   1.00
O640   O     0.78514   0.17117   0.81998   0.00000  Uiso   1.00
O641   O     0.88153   0.16216   0.68003   0.00000  Uiso   1.00
O642   O     0.88152   0.16219   0.81218   0.00000  Uiso   1.00
O643   O     0.78515   0.17115   0.68783   0.00000  Uiso   1.00
O644   O     0.81524   0.28019   0.65714   0.00000  Uiso   1.00
S645   S     0.86116   0.27710   0.62012   0.00000  Uiso   1.00
S646   S     0.80550   0.05624   0.87988   0.00000  Uiso   1.00
Zn647  Zn    0.76898   0.17266   0.75521   0.00000  Uiso   1.00
Zn648  Zn    0.89769   0.16067   0.74479   0.00000  Uiso   1.00
C649   C     0.18197   0.59821   0.74968   0.00000  Uiso   1.00
C650   C     0.19535   0.53864   0.90486   0.00000  Uiso   1.00
C651   C     0.16242   0.50489   0.61602   0.00000  Uiso   1.00
C652   C     0.17091   0.49511   0.88398   0.00000  Uiso   1.00
C653   C     0.18390   0.54973   0.59174   0.00000  Uiso   1.00
C654   C     0.14943   0.45027   0.90826   0.00000  Uiso   1.00
C655   C     0.19009   0.54621   0.54477   0.00000  Uiso   1.00
C656   C     0.14324   0.45379   0.95523   0.00000  Uiso   1.00
C657   C     0.16529   0.50158   0.52343   0.00000  Uiso   1.00
C658   C     0.16804   0.49842   0.97657   0.00000  Uiso   1.00
C659   C     0.13759   0.46004   0.54892   0.00000  Uiso   1.00
C660   C     0.15136   0.40179   0.75032   0.00000  Uiso   1.00
C661   C     0.19574   0.53996   0.95108   0.00000  Uiso   1.00
C662   C     0.22117   0.58506   0.51852   0.00000  Uiso   1.00
C663   C     0.11217   0.41494   0.98148   0.00000  Uiso   1.00
C664   C     0.22286   0.58250   0.97206   0.00000  Uiso   1.00
C665   C     0.11048   0.41750   0.52795   0.00000  Uiso   1.00
C666   C     0.19000   0.65273   0.74894   0.00000  Uiso   1.00
C667   C     0.14334   0.34727   0.75106   0.00000  Uiso   1.00
C668   C     0.16776   0.49812   0.83638   0.00000  Uiso   1.00
C669   C     0.16557   0.50188   0.66362   0.00000  Uiso   1.00
C670   C     0.13799   0.46136   0.59514   0.00000  Uiso   1.00
H671   H     0.11953   0.42838   0.61512   0.00000  Uiso   1.00
H672   H     0.32869   0.53863   0.78364   0.00000  Uiso   1.00
H673   H     0.20131   0.35959   0.60412   0.00000  Uiso   1.00
H674   H     0.13203   0.64041   0.89587   0.00000  Uiso   1.00
H675   H     0.21381   0.57162   0.88488   0.00000  Uiso   1.00
H676   H     0.24597   0.61677   0.53331   0.00000  Uiso   1.00
H677   H     0.08736   0.38323   0.96669   0.00000  Uiso   1.00
H678   H     0.24588   0.61361   0.95249   0.00000  Uiso   1.00
H679   H     0.08745   0.38639   0.54751   0.00000  Uiso   1.00
H680   H     0.23403   0.33638   0.74632   0.00000  Uiso   1.00
H681   H     0.09930   0.66362   0.75368   0.00000  Uiso   1.00
H682   H     0.00465   0.46137   0.71636   0.00000  Uiso   1.00
N683   N     0.31678   0.48598   0.73783   0.00000  Uiso   1.00
N684   N     0.01656   0.51402   0.76217   0.00000  Uiso   1.00
O685   O     0.12975   0.57952   0.75299   0.00000  Uiso   1.00
O686   O     0.25274   0.61302   0.63979   0.00000  Uiso   1.00
O687   O     0.18943   0.66222   0.58604   0.00000  Uiso   1.00
O688   O     0.08059   0.38698   0.86021   0.00000  Uiso   1.00
O689   O     0.18476   0.38648   0.84286   0.00000  Uiso   1.00
O690   O     0.14390   0.33778   0.91396   0.00000  Uiso   1.00
O691   O     0.20358   0.42048   0.74702   0.00000  Uiso   1.00
O692   O     0.22613   0.57054   0.74519   0.00000  Uiso   1.00
O693   O     0.10720   0.42946   0.75481   0.00000  Uiso   1.00
O694   O     0.11847   0.50450   0.81998   0.00000  Uiso   1.00
O695   O     0.21486   0.49550   0.68003   0.00000  Uiso   1.00
O696   O     0.21485   0.49552   0.81218   0.00000  Uiso   1.00
O697   O     0.11848   0.50448   0.68783   0.00000  Uiso   1.00
O698   O     0.14857   0.61352   0.65714   0.00000  Uiso   1.00
S699   S     0.19450   0.61043   0.62012   0.00000  Uiso   1.00
S700   S     0.13884   0.38957   0.87988   0.00000  Uiso   1.00
Zn701  Zn    0.10231   0.50600   0.75521   0.00000  Uiso   1.00
Zn702  Zn    0.23102   0.49400   0.74479   0.00000  Uiso   1.00
C703   C     0.51530   0.59821   0.74968   0.00000  Uiso   1.00
C704   C     0.52868   0.53864   0.90486   0.00000  Uiso   1.00
C705   C     0.49576   0.50489   0.61602   0.00000  Uiso   1.00
C706   C     0.50424   0.49511   0.88398   0.00000  Uiso   1.00
C707   C     0.51724   0.54973   0.59174   0.00000  Uiso   1.00
C708   C     0.48276   0.45027   0.90826   0.00000  Uiso   1.00
C709   C     0.52343   0.54621   0.54477   0.00000  Uiso   1.00
C710   C     0.47657   0.45379   0.95523   0.00000  Uiso   1.00
C711   C     0.49862   0.50158   0.52343   0.00000  Uiso   1.00
C712   C     0.50138   0.49842   0.97657   0.00000  Uiso   1.00
C713   C     0.47092   0.46004   0.54892   0.00000  Uiso   1.00
C714   C     0.48470   0.40179   0.75032   0.00000  Uiso   1.00
C715   C     0.52908   0.53996   0.95108   0.00000  Uiso   1.00
C716   C     0.55450   0.58506   0.51852   0.00000  Uiso   1.00
C717   C     0.44550   0.41494   0.98148   0.00000  Uiso   1.00
C718   C     0.55619   0.58250   0.97206   0.00000  Uiso   1.00
C719   C     0.44381   0.41750   0.52795   0.00000  Uiso   1.00
C720   C     0.52333   0.65273   0.74894   0.00000  Uiso   1.00
C721   C     0.47667   0.34727   0.75106   0.00000  Uiso   1.00
C722   C     0.50109   0.49812   0.83638   0.00000  Uiso   1.00
C723   C     0.49891   0.50188   0.66362   0.00000  Uiso   1.00
C724   C     0.47132   0.46136   0.59514   0.00000  Uiso   1.00
H725   H     0.45286   0.42838   0.61512   0.00000  Uiso   1.00
H726   H     0.66202   0.53863   0.78364   0.00000  Uiso   1.00
H727   H     0.53464   0.35959   0.60412   0.00000  Uiso   1.00
H728   H     0.46536   0.64041   0.89587   0.00000  Uiso   1.00
H729   H     0.54714   0.57162   0.88488   0.00000  Uiso   1.00
H730   H     0.57931   0.61677   0.53331   0.00000  Uiso   1.00
H731   H     0.42069   0.38323   0.96669   0.00000  Uiso   1.00
H732   H     0.57922   0.61361   0.95249   0.00000  Uiso   1.00
H733   H     0.42078   0.38639   0.54751   0.00000  Uiso   1.00
H734   H     0.56736   0.33638   0.74632   0.00000  Uiso   1.00
H735   H     0.43264   0.66362   0.75368   0.00000  Uiso   1.00
H736   H     0.33798   0.46137   0.71636   0.00000  Uiso   1.00
N737   N     0.65011   0.48598   0.73783   0.00000  Uiso   1.00
N738   N     0.34989   0.51402   0.76217   0.00000  Uiso   1.00
O739   O     0.46308   0.57952   0.75299   0.00000  Uiso   1.00
O740   O     0.58607   0.61302   0.63979   0.00000  Uiso   1.00
O741   O     0.52276   0.66222   0.58604   0.00000  Uiso   1.00
O742   O     0.41393   0.38698   0.86021   0.00000  Uiso   1.00
O743   O     0.51810   0.38648   0.84286   0.00000  Uiso   1.00
O744   O     0.47723   0.33778   0.91396   0.00000  Uiso   1.00
O745   O     0.53692   0.42048   0.74702   0.00000  Uiso   1.00
O746   O     0.55946   0.57054   0.74519   0.00000  Uiso   1.00
O747   O     0.44054   0.42946   0.75481   0.00000  Uiso   1.00
O748   O     0.45181   0.50450   0.81998   0.00000  Uiso   1.00
O749   O     0.54819   0.49550   0.68003   0.00000  Uiso   1.00
O750   O     0.54819   0.49552   0.81218   0.00000  Uiso   1.00
O751   O     0.45181   0.50448   0.68783   0.00000  Uiso   1.00
O752   O     0.48190   0.61352   0.65714   0.00000  Uiso   1.00
S753   S     0.52783   0.61043   0.62012   0.00000  Uiso   1.00
S754   S     0.47217   0.38957   0.87988   0.00000  Uiso   1.00
Zn755  Zn    0.43565   0.50600   0.75521   0.00000  Uiso   1.00
Zn756  Zn    0.56435   0.49400   0.74479   0.00000  Uiso   1.00
C757   C     0.84864   0.59821   0.74968   0.00000  Uiso   1.00
C758   C     0.86201   0.53864   0.90486   0.00000  Uiso   1.00
C759   C     0.82909   0.50489   0.61602   0.00000  Uiso   1.00
C760   C     0.83758   0.49511   0.88398   0.00000  Uiso   1.00
C761   C     0.85057   0.54973   0.59174   0.00000  Uiso   1.00
C762   C     0.81610   0.45027   0.90826   0.00000  Uiso   1.00
C763   C     0.85676   0.54621   0.54477   0.00000  Uiso   1.00
C764   C     0.80991   0.45379   0.95523   0.00000  Uiso   1.00
C765   C     0.83196   0.50158   0.52343   0.00000  Uiso   1.00
C766   C     0.83471   0.49842   0.97657   0.00000  Uiso   1.00
C767   C     0.80426   0.46004   0.54892   0.00000  Uiso   1.00
C768   C     0.81803   0.40179   0.75032   0.00000  Uiso   1.00
C769   C     0.86241   0.53996   0.95108   0.00000  Uiso   1.00
C770   C     0.88783   0.58506   0.51852   0.00000  Uiso   1.00
C771   C     0.77883   0.41494   0.98148   0.00000  Uiso   1.00
C772   C     0.88952   0.58250   0.97206   0.00000  Uiso   1.00
C773   C     0.77714   0.41750   0.52795   0.00000  Uiso   1.00
C774   C     0.85666   0.65273   0.74894   0.00000  Uiso   1.00
C775   C     0.81000   0.34727   0.75106   0.00000  Uiso   1.00
C776   C     0.83443   0.49812   0.83638   0.00000  Uiso   1.00
C777   C     0.83224   0.50188   0.66362   0.00000  Uiso   1.00
C778   C     0.80466   0.46136   0.59514   0.00000  Uiso   1.00
H779   H     0.78619   0.42838   0.61512   0.00000  Uiso   1.00
H780   H     0.99535   0.53863   0.78364   0.00000  Uiso   1.00
H781   H     0.86798   0.35959   0.60412   0.00000  Uiso   1.00
H782   H     0.79870   0.64041   0.89587   0.00000  Uiso   1.00
H783   H     0.88047   0.57162   0.88488   0.00000  Uiso   1.00
H784   H     0.91264   0.61677   0.53331   0.00000  Uiso   1.00
H785   H     0.75403   0.38323   0.96669   0.00000  Uiso   1.00
H786   H     0.91255   0.61361   0.95249   0.00000  Uiso   1.00
H787   H     0.75412   0.38639   0.54751   0.00000  Uiso   1.00
H788   H     0.90070   0.33638   0.74632   0.00000  Uiso   1.00
H789   H     0.76597   0.66362   0.75368   0.00000  Uiso   1.00
H790   H     0.67131   0.46137   0.71636   0.00000  Uiso   1.00
N791   N     0.98344   0.48598   0.73783   0.00000  Uiso   1.00
N792   N     0.68322   0.51402   0.76217   0.00000  Uiso   1.00
O793   O     0.79642   0.57952   0.75299   0.00000  Uiso   1.00
O794   O     0.91941   0.61302   0.63979   0.00000  Uiso   1.00
O795   O     0.85610   0.66222   0.58604   0.00000  Uiso   1.00
O796   O     0.74726   0.38698   0.86021   0.00000  Uiso   1.00
O797   O     0.85143   0.38648   0.84286   0.00000  Uiso   1.00
O798   O     0.81057   0.33778   0.91396   0.00000  Uiso   1.00
O799   O     0.87025   0.42048   0.74702   0.00000  Uiso   1.00
O800   O     0.89280   0.57054   0.74519   0.00000  Uiso   1.00
O801   O     0.77387   0.42946   0.75481   0.00000  Uiso   1.00
O802   O     0.78514   0.50450   0.81998   0.00000  Uiso   1.00
O803   O     0.88153   0.49550   0.68003   0.00000  Uiso   1.00
O804   O     0.88152   0.49552   0.81218   0.00000  Uiso   1.00
O805   O     0.78515   0.50448   0.68783   0.00000  Uiso   1.00
O806   O     0.81524   0.61352   0.65714   0.00000  Uiso   1.00
S807   S     0.86116   0.61043   0.62012   0.00000  Uiso   1.00
S808   S     0.80550   0.38957   0.87988   0.00000  Uiso   1.00
Zn809  Zn    0.76898   0.50600   0.75521   0.00000  Uiso   1.00
Zn810  Zn    0.89769   0.49400   0.74479   0.00000  Uiso   1.00
C811   C     0.18197   0.93154   0.74968   0.00000  Uiso   1.00
C812   C     0.19535   0.87198   0.90486   0.00000  Uiso   1.00
C813   C     0.16242   0.83822   0.61602   0.00000  Uiso   1.00
C814   C     0.17091   0.82845   0.88398   0.00000  Uiso   1.00
C815   C     0.18390   0.88307   0.59174   0.00000  Uiso   1.00
C816   C     0.14943   0.78360   0.90826   0.00000  Uiso   1.00
C817   C     0.19009   0.87954   0.54477   0.00000  Uiso   1.00
C818   C     0.14324   0.78713   0.95523   0.00000  Uiso   1.00
C819   C     0.16529   0.83491   0.52343   0.00000  Uiso   1.00
C820   C     0.16804   0.83176   0.97657   0.00000  Uiso   1.00
C821   C     0.13759   0.79338   0.54892   0.00000  Uiso   1.00
C822   C     0.15136   0.73512   0.75032   0.00000  Uiso   1.00
C823   C     0.19574   0.87329   0.95108   0.00000  Uiso   1.00
C824   C     0.22117   0.91839   0.51852   0.00000  Uiso   1.00
C825   C     0.11217   0.74828   0.98148   0.00000  Uiso   1.00
C826   C     0.22286   0.91583   0.97206   0.00000  Uiso   1.00
C827   C     0.11048   0.75083   0.52795   0.00000  Uiso   1.00
C828   C     0.19000   0.98606   0.74894   0.00000  Uiso   1.00
C829   C     0.14334   0.68061   0.75106   0.00000  Uiso   1.00
C830   C     0.16776   0.83146   0.83638   0.00000  Uiso   1.00
C831   C     0.16557   0.83521   0.66362   0.00000  Uiso   1.00
C832   C     0.13799   0.79469   0.59514   0.00000  Uiso   1.00
H833   H     0.11953   0.76171   0.61512   0.00000  Uiso   1.00
H834   H     0.32869   0.87196   0.78364   0.00000  Uiso   1.00
H835   H     0.20131   0.69293   0.60412   0.00000  Uiso   1.00
H836   H     0.13203   0.97374   0.89587   0.00000  Uiso   1.00
H837   H     0.21381   0.90495   0.88488   0.00000  Uiso   1.00
H838   H     0.24597   0.95010   0.53331   0.00000  Uiso   1.00
H839   H     0.08736   0.71657   0.96669   0.00000  Uiso   1.00
H840   H     0.24588   0.94694   0.95249   0.00000  Uiso   1.00
H841   H     0.08745   0.71973   0.54751   0.00000  Uiso   1.00
H842   H     0.23403   0.66972   0.74632   0.00000  Uiso   1.00
H843   H     0.09930   0.99695   0.75368   0.00000  Uiso   1.00
H844   H     0.00465   0.79470   0.71636   0.00000  Uiso   1.00
N845   N     0.31678   0.81932   0.73783   0.00000  Uiso   1.00
N846   N     0.01656   0.84735   0.76217   0.00000  Uiso   1.00
O847   O     0.12975   0.91286   0.75299   0.00000  Uiso   1.00
O848   O     0.25274   0.94635   0.63979   0.00000  Uiso   1.00
O849   O     0.18943   0.99555   0.58604   0.00000  Uiso   1.00
O850   O     0.08059   0.72032   0.86021   0.00000  Uiso   1.00
O851   O     0.18476   0.71981   0.84286   0.00000  Uiso   1.00
O852   O     0.14390   0.67112   0.91396   0.00000  Uiso   1.00
O853   O     0.20358   0.75381   0.74702   0.00000  Uiso   1.00
O854   O     0.22613   0.90387   0.74519   0.00000  Uiso   1.00
O855   O     0.10720   0.76279   0.75481   0.00000  Uiso   1.00
O856   O     0.11847   0.83784   0.81998   0.00000  Uiso   1.00
O857   O     0.21486   0.82883   0.68003   0.00000  Uiso   1.00
O858   O     0.21485   0.82885   0.81218   0.00000  Uiso   1.00
O859   O     0.11848   0.83781   0.68783   0.00000  Uiso   1.00
O860   O     0.14857   0.94686   0.65714   0.00000  Uiso   1.00
S861   S     0.19450   0.94376   0.62012   0.00000  Uiso   1.00
S862   S     0.13884   0.72290   0.87988   0.00000  Uiso   1.00
Zn863  Zn    0.10231   0.83933   0.75521   0.00000  Uiso   1.00
Zn864  Zn    0.23102   0.82734   0.74479   0.00000  Uiso   1.00
C865   C     0.51530   0.93154   0.74968   0.00000  Uiso   1.00
C866   C     0.52868   0.87198   0.90486   0.00000  Uiso   1.00
C867   C     0.49576   0.83822   0.61602   0.00000  Uiso   1.00
C868   C     0.50424   0.82845   0.88398   0.00000  Uiso   1.00
C869   C     0.51724   0.88307   0.59174   0.00000  Uiso   1.00
C870   C     0.48276   0.78360   0.90826   0.00000  Uiso   1.00
C871   C     0.52343   0.87954   0.54477   0.00000  Uiso   1.00
C872   C     0.47657   0.78713   0.95523   0.00000  Uiso   1.00
C873   C     0.49862   0.83491   0.52343   0.00000  Uiso   1.00
C874   C     0.50138   0.83176   0.97657   0.00000  Uiso   1.00
C875   C     0.47092   0.79338   0.54892   0.00000  Uiso   1.00
C876   C     0.48470   0.73512   0.75032   0.00000  Uiso   1.00
C877   C     0.52908   0.87329   0.95108   0.00000  Uiso   1.00
C878   C     0.55450   0.91839   0.51852   0.00000  Uiso   1.00
C879   C     0.44550   0.74828   0.98148   0.00000  Uiso   1.00
C880   C     0.55619   0.91583   0.97206   0.00000  Uiso   1.00
C881   C     0.44381   0.75083   0.52795   0.00000  Uiso   1.00
C882   C     0.52333   0.98606   0.74894   0.00000  Uiso   1.00
C883   C     0.47667   0.68061   0.75106   0.00000  Uiso   1.00
C884   C     0.50109   0.83146   0.83638   0.00000  Uiso   1.00
C885   C     0.49891   0.83521   0.66362   0.00000  Uiso   1.00
C886   C     0.47132   0.79469   0.59514   0.00000  Uiso   1.00
H887   H     0.45286   0.76171   0.61512   0.00000  Uiso   1.00
H888   H     0.66202   0.87196   0.78364   0.00000  Uiso   1.00
H889   H     0.53464   0.69293   0.60412   0.00000  Uiso   1.00
H890   H     0.46536   0.97374   0.89587   0.00000  Uiso   1.00
H891   H     0.54714   0.90495   0.88488   0.00000  Uiso   1.00
H892   H     0.57931   0.95010   0.53331   0.00000  Uiso   1.00
H893   H     0.42069   0.71657   0.96669   0.00000  Uiso   1.00
H894   H     0.57922   0.94694   0.95249   0.00000  Uiso   1.00
H895   H     0.42078   0.71973   0.54751   0.00000  Uiso   1.00
H896   H     0.56736   0.66972   0.74632   0.00000  Uiso   1.00
H897   H     0.43264   0.99695   0.75368   0.00000  Uiso   1.00
H898   H     0.33798   0.79470   0.71636   0.00000  Uiso   1.00
N899   N     0.65011   0.81932   0.73783   0.00000  Uiso   1.00
N900   N     0.34989   0.84735   0.76217   0.00000  Uiso   1.00
O901   O     0.46308   0.91286   0.75299   0.00000  Uiso   1.00
O902   O     0.58607   0.94635   0.63979   0.00000  Uiso   1.00
O903   O     0.52276   0.99555   0.58604   0.00000  Uiso   1.00
O904   O     0.41393   0.72032   0.86021   0.00000  Uiso   1.00
O905   O     0.51810   0.71981   0.84286   0.00000  Uiso   1.00
O906   O     0.47723   0.67112   0.91396   0.00000  Uiso   1.00
O907   O     0.53692   0.75381   0.74702   0.00000  Uiso   1.00
O908   O     0.55946   0.90387   0.74519   0.00000  Uiso   1.00
O909   O     0.44054   0.76279   0.75481   0.00000  Uiso   1.00
O910   O     0.45181   0.83784   0.81998   0.00000  Uiso   1.00
O911   O     0.54819   0.82883   0.68003   0.00000  Uiso   1.00
O912   O     0.54819   0.82885   0.81218   0.00000  Uiso   1.00
O913   O     0.45181   0.83781   0.68783   0.00000  Uiso   1.00
O914   O     0.48190   0.94686   0.65714   0.00000  Uiso   1.00
S915   S     0.52783   0.94376   0.62012   0.00000  Uiso   1.00
S916   S     0.47217   0.72290   0.87988   0.00000  Uiso   1.00
Zn917  Zn    0.43565   0.83933   0.75521   0.00000  Uiso   1.00
Zn918  Zn    0.56435   0.82734   0.74479   0.00000  Uiso   1.00
C919   C     0.84864   0.93154   0.74968   0.00000  Uiso   1.00
C920   C     0.86201   0.87198   0.90486   0.00000  Uiso   1.00
C921   C     0.82909   0.83822   0.61602   0.00000  Uiso   1.00
C922   C     0.83758   0.82845   0.88398   0.00000  Uiso   1.00
C923   C     0.85057   0.88307   0.59174   0.00000  Uiso   1.00
C924   C     0.81610   0.78360   0.90826   0.00000  Uiso   1.00
C925   C     0.85676   0.87954   0.54477   0.00000  Uiso   1.00
C926   C     0.80991   0.78713   0.95523   0.00000  Uiso   1.00
C927   C     0.83196   0.83491   0.52343   0.00000  Uiso   1.00
C928   C     0.83471   0.83176   0.97657   0.00000  Uiso   1.00
C929   C     0.80426   0.79338   0.54892   0.00000  Uiso   1.00
C930   C     0.81803   0.73512   0.75032   0.00000  Uiso   1.00
C931   C     0.86241   0.87329   0.95108   0.00000  Uiso   1.00
C932   C     0.88783   0.91839   0.51852   0.00000  Uiso   1.00
C933   C     0.77883   0.74828   0.98148   0.00000  Uiso   1.00
C934   C     0.88952   0.91583   0.97206   0.00000  Uiso   1.00
C935   C     0.77714   0.75083   0.52795   0.00000  Uiso   1.00
C936   C     0.85666   0.98606   0.74894   0.00000  Uiso   1.00
C937   C     0.81000   0.68061   0.75106   0.00000  Uiso   1.00
C938   C     0.83443   0.83146   0.83638   0.00000  Uiso   1.00
C939   C     0.83224   0.83521   0.66362   0.00000  Uiso   1.00
C940   C     0.80466   0.79469   0.59514   0.00000  Uiso   1.00
H941   H     0.78619   0.76171   0.61512   0.00000  Uiso   1.00
H942   H     0.99535   0.87196   0.78364   0.00000  Uiso   1.00
H943   H     0.86798   0.69293   0.60412   0.00000  Uiso   1.00
H944   H     0.79870   0.97374   0.89587   0.00000  Uiso   1.00
H945   H     0.88047   0.90495   0.88488   0.00000  Uiso   1.00
H946   H     0.91264   0.95010   0.53331   0.00000  Uiso   1.00
H947   H     0.75403   0.71657   0.96669   0.00000  Uiso   1.00
H948   H     0.91255   0.94694   0.95249   0.00000  Uiso   1.00
H949   H     0.75412   0.71973   0.54751   0.00000  Uiso   1.00
H950   H     0.90070   0.66972   0.74632   0.00000  Uiso   1.00
H951   H     0.76597   0.99695   0.75368   0.00000  Uiso   1.00
H952   H     0.67131   0.79470   0.71636   0.00000  Uiso   1.00
N953   N     0.98344   0.81932   0.73783   0.00000  Uiso   1.00
N954   N     0.68322   0.84735   0.76217   0.00000  Uiso   1.00
O955   O     0.79642   0.91286   0.75299   0.00000  Uiso   1.00
O956   O     0.91941   0.94635   0.63979   0.00000  Uiso   1.00
O957   O     0.85610   0.99555   0.58604   0.00000  Uiso   1.00
O958   O     0.74726   0.72032   0.86021   0.00000  Uiso   1.00
O959   O     0.85143   0.71981   0.84286   0.00000  Uiso   1.00
O960   O     0.81057   0.67112   0.91396   0.00000  Uiso   1.00
O961   O     0.87025   0.75381   0.74702   0.00000  Uiso   1.00
O962   O     0.89280   0.90387   0.74519   0.00000  Uiso   1.00
O963   O     0.77387   0.76279   0.75481   0.00000  Uiso   1.00
O964   O     0.78514   0.83784   0.81998   0.00000  Uiso   1.00
O965   O     0.88153   0.82883   0.68003   0.00000  Uiso   1.00
O966   O     0.88152   0.82885   0.81218   0.00000  Uiso   1.00
O967   O     0.78515   0.83781   0.68783   0.00000  Uiso   1.00
O968   O     0.81524   0.94686   0.65714   0.00000  Uiso   1.00
S969   S     0.86116   0.94376   0.62012   0.00000  Uiso   1.00
S970   S     0.80550   0.72290   0.87988   0.00000  Uiso   1.00
Zn971  Zn    0.76898   0.83933   0.75521   0.00000  Uiso   1.00
Zn972  Zn    0.89769   0.82734   0.74479   0.00000  Uiso   1.00
loop_
_geom_bond_atom_site_label_1
_geom_bond_atom_site_label_2
_geom_bond_distance
_geom_bond_site_symmetry_2
_ccdc_geom_bond_type
C1     O37     1.278   .     A
C1     O44     1.285   .     A
C1     C18     1.400   .     S
C2     H27     1.086   .     S
C2     C4      1.388   .     A
C2     C13     1.379   .     A
C3     C5      1.408   .     A
C3     C21     1.427   .     S
C3     C22     1.388   .     A
C4     C6      1.408   .     A
C4     C20     1.427   .     S
C5     C7      1.404   .     A
C5     S51     1.786   .     S
C6     C8      1.404   .     A
C6     S52     1.786   .     S
C7     C9      1.419   .     A
C7     C14     1.405   .     A
C8     C15     1.405   .     A
C8     C10     1.419   .     A
C9     C11     1.410   .     A
C9     C496    1.398   1_554 S
C10    C13     1.410   .     A
C10    C495    1.398   .     S
C11    C22     1.379   .     A
C11    C17     1.395   .     A
C12    O43     1.278   .     A
C12    C19     1.400   .     S
C12    O45     1.285   .     A
C13    C16     1.395   .     A
C14    H28     1.079   .     S
C14    C502    1.385   1_554 S
C15    H29     1.079   .     S
C15    C503    1.385   .     S
C16    H30     1.084   .     S
C16    C500    1.385   .     S
C17    H31     1.084   .     S
C17    C501    1.385   1_554 S
C18    C181    1.335   .     S
C18    H194    1.088   .     S
C19    C342    1.335   1_545 S
C19    H357    1.088   1_545 S
C20    O48     1.285   .     A
C20    O46     1.290   .     A
C21    O49     1.285   .     A
C21    O47     1.290   .     A
C22    H23     1.086   .     S
H24    N90     1.029   .     S
H25    O363    0.991   1_545 S
H26    O204    0.991   .     S
H32    C342    1.088   1_545 S
H33    C181    1.088   .     S
H34    N143    1.029   1_455 S
N35    Zn54    2.018   .     S
N35    H88     1.029   .     S
N35    N90     1.278   .     S
N36    Zn53    2.018   .     S
N36    N143    1.278   1_455 S
N36    H132    1.029   1_455 S
O37    Zn53    1.955   .     S
O38    S51     1.503   .     D
O39    S51     1.683   .     S
O39    H187    0.991   .     S
O40    S52     1.503   .     D
O41    S52     1.501   .     D
O42    S52     1.683   .     S
O42    H350    0.991   1_545 S
O43    Zn54    1.955   .     S
O44    Zn54    1.974   .     S
O45    Zn53    1.974   .     S
O46    Zn53    1.987   .     S
O47    Zn54    1.987   .     S
O48    Zn54    2.025   .     S
O49    Zn53    2.025   .     S
O50    S51     1.501   .     D
C55    O91     1.278   .     A
C55    O98     1.285   .     A
C55    C72     1.400   .     S
C56    H81     1.086   .     S
C56    C58     1.388   .     A
C56    C67     1.379   .     A
C57    C59     1.408   .     A
C57    C75     1.427   .     S
C57    C76     1.388   .     A
C58    C60     1.408   .     A
C58    C74     1.427   .     S
C59    C61     1.404   .     A
C59    S105    1.786   .     S
C60    C62     1.404   .     A
C60    S106    1.786   .     S
C61    C63     1.419   .     A
C61    C68     1.405   .     A
C62    C69     1.405   .     A
C62    C64     1.419   .     A
C63    C65     1.410   .     A
C63    C550    1.398   1_554 S
C64    C67     1.410   .     A
C64    C549    1.398   .     S
C65    C76     1.379   .     A
C65    C71     1.395   .     A
C66    O97     1.278   .     A
C66    C73     1.400   .     S
C66    O99     1.285   .     A
C67    C70     1.395   .     A
C68    H82     1.079   .     S
C68    C556    1.385   1_554 S
C69    H83     1.079   .     S
C69    C557    1.385   .     S
C70    H84     1.084   .     S
C70    C554    1.385   .     S
C71    H85     1.084   .     S
C71    C555    1.385   1_554 S
C72    C235    1.335   .     S
C72    H248    1.088   .     S
C73    C396    1.335   1_545 S
C73    H411    1.088   1_545 S
C74    O102    1.285   .     A
C74    O100    1.290   .     A
C75    O103    1.285   .     A
C75    O101    1.290   .     A
C76    H77     1.086   .     S
H78    N144    1.029   .     S
H79    O417    0.991   1_545 S
H80    O258    0.991   .     S
H86    C396    1.088   1_545 S
H87    C235    1.088   .     S
N89    Zn108   2.018   .     S
N89    H142    1.029   .     S
N89    N144    1.278   .     S
N90    Zn107   2.018   .     S
O91    Zn107   1.955   .     S
O92    S105    1.503   .     D
O93    S105    1.683   .     S
O93    H241    0.991   .     S
O94    S106    1.503   .     D
O95    S106    1.501   .     D
O96    S106    1.683   .     S
O96    H404    0.991   1_545 S
O97    Zn108   1.955   .     S
O98    Zn108   1.974   .     S
O99    Zn107   1.974   .     S
O100   Zn107   1.987   .     S
O101   Zn108   1.987   .     S
O102   Zn108   2.025   .     S
O103   Zn107   2.025   .     S
O104   S105    1.501   .     D
C109   O145    1.278   .     A
C109   O152    1.285   .     A
C109   C126    1.400   .     S
C110   H135    1.086   .     S
C110   C112    1.388   .     A
C110   C121    1.379   .     A
C111   C113    1.408   .     A
C111   C129    1.427   .     S
C111   C130    1.388   .     A
C112   C114    1.408   .     A
C112   C128    1.427   .     S
C113   C115    1.404   .     A
C113   S159    1.786   .     S
C114   C116    1.404   .     A
C114   S160    1.786   .     S
C115   C117    1.419   .     A
C115   C122    1.405   .     A
C116   C123    1.405   .     A
C116   C118    1.419   .     A
C117   C119    1.410   .     A
C117   C604    1.398   1_554 S
C118   C121    1.410   .     A
C118   C603    1.398   .     S
C119   C130    1.379   .     A
C119   C125    1.395   .     A
C120   O151    1.278   .     A
C120   C127    1.400   .     S
C120   O153    1.285   .     A
C121   C124    1.395   .     A
C122   H136    1.079   .     S
C122   C610    1.385   1_554 S
C123   H137    1.079   .     S
C123   C611    1.385   .     S
C124   H138    1.084   .     S
C124   C608    1.385   .     S
C125   H139    1.084   .     S
C125   C609    1.385   1_554 S
C126   C289    1.335   .     S
C126   H302    1.088   .     S
C127   C450    1.335   1_545 S
C127   H465    1.088   1_545 S
C128   O156    1.285   .     A
C128   O154    1.290   .     A
C129   O157    1.285   .     A
C129   O155    1.290   .     A
C130   H131    1.086   .     S
H132   N36     1.029   1_655 S
H133   O471    0.991   1_545 S
H134   O312    0.991   .     S
H140   C450    1.088   1_545 S
H141   C289    1.088   .     S
N143   Zn162   2.018   .     S
N143   H34     1.029   1_655 S
N143   N36     1.278   1_655 S
N144   Zn161   2.018   .     S
O145   Zn161   1.955   .     S
O146   S159    1.503   .     D
O147   S159    1.683   .     S
O147   H295    0.991   .     S
O148   S160    1.503   .     D
O149   S160    1.501   .     D
O150   S160    1.683   .     S
O150   H458    0.991   1_545 S
O151   Zn162   1.955   .     S
O152   Zn162   1.974   .     S
O153   Zn161   1.974   .     S
O154   Zn161   1.987   .     S
O155   Zn162   1.987   .     S
O156   Zn162   2.025   .     S
O157   Zn161   2.025   .     S
O158   S159    1.501   .     D
C163   O199    1.278   .     A
C163   O206    1.285   .     A
C163   C180    1.400   .     S
C164   H189    1.086   .     S
C164   C166    1.388   .     A
C164   C175    1.379   .     A
C165   C167    1.408   .     A
C165   C183    1.427   .     S
C165   C184    1.388   .     A
C166   C168    1.408   .     A
C166   C182    1.427   .     S
C167   C169    1.404   .     A
C167   S213    1.786   .     S
C168   C170    1.404   .     A
C168   S214    1.786   .     S
C169   C171    1.419   .     A
C169   C176    1.405   .     A
C170   C177    1.405   .     A
C170   C172    1.419   .     A
C171   C173    1.410   .     A
C171   C658    1.398   1_554 S
C172   C175    1.410   .     A
C172   C657    1.398   .     S
C173   C184    1.379   .     A
C173   C179    1.395   .     A
C174   O205    1.278   .     A
C174   C181    1.400   .     S
C174   O207    1.285   .     A
C175   C178    1.395   .     A
C176   H190    1.079   .     S
C176   C664    1.385   1_554 S
C177   H191    1.079   .     S
C177   C665    1.385   .     S
C178   H192    1.084   .     S
C178   C662    1.385   .     S
C179   H193    1.084   .     S
C179   C663    1.385   1_554 S
C180   C343    1.335   .     S
C180   H356    1.088   .     S
C182   O210    1.285   .     A
C182   O208    1.290   .     A
C183   O211    1.285   .     A
C183   O209    1.290   .     A
C184   H185    1.086   .     S
H186   N252    1.029   .     S
H188   O366    0.991   .     S
H195   C343    1.088   .     S
H196   N305    1.029   1_455 S
N197   Zn216   2.018   .     S
N197   H250    1.029   .     S
N197   N252    1.278   .     S
N198   Zn215   2.018   .     S
N198   N305    1.278   1_455 S
N198   H294    1.029   1_455 S
O199   Zn215   1.955   .     S
O200   S213    1.503   .     D
O201   S213    1.683   .     S
O201   H349    0.991   .     S
O202   S214    1.503   .     D
O203   S214    1.501   .     D
O204   S214    1.683   .     S
O205   Zn216   1.955   .     S
O206   Zn216   1.974   .     S
O207   Zn215   1.974   .     S
O208   Zn215   1.987   .     S
O209   Zn216   1.987   .     S
O210   Zn216   2.025   .     S
O211   Zn215   2.025   .     S
O212   S213    1.501   .     D
C217   O253    1.278   .     A
C217   O260    1.285   .     A
C217   C234    1.400   .     S
C218   H243    1.086   .     S
C218   C220    1.388   .     A
C218   C229    1.379   .     A
C219   C221    1.408   .     A
C219   C237    1.427   .     S
C219   C238    1.388   .     A
C220   C222    1.408   .     A
C220   C236    1.427   .     S
C221   C223    1.404   .     A
C221   S267    1.786   .     S
C222   C224    1.404   .     A
C222   S268    1.786   .     S
C223   C225    1.419   .     A
C223   C230    1.405   .     A
C224   C231    1.405   .     A
C224   C226    1.419   .     A
C225   C227    1.410   .     A
C225   C712    1.398   1_554 S
C226   C229    1.410   .     A
C226   C711    1.398   .     S
C227   C238    1.379   .     A
C227   C233    1.395   .     A
C228   O259    1.278   .     A
C228   C235    1.400   .     S
C228   O261    1.285   .     A
C229   C232    1.395   .     A
C230   H244    1.079   .     S
C230   C718    1.385   1_554 S
C231   H245    1.079   .     S
C231   C719    1.385   .     S
C232   H246    1.084   .     S
C232   C716    1.385   .     S
C233   H247    1.084   .     S
C233   C717    1.385   1_554 S
C234   C397    1.335   .     S
C234   H410    1.088   .     S
C236   O264    1.285   .     A
C236   O262    1.290   .     A
C237   O265    1.285   .     A
C237   O263    1.290   .     A
C238   H239    1.086   .     S
H240   N306    1.029   .     S
H242   O420    0.991   .     S
H249   C397    1.088   .     S
N251   Zn270   2.018   .     S
N251   H304    1.029   .     S
N251   N306    1.278   .     S
N252   Zn269   2.018   .     S
O253   Zn269   1.955   .     S
O254   S267    1.503   .     D
O255   S267    1.683   .     S
O255   H403    0.991   .     S
O256   S268    1.503   .     D
O257   S268    1.501   .     D
O258   S268    1.683   .     S
O259   Zn270   1.955   .     S
O260   Zn270   1.974   .     S
O261   Zn269   1.974   .     S
O262   Zn269   1.987   .     S
O263   Zn270   1.987   .     S
O264   Zn270   2.025   .     S
O265   Zn269   2.025   .     S
O266   S267    1.501   .     D
C271   O307    1.278   .     A
C271   O314    1.285   .     A
C271   C288    1.400   .     S
C272   H297    1.086   .     S
C272   C274    1.388   .     A
C272   C283    1.379   .     A
C273   C275    1.408   .     A
C273   C291    1.427   .     S
C273   C292    1.388   .     A
C274   C276    1.408   .     A
C274   C290    1.427   .     S
C275   C277    1.404   .     A
C275   S321    1.786   .     S
C276   C278    1.404   .     A
C276   S322    1.786   .     S
C277   C279    1.419   .     A
C277   C284    1.405   .     A
C278   C285    1.405   .     A
C278   C280    1.419   .     A
C279   C281    1.410   .     A
C279   C766    1.398   1_554 S
C280   C283    1.410   .     A
C280   C765    1.398   .     S
C281   C292    1.379   .     A
C281   C287    1.395   .     A
C282   O313    1.278   .     A
C282   C289    1.400   .     S
C282   O315    1.285   .     A
C283   C286    1.395   .     A
C284   H298    1.079   .     S
C284   C772    1.385   1_554 S
C285   H299    1.079   .     S
C285   C773    1.385   .     S
C286   H300    1.084   .     S
C286   C770    1.385   .     S
C287   H301    1.084   .     S
C287   C771    1.385   1_554 S
C288   C451    1.335   .     S
C288   H464    1.088   .     S
C290   O318    1.285   .     A
C290   O316    1.290   .     A
C291   O319    1.285   .     A
C291   O317    1.290   .     A
C292   H293    1.086   .     S
H294   N198    1.029   1_655 S
H296   O474    0.991   .     S
H303   C451    1.088   .     S
N305   Zn324   2.018   .     S
N305   H196    1.029   1_655 S
N305   N198    1.278   1_655 S
N306   Zn323   2.018   .     S
O307   Zn323   1.955   .     S
O308   S321    1.503   .     D
O309   S321    1.683   .     S
O309   H457    0.991   .     S
O310   S322    1.503   .     D
O311   S322    1.501   .     D
O312   S322    1.683   .     S
O313   Zn324   1.955   .     S
O314   Zn324   1.974   .     S
O315   Zn323   1.974   .     S
O316   Zn323   1.987   .     S
O317   Zn324   1.987   .     S
O318   Zn324   2.025   .     S
O319   Zn323   2.025   .     S
O320   S321    1.501   .     D
C325   O361    1.278   .     A
C325   O368    1.285   .     A
C325   C342    1.400   .     S
C326   H351    1.086   .     S
C326   C328    1.388   .     A
C326   C337    1.379   .     A
C327   C329    1.408   .     A
C327   C345    1.427   .     S
C327   C346    1.388   .     A
C328   C330    1.408   .     A
C328   C344    1.427   .     S
C329   C331    1.404   .     A
C329   S375    1.786   .     S
C330   C332    1.404   .     A
C330   S376    1.786   .     S
C331   C333    1.419   .     A
C331   C338    1.405   .     A
C332   C339    1.405   .     A
C332   C334    1.419   .     A
C333   C335    1.410   .     A
C333   C820    1.398   1_554 S
C334   C337    1.410   .     A
C334   C819    1.398   .     S
C335   C346    1.379   .     A
C335   C341    1.395   .     A
C336   O367    1.278   .     A
C336   C343    1.400   .     S
C336   O369    1.285   .     A
C337   C340    1.395   .     A
C338   H352    1.079   .     S
C338   C826    1.385   1_554 S
C339   H353    1.079   .     S
C339   C827    1.385   .     S
C340   H354    1.084   .     S
C340   C824    1.385   .     S
C341   H355    1.084   .     S
C341   C825    1.385   1_554 S
C342   C19     1.335   1_565 S
C342   H32     1.088   1_565 S
C344   O372    1.285   .     A
C344   O370    1.290   .     A
C345   O373    1.285   .     A
C345   O371    1.290   .     A
C346   H347    1.086   .     S
H348   N414    1.029   .     S
H350   O42     0.991   1_565 S
H357   C19     1.088   1_565 S
H358   N467    1.029   1_455 S
N359   Zn378   2.018   .     S
N359   H412    1.029   .     S
N359   N414    1.278   .     S
N360   Zn377   2.018   .     S
N360   N467    1.278   1_455 S
N360   H456    1.029   1_455 S
O361   Zn377   1.955   .     S
O362   S375    1.503   .     D
O363   S375    1.683   .     S
O363   H25     0.991   1_565 S
O364   S376    1.503   .     D
O365   S376    1.501   .     D
O366   S376    1.683   .     S
O367   Zn378   1.955   .     S
O368   Zn378   1.974   .     S
O369   Zn377   1.974   .     S
O370   Zn377   1.987   .     S
O371   Zn378   1.987   .     S
O372   Zn378   2.025   .     S
O373   Zn377   2.025   .     S
O374   S375    1.501   .     D
C379   O415    1.278   .     A
C379   O422    1.285   .     A
C379   C396    1.400   .     S
C380   H405    1.086   .     S
C380   C382    1.388   .     A
C380   C391    1.379   .     A
C381   C383    1.408   .     A
C381   C399    1.427   .     S
C381   C400    1.388   .     A
C382   C384    1.408   .     A
C382   C398    1.427   .     S
C383   C385    1.404   .     A
C383   S429    1.786   .     S
C384   C386    1.404   .     A
C384   S430    1.786   .     S
C385   C387    1.419   .     A
C385   C392    1.405   .     A
C386   C393    1.405   .     A
C386   C388    1.419   .     A
C387   C389    1.410   .     A
C387   C874    1.398   1_554 S
C388   C391    1.410   .     A
C388   C873    1.398   .     S
C389   C400    1.379   .     A
C389   C395    1.395   .     A
C390   O421    1.278   .     A
C390   C397    1.400   .     S
C390   O423    1.285   .     A
C391   C394    1.395   .     A
C392   H406    1.079   .     S
C392   C880    1.385   1_554 S
C393   H407    1.079   .     S
C393   C881    1.385   .     S
C394   H408    1.084   .     S
C394   C878    1.385   .     S
C395   H409    1.084   .     S
C395   C879    1.385   1_554 S
C396   C73     1.335   1_565 S
C396   H86     1.088   1_565 S
C398   O426    1.285   .     A
C398   O424    1.290   .     A
C399   O427    1.285   .     A
C399   O425    1.290   .     A
C400   H401    1.086   .     S
H402   N468    1.029   .     S
H404   O96     0.991   1_565 S
H411   C73     1.088   1_565 S
N413   Zn432   2.018   .     S
N413   H466    1.029   .     S
N413   N468    1.278   .     S
N414   Zn431   2.018   .     S
O415   Zn431   1.955   .     S
O416   S429    1.503   .     D
O417   S429    1.683   .     S
O417   H79     0.991   1_565 S
O418   S430    1.503   .     D
O419   S430    1.501   .     D
O420   S430    1.683   .     S
O421   Zn432   1.955   .     S
O422   Zn432   1.974   .     S
O423   Zn431   1.974   .     S
O424   Zn431   1.987   .     S
O425   Zn432   1.987   .     S
O426   Zn432   2.025   .     S
O427   Zn431   2.025   .     S
O428   S429    1.501   .     D
C433   O469    1.278   .     A
C433   O476    1.285   .     A
C433   C450    1.400   .     S
C434   H459    1.086   .     S
C434   C436    1.388   .     A
C434   C445    1.379   .     A
C435   C437    1.408   .     A
C435   C453    1.427   .     S
C435   C454    1.388   .     A
C436   C438    1.408   .     A
C436   C452    1.427   .     S
C437   C439    1.404   .     A
C437   S483    1.786   .     S
C438   C440    1.404   .     A
C438   S484    1.786   .     S
C439   C441    1.419   .     A
C439   C446    1.405   .     A
C440   C447    1.405   .     A
C440   C442    1.419   .     A
C441   C443    1.410   .     A
C441   C928    1.398   1_554 S
C442   C445    1.410   .     A
C442   C927    1.398   .     S
C443   C454    1.379   .     A
C443   C449    1.395   .     A
C444   O475    1.278   .     A
C444   C451    1.400   .     S
C444   O477    1.285   .     A
C445   C448    1.395   .     A
C446   H460    1.079   .     S
C446   C934    1.385   1_554 S
C447   H461    1.079   .     S
C447   C935    1.385   .     S
C448   H462    1.084   .     S
C448   C932    1.385   .     S
C449   H463    1.084   .     S
C449   C933    1.385   1_554 S
C450   C127    1.335   1_565 S
C450   H140    1.088   1_565 S
C452   O480    1.285   .     A
C452   O478    1.290   .     A
C453   O481    1.285   .     A
C453   O479    1.290   .     A
C454   H455    1.086   .     S
H456   N360    1.029   1_655 S
H458   O150    0.991   1_565 S
H465   C127    1.088   1_565 S
N467   Zn486   2.018   .     S
N467   H358    1.029   1_655 S
N467   N360    1.278   1_655 S
N468   Zn485   2.018   .     S
O469   Zn485   1.955   .     S
O470   S483    1.503   .     D
O471   S483    1.683   .     S
O471   H133    0.991   1_565 S
O472   S484    1.503   .     D
O473   S484    1.501   .     D
O474   S484    1.683   .     S
O475   Zn486   1.955   .     S
O476   Zn486   1.974   .     S
O477   Zn485   1.974   .     S
O478   Zn485   1.987   .     S
O479   Zn486   1.987   .     S
O480   Zn486   2.025   .     S
O481   Zn485   2.025   .     S
O482   S483    1.501   .     D
C487   O523    1.278   .     A
C487   O530    1.285   .     A
C487   C504    1.400   .     S
C488   H513    1.086   .     S
C488   C490    1.388   .     A
C488   C499    1.379   .     A
C489   C491    1.408   .     A
C489   C507    1.427   .     S
C489   C508    1.388   .     A
C490   C492    1.408   .     A
C490   C506    1.427   .     S
C491   C493    1.404   .     A
C491   S537    1.786   .     S
C492   C494    1.404   .     A
C492   S538    1.786   .     S
C493   C495    1.419   .     A
C493   C500    1.405   .     A
C494   C501    1.405   .     A
C494   C496    1.419   .     A
C495   C497    1.410   .     A
C496   C499    1.410   .     A
C496   C9      1.398   1_556 S
C497   C508    1.379   .     A
C497   C503    1.395   .     A
C498   O529    1.278   .     A
C498   C505    1.400   .     S
C498   O531    1.285   .     A
C499   C502    1.395   .     A
C500   H514    1.079   .     S
C501   H515    1.079   .     S
C501   C17     1.385   1_556 S
C502   H516    1.084   .     S
C502   C14     1.385   1_556 S
C503   H517    1.084   .     S
C504   C667    1.335   .     S
C504   H680    1.088   .     S
C505   C828    1.335   1_545 S
C505   H843    1.088   1_545 S
C506   O534    1.285   .     A
C506   O532    1.290   .     A
C507   O535    1.285   .     A
C507   O533    1.290   .     A
C508   H509    1.086   .     S
H510   N576    1.029   .     S
H511   O849    0.991   1_545 S
H512   O690    0.991   .     S
H518   C828    1.088   1_545 S
H519   C667    1.088   .     S
H520   N629    1.029   1_455 S
N521   Zn540   2.018   .     S
N521   H574    1.029   .     S
N521   N576    1.278   .     S
N522   Zn539   2.018   .     S
N522   N629    1.278   1_455 S
N522   H618    1.029   1_455 S
O523   Zn539   1.955   .     S
O524   S537    1.503   .     D
O525   S537    1.683   .     S
O525   H673    0.991   .     S
O526   S538    1.503   .     D
O527   S538    1.501   .     D
O528   S538    1.683   .     S
O528   H836    0.991   1_545 S
O529   Zn540   1.955   .     S
O530   Zn540   1.974   .     S
O531   Zn539   1.974   .     S
O532   Zn539   1.987   .     S
O533   Zn540   1.987   .     S
O534   Zn540   2.025   .     S
O535   Zn539   2.025   .     S
O536   S537    1.501   .     D
C541   O577    1.278   .     A
C541   O584    1.285   .     A
C541   C558    1.400   .     S
C542   H567    1.086   .     S
C542   C544    1.388   .     A
C542   C553    1.379   .     A
C543   C545    1.408   .     A
C543   C561    1.427   .     S
C543   C562    1.388   .     A
C544   C546    1.408   .     A
C544   C560    1.427   .     S
C545   C547    1.404   .     A
C545   S591    1.786   .     S
C546   C548    1.404   .     A
C546   S592    1.786   .     S
C547   C549    1.419   .     A
C547   C554    1.405   .     A
C548   C555    1.405   .     A
C548   C550    1.419   .     A
C549   C551    1.410   .     A
C550   C553    1.410   .     A
C550   C63     1.398   1_556 S
C551   C562    1.379   .     A
C551   C557    1.395   .     A
C552   O583    1.278   .     A
C552   C559    1.400   .     S
C552   O585    1.285   .     A
C553   C556    1.395   .     A
C554   H568    1.079   .     S
C555   H569    1.079   .     S
C555   C71     1.385   1_556 S
C556   H570    1.084   .     S
C556   C68     1.385   1_556 S
C557   H571    1.084   .     S
C558   C721    1.335   .     S
C558   H734    1.088   .     S
C559   C882    1.335   1_545 S
C559   H897    1.088   1_545 S
C560   O588    1.285   .     A
C560   O586    1.290   .     A
C561   O589    1.285   .     A
C561   O587    1.290   .     A
C562   H563    1.086   .     S
H564   N630    1.029   .     S
H565   O903    0.991   1_545 S
H566   O744    0.991   .     S
H572   C882    1.088   1_545 S
H573   C721    1.088   .     S
N575   Zn594   2.018   .     S
N575   H628    1.029   .     S
N575   N630    1.278   .     S
N576   Zn593   2.018   .     S
O577   Zn593   1.955   .     S
O578   S591    1.503   .     D
O579   S591    1.683   .     S
O579   H727    0.991   .     S
O580   S592    1.503   .     D
O581   S592    1.501   .     D
O582   S592    1.683   .     S
O582   H890    0.991   1_545 S
O583   Zn594   1.955   .     S
O584   Zn594   1.974   .     S
O585   Zn593   1.974   .     S
O586   Zn593   1.987   .     S
O587   Zn594   1.987   .     S
O588   Zn594   2.025   .     S
O589   Zn593   2.025   .     S
O590   S591    1.501   .     D
C595   O631    1.278   .     A
C595   O638    1.285   .     A
C595   C612    1.400   .     S
C596   H621    1.086   .     S
C596   C598    1.388   .     A
C596   C607    1.379   .     A
C597   C599    1.408   .     A
C597   C615    1.427   .     S
C597   C616    1.388   .     A
C598   C600    1.408   .     A
C598   C614    1.427   .     S
C599   C601    1.404   .     A
C599   S645    1.786   .     S
C600   C602    1.404   .     A
C600   S646    1.786   .     S
C601   C603    1.419   .     A
C601   C608    1.405   .     A
C602   C609    1.405   .     A
C602   C604    1.419   .     A
C603   C605    1.410   .     A
C604   C607    1.410   .     A
C604   C117    1.398   1_556 S
C605   C616    1.379   .     A
C605   C611    1.395   .     A
C606   O637    1.278   .     A
C606   C613    1.400   .     S
C606   O639    1.285   .     A
C607   C610    1.395   .     A
C608   H622    1.079   .     S
C609   H623    1.079   .     S
C609   C125    1.385   1_556 S
C610   H624    1.084   .     S
C610   C122    1.385   1_556 S
C611   H625    1.084   .     S
C612   C775    1.335   .     S
C612   H788    1.088   .     S
C613   C936    1.335   1_545 S
C613   H951    1.088   1_545 S
C614   O642    1.285   .     A
C614   O640    1.290   .     A
C615   O643    1.285   .     A
C615   O641    1.290   .     A
C616   H617    1.086   .     S
H618   N522    1.029   1_655 S
H619   O957    0.991   1_545 S
H620   O798    0.991   .     S
H626   C936    1.088   1_545 S
H627   C775    1.088   .     S
N629   Zn648   2.018   .     S
N629   H520    1.029   1_655 S
N629   N522    1.278   1_655 S
N630   Zn647   2.018   .     S
O631   Zn647   1.955   .     S
O632   S645    1.503   .     D
O633   S645    1.683   .     S
O633   H781    0.991   .     S
O634   S646    1.503   .     D
O635   S646    1.501   .     D
O636   S646    1.683   .     S
O636   H944    0.991   1_545 S
O637   Zn648   1.955   .     S
O638   Zn648   1.974   .     S
O639   Zn647   1.974   .     S
O640   Zn647   1.987   .     S
O641   Zn648   1.987   .     S
O642   Zn648   2.025   .     S
O643   Zn647   2.025   .     S
O644   S645    1.501   .     D
C649   O685    1.278   .     A
C649   O692    1.285   .     A
C649   C666    1.400   .     S
C650   H675    1.086   .     S
C650   C652    1.388   .     A
C650   C661    1.379   .     A
C651   C653    1.408   .     A
C651   C669    1.427   .     S
C651   C670    1.388   .     A
C652   C654    1.408   .     A
C652   C668    1.427   .     S
C653   C655    1.404   .     A
C653   S699    1.786   .     S
C654   C656    1.404   .     A
C654   S700    1.786   .     S
C655   C657    1.419   .     A
C655   C662    1.405   .     A
C656   C663    1.405   .     A
C656   C658    1.419   .     A
C657   C659    1.410   .     A
C658   C661    1.410   .     A
C658   C171    1.398   1_556 S
C659   C670    1.379   .     A
C659   C665    1.395   .     A
C660   O691    1.278   .     A
C660   C667    1.400   .     S
C660   O693    1.285   .     A
C661   C664    1.395   .     A
C662   H676    1.079   .     S
C663   H677    1.079   .     S
C663   C179    1.385   1_556 S
C664   H678    1.084   .     S
C664   C176    1.385   1_556 S
C665   H679    1.084   .     S
C666   C829    1.335   .     S
C666   H842    1.088   .     S
C668   O696    1.285   .     A
C668   O694    1.290   .     A
C669   O697    1.285   .     A
C669   O695    1.290   .     A
C670   H671    1.086   .     S
H672   N738    1.029   .     S
H674   O852    0.991   .     S
H681   C829    1.088   .     S
H682   N791    1.029   1_455 S
N683   Zn702   2.018   .     S
N683   H736    1.029   .     S
N683   N738    1.278   .     S
N684   Zn701   2.018   .     S
N684   N791    1.278   1_455 S
N684   H780    1.029   1_455 S
O685   Zn701   1.955   .     S
O686   S699    1.503   .     D
O687   S699    1.683   .     S
O687   H835    0.991   .     S
O688   S700    1.503   .     D
O689   S700    1.501   .     D
O690   S700    1.683   .     S
O691   Zn702   1.955   .     S
O692   Zn702   1.974   .     S
O693   Zn701   1.974   .     S
O694   Zn701   1.987   .     S
O695   Zn702   1.987   .     S
O696   Zn702   2.025   .     S
O697   Zn701   2.025   .     S
O698   S699    1.501   .     D
C703   O739    1.278   .     A
C703   O746    1.285   .     A
C703   C720    1.400   .     S
C704   H729    1.086   .     S
C704   C706    1.388   .     A
C704   C715    1.379   .     A
C705   C707    1.408   .     A
C705   C723    1.427   .     S
C705   C724    1.388   .     A
C706   C708    1.408   .     A
C706   C722    1.427   .     S
C707   C709    1.404   .     A
C707   S753    1.786   .     S
C708   C710    1.404   .     A
C708   S754    1.786   .     S
C709   C711    1.419   .     A
C709   C716    1.405   .     A
C710   C717    1.405   .     A
C710   C712    1.419   .     A
C711   C713    1.410   .     A
C712   C715    1.410   .     A
C712   C225    1.398   1_556 S
C713   C724    1.379   .     A
C713   C719    1.395   .     A
C714   O745    1.278   .     A
C714   C721    1.400   .     S
C714   O747    1.285   .     A
C715   C718    1.395   .     A
C716   H730    1.079   .     S
C717   H731    1.079   .     S
C717   C233    1.385   1_556 S
C718   H732    1.084   .     S
C718   C230    1.385   1_556 S
C719   H733    1.084   .     S
C720   C883    1.335   .     S
C720   H896    1.088   .     S
C722   O750    1.285   .     A
C722   O748    1.290   .     A
C723   O751    1.285   .     A
C723   O749    1.290   .     A
C724   H725    1.086   .     S
H726   N792    1.029   .     S
H728   O906    0.991   .     S
H735   C883    1.088   .     S
N737   Zn756   2.018   .     S
N737   H790    1.029   .     S
N737   N792    1.278   .     S
N738   Zn755   2.018   .     S
O739   Zn755   1.955   .     S
O740   S753    1.503   .     D
O741   S753    1.683   .     S
O741   H889    0.991   .     S
O742   S754    1.503   .     D
O743   S754    1.501   .     D
O744   S754    1.683   .     S
O745   Zn756   1.955   .     S
O746   Zn756   1.974   .     S
O747   Zn755   1.974   .     S
O748   Zn755   1.987   .     S
O749   Zn756   1.987   .     S
O750   Zn756   2.025   .     S
O751   Zn755   2.025   .     S
O752   S753    1.501   .     D
C757   O793    1.278   .     A
C757   O800    1.285   .     A
C757   C774    1.400   .     S
C758   H783    1.086   .     S
C758   C760    1.388   .     A
C758   C769    1.379   .     A
C759   C761    1.408   .     A
C759   C777    1.427   .     S
C759   C778    1.388   .     A
C760   C762    1.408   .     A
C760   C776    1.427   .     S
C761   C763    1.404   .     A
C761   S807    1.786   .     S
C762   C764    1.404   .     A
C762   S808    1.786   .     S
C763   C765    1.419   .     A
C763   C770    1.405   .     A
C764   C771    1.405   .     A
C764   C766    1.419   .     A
C765   C767    1.410   .     A
C766   C769    1.410   .     A
C766   C279    1.398   1_556 S
C767   C778    1.379   .     A
C767   C773    1.395   .     A
C768   O799    1.278   .     A
C768   C775    1.400   .     S
C768   O801    1.285   .     A
C769   C772    1.395   .     A
C770   H784    1.079   .     S
C771   H785    1.079   .     S
C771   C287    1.385   1_556 S
C772   H786    1.084   .     S
C772   C284    1.385   1_556 S
C773   H787    1.084   .     S
C774   C937    1.335   .     S
C774   H950    1.088   .     S
C776   O804    1.285   .     A
C776   O802    1.290   .     A
C777   O805    1.285   .     A
C777   O803    1.290   .     A
C778   H779    1.086   .     S
H780   N684    1.029   1_655 S
H782   O960    0.991   .     S
H789   C937    1.088   .     S
N791   Zn810   2.018   .     S
N791   H682    1.029   1_655 S
N791   N684    1.278   1_655 S
N792   Zn809   2.018   .     S
O793   Zn809   1.955   .     S
O794   S807    1.503   .     D
O795   S807    1.683   .     S
O795   H943    0.991   .     S
O796   S808    1.503   .     D
O797   S808    1.501   .     D
O798   S808    1.683   .     S
O799   Zn810   1.955   .     S
O800   Zn810   1.974   .     S
O801   Zn809   1.974   .     S
O802   Zn809   1.987   .     S
O803   Zn810   1.987   .     S
O804   Zn810   2.025   .     S
O805   Zn809   2.025   .     S
O806   S807    1.501   .     D
C811   O847    1.278   .     A
C811   O854    1.285   .     A
C811   C828    1.400   .     S
C812   H837    1.086   .     S
C812   C814    1.388   .     A
C812   C823    1.379   .     A
C813   C815    1.408   .     A
C813   C831    1.427   .     S
C813   C832    1.388   .     A
C814   C816    1.408   .     A
C814   C830    1.427   .     S
C815   C817    1.404   .     A
C815   S861    1.786   .     S
C816   C818    1.404   .     A
C816   S862    1.786   .     S
C817   C819    1.419   .     A
C817   C824    1.405   .     A
C818   C825    1.405   .     A
C818   C820    1.419   .     A
C819   C821    1.410   .     A
C820   C823    1.410   .     A
C820   C333    1.398   1_556 S
C821   C832    1.379   .     A
C821   C827    1.395   .     A
C822   O853    1.278   .     A
C822   C829    1.400   .     S
C822   O855    1.285   .     A
C823   C826    1.395   .     A
C824   H838    1.079   .     S
C825   H839    1.079   .     S
C825   C341    1.385   1_556 S
C826   H840    1.084   .     S
C826   C338    1.385   1_556 S
C827   H841    1.084   .     S
C828   C505    1.335   1_565 S
C828   H518    1.088   1_565 S
C830   O858    1.285   .     A
C830   O856    1.290   .     A
C831   O859    1.285   .     A
C831   O857    1.290   .     A
C832   H833    1.086   .     S
H834   N900    1.029   .     S
H836   O528    0.991   1_565 S
H843   C505    1.088   1_565 S
H844   N953    1.029   1_455 S
N845   Zn864   2.018   .     S
N845   H898    1.029   .     S
N845   N900    1.278   .     S
N846   Zn863   2.018   .     S
N846   N953    1.278   1_455 S
N846   H942    1.029   1_455 S
O847   Zn863   1.955   .     S
O848   S861    1.503   .     D
O849   S861    1.683   .     S
O849   H511    0.991   1_565 S
O850   S862    1.503   .     D
O851   S862    1.501   .     D
O852   S862    1.683   .     S
O853   Zn864   1.955   .     S
O854   Zn864   1.974   .     S
O855   Zn863   1.974   .     S
O856   Zn863   1.987   .     S
O857   Zn864   1.987   .     S
O858   Zn864   2.025   .     S
O859   Zn863   2.025   .     S
O860   S861    1.501   .     D
C865   O901    1.278   .     A
C865   O908    1.285   .     A
C865   C882    1.400   .     S
C866   H891    1.086   .     S
C866   C868    1.388   .     A
C866   C877    1.379   .     A
C867   C869    1.408   .     A
C867   C885    1.427   .     S
C867   C886    1.388   .     A
C868   C870    1.408   .     A
C868   C884    1.427   .     S
C869   C871    1.404   .     A
C869   S915    1.786   .     S
C870   C872    1.404   .     A
C870   S916    1.786   .     S
C871   C873    1.419   .     A
C871   C878    1.405   .     A
C872   C879    1.405   .     A
C872   C874    1.419   .     A
C873   C875    1.410   .     A
C874   C877    1.410   .     A
C874   C387    1.398   1_556 S
C875   C886    1.379   .     A
C875   C881    1.395   .     A
C876   O907    1.278   .     A
C876   C883    1.400   .     S
C876   O909    1.285   .     A
C877   C880    1.395   .     A
C878   H892    1.079   .     S
C879   H893    1.079   .     S
C879   C395    1.385   1_556 S
C880   H894    1.084   .     S
C880   C392    1.385   1_556 S
C881   H895    1.084   .     S
C882   C559    1.335   1_565 S
C882   H572    1.088   1_565 S
C884   O912    1.285   .     A
C884   O910    1.290   .     A
C885   O913    1.285   .     A
C885   O911    1.290   .     A
C886   H887    1.086   .     S
H888   N954    1.029   .     S
H890   O582    0.991   1_565 S
H897   C559    1.088   1_565 S
N899   Zn918   2.018   .     S
N899   H952    1.029   .     S
N899   N954    1.278   .     S
N900   Zn917   2.018   .     S
O901   Zn917   1.955   .     S
O902   S915    1.503   .     D
O903   S915    1.683   .     S
O903   H565    0.991   1_565 S
O904   S916    1.503   .     D
O905   S916    1.501   .     D
O906   S916    1.683   .     S
O907   Zn918   1.955   .     S
O908   Zn918   1.974   .     S
O909   Zn917   1.974   .     S
O910   Zn917   1.987   .     S
O911   Zn918   1.987   .     S
O912   Zn918   2.025   .     S
O913   Zn917   2.025   .     S
O914   S915    1.501   .     D
C919   O955    1.278   .     A
C919   O962    1.285   .     A
C919   C936    1.400   .     S
C920   H945    1.086   .     S
C920   C922    1.388   .     A
C920   C931    1.379   .     A
C921   C923    1.408   .     A
C921   C939    1.427   .     S
C921   C940    1.388   .     A
C922   C924    1.408   .     A
C922   C938    1.427   .     S
C923   C925    1.404   .     A
C923   S969    1.786   .     S
C924   C926    1.404   .     A
C924   S970    1.786   .     S
C925   C927    1.419   .     A
C925   C932    1.405   .     A
C926   C933    1.405   .     A
C926   C928    1.419   .     A
C927   C929    1.410   .     A
C928   C931    1.410   .     A
C928   C441    1.398   1_556 S
C929   C940    1.379   .     A
C929   C935    1.395   .     A
C930   O961    1.278   .     A
C930   C937    1.400   .     S
C930   O963    1.285   .     A
C931   C934    1.395   .     A
C932   H946    1.079   .     S
C933   H947    1.079   .     S
C933   C449    1.385   1_556 S
C934   H948    1.084   .     S
C934   C446    1.385   1_556 S
C935   H949    1.084   .     S
C936   C613    1.335   1_565 S
C936   H626    1.088   1_565 S
C938   O966    1.285   .     A
C938   O964    1.290   .     A
C939   O967    1.285   .     A
C939   O965    1.290   .     A
C940   H941    1.086   .     S
H942   N846    1.029   1_655 S
H944   O636    0.991   1_565 S
H951   C613    1.088   1_565 S
N953   Zn972   2.018   .     S
N953   H844    1.029   1_655 S
N953   N846    1.278   1_655 S
N954   Zn971   2.018   .     S
O955   Zn971   1.955   .     S
O956   S969    1.503   .     D
O957   S969    1.683   .     S
O957   H619    0.991   1_565 S
O958   S970    1.503   .     D
O959   S970    1.501   .     D
O960   S970    1.683   .     S
O961   Zn972   1.955   .     S
O962   Zn972   1.974   .     S
O963   Zn971   1.974   .     S
O964   Zn971   1.987   .     S
O965   Zn972   1.987   .     S
O966   Zn972   2.025   .     S
O967   Zn971   2.025   .     S
O968   S969    1.501   .     D
