data_str_m3_o5_o17_pcu_sym.49
_audit_creation_date              2020-01-03
_audit_creation_method            'Materials Studio'
_symmetry_space_group_name_H-M    'P1'
_symmetry_Int_Tables_number       1
_symmetry_cell_setting            triclinic
loop_
_symmetry_equiv_pos_as_xyz
  x,y,z
_cell_length_a                    29.9311
_cell_length_b                    26.9627
_cell_length_c                    24.3616
_cell_angle_alpha                 89.8286
_cell_angle_beta                  90.3363
_cell_angle_gamma                 90.1315
loop_
_atom_site_label
_atom_site_type_symbol
_atom_site_fract_x
_atom_site_fract_y
_atom_site_fract_z
_atom_site_U_iso_or_equiv
_atom_site_adp_type
_atom_site_occupancy
O1     O     0.25000   0.09512   0.21228   0.00000  Uiso   1.00
O2     O     0.25000   0.23822   0.12105   0.00000  Uiso   1.00
O3     O     0.25000   0.23822   0.21228   0.00000  Uiso   1.00
O4     O     0.25000   0.09512   0.12105   0.00000  Uiso   1.00
C5     C     0.24993   0.07265   0.16673   0.00000  Uiso   1.00
C6     C     0.24994   0.26068   0.16660   0.00000  Uiso   1.00
O7     O     0.18393   0.16667   0.21230   0.00000  Uiso   1.00
O8     O     0.31608   0.16667   0.12104   0.00000  Uiso   1.00
O9     O     0.31608   0.16667   0.21230   0.00000  Uiso   1.00
O10    O     0.18393   0.16667   0.12104   0.00000  Uiso   1.00
C11    C     0.16340   0.16641   0.16649   0.00000  Uiso   1.00
C12    C     0.33668   0.16763   0.16681   0.00000  Uiso   1.00
Zn13   Zn    0.25000   0.16667   0.22759   0.00000  Uiso   1.00
Zn14   Zn    0.25000   0.16667   0.10574   0.00000  Uiso   1.00
N15    N     0.25000   0.16667   0.02455   0.00000  Uiso   1.00
N16    N     0.25000   0.16667   0.30879   0.00000  Uiso   1.00
C17    C     0.40691   0.21198   0.15385   0.00000  Uiso   1.00
C18    C     0.09316   0.12133   0.16443   0.00000  Uiso   1.00
C19    C     0.40667   0.12365   0.17926   0.00000  Uiso   1.00
C20    C     0.09350   0.21158   0.16550   0.00000  Uiso   1.00
C21    C     0.38436   0.16789   0.16690   0.00000  Uiso   1.00
C22    C     0.11588   0.16641   0.16588   0.00000  Uiso   1.00
C23    C     0.45333   0.12244   0.17611   0.00000  Uiso   1.00
C24    C     0.04725   0.21154   0.15759   0.00000  Uiso   1.00
C25    C     0.45370   0.21181   0.15319   0.00000  Uiso   1.00
C26    C     0.04679   0.12146   0.17050   0.00000  Uiso   1.00
C27    C     0.47674   0.16690   0.16418   0.00000  Uiso   1.00
C28    C     0.02352   0.16661   0.16397   0.00000  Uiso   1.00
C29    C     0.47729   0.07823   0.18549   0.00000  Uiso   1.00
C30    C     0.02446   0.25496   0.14366   0.00000  Uiso   1.00
C31    C     0.47822   0.25520   0.14127   0.00000  Uiso   1.00
C32    C     0.02348   0.07792   0.18277   0.00000  Uiso   1.00
C33    C     0.24968   0.02169   0.16678   0.00000  Uiso   1.00
C34    C     0.24969   0.31163   0.16657   0.00000  Uiso   1.00
F35    F     0.45658   0.03498   0.19807   0.00000  Uiso   1.00
F36    F     0.04703   0.29639   0.12843   0.00000  Uiso   1.00
F37    F     0.45806   0.29798   0.12597   0.00000  Uiso   1.00
F38    F     0.04553   0.03575   0.19638   0.00000  Uiso   1.00
O39    O     0.38361   0.25639   0.15191   0.00000  Uiso   1.00
C40    C     0.37017   0.26725   0.09744   0.00000  Uiso   1.00
H41    H     0.34016   0.24544   0.08621   0.00000  Uiso   1.00
H42    H     0.39683   0.25958   0.06684   0.00000  Uiso   1.00
C43    C     0.35767   0.32191   0.09381   0.00000  Uiso   1.00
H44    H     0.38815   0.01204   0.09208   0.00000  Uiso   1.00
H45    H     0.33707   0.32871   0.05661   0.00000  Uiso   1.00
H46    H     0.33796   0.33284   0.13018   0.00000  Uiso   1.00
O47    O     0.11664   0.07790   0.15581   0.00000  Uiso   1.00
C48    C     0.11246   0.06545   0.09960   0.00000  Uiso   1.00
H49    H     0.11943   0.09783   0.07226   0.00000  Uiso   1.00
H50    H     0.07822   0.05135   0.09066   0.00000  Uiso   1.00
C51    C     0.14576   0.02511   0.08542   0.00000  Uiso   1.00
H52    H     0.14181   0.32620   0.11318   0.00000  Uiso   1.00
H53    H     0.14003   0.01266   0.04267   0.00000  Uiso   1.00
H54    H     0.18028   0.03969   0.08889   0.00000  Uiso   1.00
O55    O     0.38219   0.08088   0.18935   0.00000  Uiso   1.00
C56    C     0.37794   0.07395   0.24668   0.00000  Uiso   1.00
H57    H     0.35419   0.10105   0.26426   0.00000  Uiso   1.00
H58    H     0.41047   0.07786   0.26877   0.00000  Uiso   1.00
C59    C     0.36003   0.02204   0.25745   0.00000  Uiso   1.00
H60    H     0.38253   0.32723   0.23932   0.00000  Uiso   1.00
H61    H     0.35804   0.01548   0.30222   0.00000  Uiso   1.00
H62    H     0.32619   0.01793   0.23923   0.00000  Uiso   1.00
O63    O     0.11728   0.25504   0.17365   0.00000  Uiso   1.00
C64    C     0.11207   0.26938   0.22908   0.00000  Uiso   1.00
H65    H     0.11711   0.23769   0.25805   0.00000  Uiso   1.00
H66    H     0.07814   0.28497   0.23548   0.00000  Uiso   1.00
C67    C     0.14639   0.30892   0.24354   0.00000  Uiso   1.00
H68    H     0.14612   0.00571   0.21260   0.00000  Uiso   1.00
H69    H     0.13850   0.32497   0.28411   0.00000  Uiso   1.00
H70    H     0.18018   0.29230   0.24554   0.00000  Uiso   1.00
O71    O     0.75000   0.09512   0.21228   0.00000  Uiso   1.00
O72    O     0.75000   0.23822   0.12105   0.00000  Uiso   1.00
O73    O     0.75000   0.23822   0.21228   0.00000  Uiso   1.00
O74    O     0.75000   0.09512   0.12105   0.00000  Uiso   1.00
C75    C     0.74993   0.07265   0.16673   0.00000  Uiso   1.00
C76    C     0.74994   0.26068   0.16660   0.00000  Uiso   1.00
O77    O     0.68393   0.16667   0.21230   0.00000  Uiso   1.00
O78    O     0.81608   0.16667   0.12104   0.00000  Uiso   1.00
O79    O     0.81608   0.16667   0.21230   0.00000  Uiso   1.00
O80    O     0.68393   0.16667   0.12104   0.00000  Uiso   1.00
C81    C     0.66340   0.16641   0.16649   0.00000  Uiso   1.00
C82    C     0.83668   0.16763   0.16681   0.00000  Uiso   1.00
Zn83   Zn    0.75000   0.16667   0.22759   0.00000  Uiso   1.00
Zn84   Zn    0.75000   0.16667   0.10574   0.00000  Uiso   1.00
N85    N     0.75000   0.16667   0.02455   0.00000  Uiso   1.00
N86    N     0.75000   0.16667   0.30879   0.00000  Uiso   1.00
C87    C     0.90691   0.21198   0.15385   0.00000  Uiso   1.00
C88    C     0.59316   0.12133   0.16443   0.00000  Uiso   1.00
C89    C     0.90667   0.12365   0.17926   0.00000  Uiso   1.00
C90    C     0.59350   0.21158   0.16550   0.00000  Uiso   1.00
C91    C     0.88436   0.16789   0.16690   0.00000  Uiso   1.00
C92    C     0.61588   0.16641   0.16588   0.00000  Uiso   1.00
C93    C     0.95333   0.12244   0.17611   0.00000  Uiso   1.00
C94    C     0.54725   0.21154   0.15759   0.00000  Uiso   1.00
C95    C     0.95370   0.21181   0.15319   0.00000  Uiso   1.00
C96    C     0.54679   0.12146   0.17050   0.00000  Uiso   1.00
C97    C     0.97674   0.16690   0.16418   0.00000  Uiso   1.00
C98    C     0.52352   0.16661   0.16397   0.00000  Uiso   1.00
C99    C     0.97729   0.07823   0.18549   0.00000  Uiso   1.00
C100   C     0.52446   0.25496   0.14366   0.00000  Uiso   1.00
C101   C     0.97822   0.25520   0.14127   0.00000  Uiso   1.00
C102   C     0.52348   0.07792   0.18277   0.00000  Uiso   1.00
C103   C     0.74968   0.02169   0.16678   0.00000  Uiso   1.00
C104   C     0.74969   0.31163   0.16657   0.00000  Uiso   1.00
F105   F     0.95658   0.03498   0.19807   0.00000  Uiso   1.00
F106   F     0.54703   0.29639   0.12843   0.00000  Uiso   1.00
F107   F     0.95806   0.29798   0.12597   0.00000  Uiso   1.00
F108   F     0.54553   0.03575   0.19638   0.00000  Uiso   1.00
O109   O     0.88361   0.25639   0.15191   0.00000  Uiso   1.00
C110   C     0.87017   0.26725   0.09744   0.00000  Uiso   1.00
H111   H     0.84016   0.24544   0.08621   0.00000  Uiso   1.00
H112   H     0.89683   0.25958   0.06684   0.00000  Uiso   1.00
C113   C     0.85767   0.32191   0.09381   0.00000  Uiso   1.00
H114   H     0.88815   0.01204   0.09208   0.00000  Uiso   1.00
H115   H     0.83707   0.32871   0.05661   0.00000  Uiso   1.00
H116   H     0.83796   0.33284   0.13018   0.00000  Uiso   1.00
O117   O     0.61664   0.07790   0.15581   0.00000  Uiso   1.00
C118   C     0.61246   0.06545   0.09960   0.00000  Uiso   1.00
H119   H     0.61943   0.09783   0.07226   0.00000  Uiso   1.00
H120   H     0.57822   0.05135   0.09066   0.00000  Uiso   1.00
C121   C     0.64576   0.02511   0.08542   0.00000  Uiso   1.00
H122   H     0.64181   0.32620   0.11318   0.00000  Uiso   1.00
H123   H     0.64003   0.01266   0.04267   0.00000  Uiso   1.00
H124   H     0.68028   0.03969   0.08889   0.00000  Uiso   1.00
O125   O     0.88219   0.08088   0.18935   0.00000  Uiso   1.00
C126   C     0.87794   0.07395   0.24668   0.00000  Uiso   1.00
H127   H     0.85419   0.10105   0.26426   0.00000  Uiso   1.00
H128   H     0.91047   0.07786   0.26877   0.00000  Uiso   1.00
C129   C     0.86003   0.02204   0.25745   0.00000  Uiso   1.00
H130   H     0.88253   0.32723   0.23932   0.00000  Uiso   1.00
H131   H     0.85804   0.01548   0.30222   0.00000  Uiso   1.00
H132   H     0.82619   0.01793   0.23923   0.00000  Uiso   1.00
O133   O     0.61728   0.25504   0.17365   0.00000  Uiso   1.00
C134   C     0.61207   0.26938   0.22908   0.00000  Uiso   1.00
H135   H     0.61711   0.23769   0.25805   0.00000  Uiso   1.00
H136   H     0.57814   0.28497   0.23548   0.00000  Uiso   1.00
C137   C     0.64639   0.30892   0.24354   0.00000  Uiso   1.00
H138   H     0.64612   0.00571   0.21260   0.00000  Uiso   1.00
H139   H     0.63850   0.32497   0.28411   0.00000  Uiso   1.00
H140   H     0.68018   0.29230   0.24554   0.00000  Uiso   1.00
O141   O     0.25000   0.42845   0.21228   0.00000  Uiso   1.00
O142   O     0.25000   0.57155   0.12105   0.00000  Uiso   1.00
O143   O     0.25000   0.57155   0.21228   0.00000  Uiso   1.00
O144   O     0.25000   0.42845   0.12105   0.00000  Uiso   1.00
C145   C     0.24993   0.40598   0.16673   0.00000  Uiso   1.00
C146   C     0.24994   0.59402   0.16660   0.00000  Uiso   1.00
O147   O     0.18393   0.50000   0.21230   0.00000  Uiso   1.00
O148   O     0.31608   0.50000   0.12104   0.00000  Uiso   1.00
O149   O     0.31608   0.50000   0.21230   0.00000  Uiso   1.00
O150   O     0.18393   0.50000   0.12104   0.00000  Uiso   1.00
C151   C     0.16340   0.49974   0.16649   0.00000  Uiso   1.00
C152   C     0.33668   0.50096   0.16681   0.00000  Uiso   1.00
Zn153  Zn    0.25000   0.50000   0.22759   0.00000  Uiso   1.00
Zn154  Zn    0.25000   0.50000   0.10574   0.00000  Uiso   1.00
N155   N     0.25000   0.50000   0.02455   0.00000  Uiso   1.00
N156   N     0.25000   0.50000   0.30879   0.00000  Uiso   1.00
C157   C     0.40691   0.54531   0.15385   0.00000  Uiso   1.00
C158   C     0.09316   0.45466   0.16443   0.00000  Uiso   1.00
C159   C     0.40667   0.45698   0.17926   0.00000  Uiso   1.00
C160   C     0.09350   0.54491   0.16550   0.00000  Uiso   1.00
C161   C     0.38436   0.50122   0.16690   0.00000  Uiso   1.00
C162   C     0.11588   0.49975   0.16588   0.00000  Uiso   1.00
C163   C     0.45333   0.45577   0.17611   0.00000  Uiso   1.00
C164   C     0.04725   0.54488   0.15759   0.00000  Uiso   1.00
C165   C     0.45370   0.54515   0.15319   0.00000  Uiso   1.00
C166   C     0.04679   0.45480   0.17050   0.00000  Uiso   1.00
C167   C     0.47674   0.50023   0.16418   0.00000  Uiso   1.00
C168   C     0.02352   0.49994   0.16397   0.00000  Uiso   1.00
C169   C     0.47729   0.41156   0.18549   0.00000  Uiso   1.00
C170   C     0.02446   0.58830   0.14366   0.00000  Uiso   1.00
C171   C     0.47822   0.58854   0.14127   0.00000  Uiso   1.00
C172   C     0.02348   0.41125   0.18277   0.00000  Uiso   1.00
C173   C     0.24968   0.35503   0.16678   0.00000  Uiso   1.00
C174   C     0.24969   0.64497   0.16657   0.00000  Uiso   1.00
F175   F     0.45658   0.36831   0.19807   0.00000  Uiso   1.00
F176   F     0.04703   0.62972   0.12843   0.00000  Uiso   1.00
F177   F     0.45806   0.63131   0.12597   0.00000  Uiso   1.00
F178   F     0.04553   0.36909   0.19638   0.00000  Uiso   1.00
O179   O     0.38361   0.58973   0.15191   0.00000  Uiso   1.00
C180   C     0.37017   0.60059   0.09744   0.00000  Uiso   1.00
H181   H     0.34016   0.57877   0.08621   0.00000  Uiso   1.00
H182   H     0.39683   0.59292   0.06684   0.00000  Uiso   1.00
C183   C     0.35767   0.65524   0.09381   0.00000  Uiso   1.00
H184   H     0.38815   0.34538   0.09208   0.00000  Uiso   1.00
H185   H     0.33707   0.66204   0.05661   0.00000  Uiso   1.00
H186   H     0.33796   0.66617   0.13018   0.00000  Uiso   1.00
O187   O     0.11664   0.41124   0.15581   0.00000  Uiso   1.00
C188   C     0.11246   0.39878   0.09960   0.00000  Uiso   1.00
H189   H     0.11943   0.43116   0.07226   0.00000  Uiso   1.00
H190   H     0.07822   0.38468   0.09066   0.00000  Uiso   1.00
C191   C     0.14576   0.35844   0.08542   0.00000  Uiso   1.00
H192   H     0.14181   0.65954   0.11318   0.00000  Uiso   1.00
H193   H     0.14003   0.34600   0.04267   0.00000  Uiso   1.00
H194   H     0.18028   0.37303   0.08889   0.00000  Uiso   1.00
O195   O     0.38219   0.41422   0.18935   0.00000  Uiso   1.00
C196   C     0.37794   0.40729   0.24668   0.00000  Uiso   1.00
H197   H     0.35419   0.43438   0.26426   0.00000  Uiso   1.00
H198   H     0.41047   0.41119   0.26877   0.00000  Uiso   1.00
C199   C     0.36003   0.35537   0.25745   0.00000  Uiso   1.00
H200   H     0.38253   0.66056   0.23932   0.00000  Uiso   1.00
H201   H     0.35804   0.34882   0.30222   0.00000  Uiso   1.00
H202   H     0.32619   0.35127   0.23923   0.00000  Uiso   1.00
O203   O     0.11728   0.58838   0.17365   0.00000  Uiso   1.00
C204   C     0.11207   0.60272   0.22908   0.00000  Uiso   1.00
H205   H     0.11711   0.57102   0.25805   0.00000  Uiso   1.00
H206   H     0.07814   0.61830   0.23548   0.00000  Uiso   1.00
C207   C     0.14639   0.64225   0.24354   0.00000  Uiso   1.00
H208   H     0.14612   0.33904   0.21260   0.00000  Uiso   1.00
H209   H     0.13850   0.65830   0.28411   0.00000  Uiso   1.00
H210   H     0.18018   0.62563   0.24554   0.00000  Uiso   1.00
O211   O     0.75000   0.42845   0.21228   0.00000  Uiso   1.00
O212   O     0.75000   0.57155   0.12105   0.00000  Uiso   1.00
O213   O     0.75000   0.57155   0.21228   0.00000  Uiso   1.00
O214   O     0.75000   0.42845   0.12105   0.00000  Uiso   1.00
C215   C     0.74993   0.40598   0.16673   0.00000  Uiso   1.00
C216   C     0.74994   0.59402   0.16660   0.00000  Uiso   1.00
O217   O     0.68393   0.50000   0.21230   0.00000  Uiso   1.00
O218   O     0.81608   0.50000   0.12104   0.00000  Uiso   1.00
O219   O     0.81608   0.50000   0.21230   0.00000  Uiso   1.00
O220   O     0.68393   0.50000   0.12104   0.00000  Uiso   1.00
C221   C     0.66340   0.49974   0.16649   0.00000  Uiso   1.00
C222   C     0.83668   0.50096   0.16681   0.00000  Uiso   1.00
Zn223  Zn    0.75000   0.50000   0.22759   0.00000  Uiso   1.00
Zn224  Zn    0.75000   0.50000   0.10574   0.00000  Uiso   1.00
N225   N     0.75000   0.50000   0.02455   0.00000  Uiso   1.00
N226   N     0.75000   0.50000   0.30879   0.00000  Uiso   1.00
C227   C     0.90691   0.54531   0.15385   0.00000  Uiso   1.00
C228   C     0.59316   0.45466   0.16443   0.00000  Uiso   1.00
C229   C     0.90667   0.45698   0.17926   0.00000  Uiso   1.00
C230   C     0.59350   0.54491   0.16550   0.00000  Uiso   1.00
C231   C     0.88436   0.50122   0.16690   0.00000  Uiso   1.00
C232   C     0.61588   0.49975   0.16588   0.00000  Uiso   1.00
C233   C     0.95333   0.45577   0.17611   0.00000  Uiso   1.00
C234   C     0.54725   0.54488   0.15759   0.00000  Uiso   1.00
C235   C     0.95370   0.54515   0.15319   0.00000  Uiso   1.00
C236   C     0.54679   0.45480   0.17050   0.00000  Uiso   1.00
C237   C     0.97674   0.50023   0.16418   0.00000  Uiso   1.00
C238   C     0.52352   0.49994   0.16397   0.00000  Uiso   1.00
C239   C     0.97729   0.41156   0.18549   0.00000  Uiso   1.00
C240   C     0.52446   0.58830   0.14366   0.00000  Uiso   1.00
C241   C     0.97822   0.58854   0.14127   0.00000  Uiso   1.00
C242   C     0.52348   0.41125   0.18277   0.00000  Uiso   1.00
C243   C     0.74968   0.35503   0.16678   0.00000  Uiso   1.00
C244   C     0.74969   0.64497   0.16657   0.00000  Uiso   1.00
F245   F     0.95658   0.36831   0.19807   0.00000  Uiso   1.00
F246   F     0.54703   0.62972   0.12843   0.00000  Uiso   1.00
F247   F     0.95806   0.63131   0.12597   0.00000  Uiso   1.00
F248   F     0.54553   0.36909   0.19638   0.00000  Uiso   1.00
O249   O     0.88361   0.58973   0.15191   0.00000  Uiso   1.00
C250   C     0.87017   0.60059   0.09744   0.00000  Uiso   1.00
H251   H     0.84016   0.57877   0.08621   0.00000  Uiso   1.00
H252   H     0.89683   0.59292   0.06684   0.00000  Uiso   1.00
C253   C     0.85767   0.65524   0.09381   0.00000  Uiso   1.00
H254   H     0.88815   0.34538   0.09208   0.00000  Uiso   1.00
H255   H     0.83707   0.66204   0.05661   0.00000  Uiso   1.00
H256   H     0.83796   0.66617   0.13018   0.00000  Uiso   1.00
O257   O     0.61664   0.41124   0.15581   0.00000  Uiso   1.00
C258   C     0.61246   0.39878   0.09960   0.00000  Uiso   1.00
H259   H     0.61943   0.43116   0.07226   0.00000  Uiso   1.00
H260   H     0.57822   0.38468   0.09066   0.00000  Uiso   1.00
C261   C     0.64576   0.35844   0.08542   0.00000  Uiso   1.00
H262   H     0.64181   0.65954   0.11318   0.00000  Uiso   1.00
H263   H     0.64003   0.34600   0.04267   0.00000  Uiso   1.00
H264   H     0.68028   0.37303   0.08889   0.00000  Uiso   1.00
O265   O     0.88219   0.41422   0.18935   0.00000  Uiso   1.00
C266   C     0.87794   0.40729   0.24668   0.00000  Uiso   1.00
H267   H     0.85419   0.43438   0.26426   0.00000  Uiso   1.00
H268   H     0.91047   0.41119   0.26877   0.00000  Uiso   1.00
C269   C     0.86003   0.35537   0.25745   0.00000  Uiso   1.00
H270   H     0.88253   0.66056   0.23932   0.00000  Uiso   1.00
H271   H     0.85804   0.34882   0.30222   0.00000  Uiso   1.00
H272   H     0.82619   0.35127   0.23923   0.00000  Uiso   1.00
O273   O     0.61728   0.58838   0.17365   0.00000  Uiso   1.00
C274   C     0.61207   0.60272   0.22908   0.00000  Uiso   1.00
H275   H     0.61711   0.57102   0.25805   0.00000  Uiso   1.00
H276   H     0.57814   0.61830   0.23548   0.00000  Uiso   1.00
C277   C     0.64639   0.64225   0.24354   0.00000  Uiso   1.00
H278   H     0.64612   0.33904   0.21260   0.00000  Uiso   1.00
H279   H     0.63850   0.65830   0.28411   0.00000  Uiso   1.00
H280   H     0.68018   0.62563   0.24554   0.00000  Uiso   1.00
O281   O     0.25000   0.76178   0.21228   0.00000  Uiso   1.00
O282   O     0.25000   0.90488   0.12105   0.00000  Uiso   1.00
O283   O     0.25000   0.90488   0.21228   0.00000  Uiso   1.00
O284   O     0.25000   0.76178   0.12105   0.00000  Uiso   1.00
C285   C     0.24993   0.73932   0.16673   0.00000  Uiso   1.00
C286   C     0.24994   0.92735   0.16660   0.00000  Uiso   1.00
O287   O     0.18393   0.83333   0.21230   0.00000  Uiso   1.00
O288   O     0.31608   0.83333   0.12104   0.00000  Uiso   1.00
O289   O     0.31608   0.83333   0.21230   0.00000  Uiso   1.00
O290   O     0.18393   0.83333   0.12104   0.00000  Uiso   1.00
C291   C     0.16340   0.83308   0.16649   0.00000  Uiso   1.00
C292   C     0.33668   0.83430   0.16681   0.00000  Uiso   1.00
Zn293  Zn    0.25000   0.83333   0.22759   0.00000  Uiso   1.00
Zn294  Zn    0.25000   0.83333   0.10574   0.00000  Uiso   1.00
N295   N     0.25000   0.83333   0.02455   0.00000  Uiso   1.00
N296   N     0.25000   0.83333   0.30879   0.00000  Uiso   1.00
C297   C     0.40691   0.87864   0.15385   0.00000  Uiso   1.00
C298   C     0.09316   0.78799   0.16443   0.00000  Uiso   1.00
C299   C     0.40667   0.79031   0.17926   0.00000  Uiso   1.00
C300   C     0.09350   0.87824   0.16550   0.00000  Uiso   1.00
C301   C     0.38436   0.83455   0.16690   0.00000  Uiso   1.00
C302   C     0.11588   0.83308   0.16588   0.00000  Uiso   1.00
C303   C     0.45333   0.78910   0.17611   0.00000  Uiso   1.00
C304   C     0.04725   0.87821   0.15759   0.00000  Uiso   1.00
C305   C     0.45370   0.87848   0.15319   0.00000  Uiso   1.00
C306   C     0.04679   0.78813   0.17050   0.00000  Uiso   1.00
C307   C     0.47674   0.83357   0.16418   0.00000  Uiso   1.00
C308   C     0.02352   0.83328   0.16397   0.00000  Uiso   1.00
C309   C     0.47729   0.74489   0.18549   0.00000  Uiso   1.00
C310   C     0.02446   0.92163   0.14366   0.00000  Uiso   1.00
C311   C     0.47822   0.92187   0.14127   0.00000  Uiso   1.00
C312   C     0.02348   0.74459   0.18277   0.00000  Uiso   1.00
C313   C     0.24968   0.68836   0.16678   0.00000  Uiso   1.00
C314   C     0.24969   0.97830   0.16657   0.00000  Uiso   1.00
F315   F     0.45658   0.70164   0.19807   0.00000  Uiso   1.00
F316   F     0.04703   0.96305   0.12843   0.00000  Uiso   1.00
F317   F     0.45806   0.96465   0.12597   0.00000  Uiso   1.00
F318   F     0.04553   0.70242   0.19638   0.00000  Uiso   1.00
O319   O     0.38361   0.92306   0.15191   0.00000  Uiso   1.00
C320   C     0.37017   0.93392   0.09744   0.00000  Uiso   1.00
H321   H     0.34016   0.91210   0.08621   0.00000  Uiso   1.00
H322   H     0.39683   0.92625   0.06684   0.00000  Uiso   1.00
C323   C     0.35767   0.98858   0.09381   0.00000  Uiso   1.00
H324   H     0.38815   0.67871   0.09208   0.00000  Uiso   1.00
H325   H     0.33707   0.99537   0.05661   0.00000  Uiso   1.00
H326   H     0.33796   0.99951   0.13018   0.00000  Uiso   1.00
O327   O     0.11664   0.74457   0.15581   0.00000  Uiso   1.00
C328   C     0.11246   0.73211   0.09960   0.00000  Uiso   1.00
H329   H     0.11943   0.76450   0.07226   0.00000  Uiso   1.00
H330   H     0.07822   0.71802   0.09066   0.00000  Uiso   1.00
C331   C     0.14576   0.69178   0.08542   0.00000  Uiso   1.00
H332   H     0.14181   0.99287   0.11318   0.00000  Uiso   1.00
H333   H     0.14003   0.67933   0.04267   0.00000  Uiso   1.00
H334   H     0.18028   0.70636   0.08889   0.00000  Uiso   1.00
O335   O     0.38219   0.74755   0.18935   0.00000  Uiso   1.00
C336   C     0.37794   0.74062   0.24668   0.00000  Uiso   1.00
H337   H     0.35419   0.76771   0.26426   0.00000  Uiso   1.00
H338   H     0.41047   0.74452   0.26877   0.00000  Uiso   1.00
C339   C     0.36003   0.68871   0.25745   0.00000  Uiso   1.00
H340   H     0.38253   0.99389   0.23932   0.00000  Uiso   1.00
H341   H     0.35804   0.68215   0.30222   0.00000  Uiso   1.00
H342   H     0.32619   0.68460   0.23923   0.00000  Uiso   1.00
O343   O     0.11728   0.92171   0.17365   0.00000  Uiso   1.00
C344   C     0.11207   0.93605   0.22908   0.00000  Uiso   1.00
H345   H     0.11711   0.90435   0.25805   0.00000  Uiso   1.00
H346   H     0.07814   0.95164   0.23548   0.00000  Uiso   1.00
C347   C     0.14639   0.97558   0.24354   0.00000  Uiso   1.00
H348   H     0.14612   0.67237   0.21260   0.00000  Uiso   1.00
H349   H     0.13850   0.99164   0.28411   0.00000  Uiso   1.00
H350   H     0.18018   0.95897   0.24554   0.00000  Uiso   1.00
O351   O     0.75000   0.76178   0.21228   0.00000  Uiso   1.00
O352   O     0.75000   0.90488   0.12105   0.00000  Uiso   1.00
O353   O     0.75000   0.90488   0.21228   0.00000  Uiso   1.00
O354   O     0.75000   0.76178   0.12105   0.00000  Uiso   1.00
C355   C     0.74993   0.73932   0.16673   0.00000  Uiso   1.00
C356   C     0.74994   0.92735   0.16660   0.00000  Uiso   1.00
O357   O     0.68393   0.83333   0.21230   0.00000  Uiso   1.00
O358   O     0.81608   0.83333   0.12104   0.00000  Uiso   1.00
O359   O     0.81608   0.83333   0.21230   0.00000  Uiso   1.00
O360   O     0.68393   0.83333   0.12104   0.00000  Uiso   1.00
C361   C     0.66340   0.83308   0.16649   0.00000  Uiso   1.00
C362   C     0.83668   0.83430   0.16681   0.00000  Uiso   1.00
Zn363  Zn    0.75000   0.83333   0.22759   0.00000  Uiso   1.00
Zn364  Zn    0.75000   0.83333   0.10574   0.00000  Uiso   1.00
N365   N     0.75000   0.83333   0.02455   0.00000  Uiso   1.00
N366   N     0.75000   0.83333   0.30879   0.00000  Uiso   1.00
C367   C     0.90691   0.87864   0.15385   0.00000  Uiso   1.00
C368   C     0.59316   0.78799   0.16443   0.00000  Uiso   1.00
C369   C     0.90667   0.79031   0.17926   0.00000  Uiso   1.00
C370   C     0.59350   0.87824   0.16550   0.00000  Uiso   1.00
C371   C     0.88436   0.83455   0.16690   0.00000  Uiso   1.00
C372   C     0.61588   0.83308   0.16588   0.00000  Uiso   1.00
C373   C     0.95333   0.78910   0.17611   0.00000  Uiso   1.00
C374   C     0.54725   0.87821   0.15759   0.00000  Uiso   1.00
C375   C     0.95370   0.87848   0.15319   0.00000  Uiso   1.00
C376   C     0.54679   0.78813   0.17050   0.00000  Uiso   1.00
C377   C     0.97674   0.83357   0.16418   0.00000  Uiso   1.00
C378   C     0.52352   0.83328   0.16397   0.00000  Uiso   1.00
C379   C     0.97729   0.74489   0.18549   0.00000  Uiso   1.00
C380   C     0.52446   0.92163   0.14366   0.00000  Uiso   1.00
C381   C     0.97822   0.92187   0.14127   0.00000  Uiso   1.00
C382   C     0.52348   0.74459   0.18277   0.00000  Uiso   1.00
C383   C     0.74968   0.68836   0.16678   0.00000  Uiso   1.00
C384   C     0.74969   0.97830   0.16657   0.00000  Uiso   1.00
F385   F     0.95658   0.70164   0.19807   0.00000  Uiso   1.00
F386   F     0.54703   0.96305   0.12843   0.00000  Uiso   1.00
F387   F     0.95806   0.96465   0.12597   0.00000  Uiso   1.00
F388   F     0.54553   0.70242   0.19638   0.00000  Uiso   1.00
O389   O     0.88361   0.92306   0.15191   0.00000  Uiso   1.00
C390   C     0.87017   0.93392   0.09744   0.00000  Uiso   1.00
H391   H     0.84016   0.91210   0.08621   0.00000  Uiso   1.00
H392   H     0.89683   0.92625   0.06684   0.00000  Uiso   1.00
C393   C     0.85767   0.98858   0.09381   0.00000  Uiso   1.00
H394   H     0.88815   0.67871   0.09208   0.00000  Uiso   1.00
H395   H     0.83707   0.99537   0.05661   0.00000  Uiso   1.00
H396   H     0.83796   0.99951   0.13018   0.00000  Uiso   1.00
O397   O     0.61664   0.74457   0.15581   0.00000  Uiso   1.00
C398   C     0.61246   0.73211   0.09960   0.00000  Uiso   1.00
H399   H     0.61943   0.76450   0.07226   0.00000  Uiso   1.00
H400   H     0.57822   0.71802   0.09066   0.00000  Uiso   1.00
C401   C     0.64576   0.69178   0.08542   0.00000  Uiso   1.00
H402   H     0.64181   0.99287   0.11318   0.00000  Uiso   1.00
H403   H     0.64003   0.67933   0.04267   0.00000  Uiso   1.00
H404   H     0.68028   0.70636   0.08889   0.00000  Uiso   1.00
O405   O     0.88219   0.74755   0.18935   0.00000  Uiso   1.00
C406   C     0.87794   0.74062   0.24668   0.00000  Uiso   1.00
H407   H     0.85419   0.76771   0.26426   0.00000  Uiso   1.00
H408   H     0.91047   0.74452   0.26877   0.00000  Uiso   1.00
C409   C     0.86003   0.68871   0.25745   0.00000  Uiso   1.00
H410   H     0.88253   0.99389   0.23932   0.00000  Uiso   1.00
H411   H     0.85804   0.68215   0.30222   0.00000  Uiso   1.00
H412   H     0.82619   0.68460   0.23923   0.00000  Uiso   1.00
O413   O     0.61728   0.92171   0.17365   0.00000  Uiso   1.00
C414   C     0.61207   0.93605   0.22908   0.00000  Uiso   1.00
H415   H     0.61711   0.90435   0.25805   0.00000  Uiso   1.00
H416   H     0.57814   0.95164   0.23548   0.00000  Uiso   1.00
C417   C     0.64639   0.97558   0.24354   0.00000  Uiso   1.00
H418   H     0.64612   0.67237   0.21260   0.00000  Uiso   1.00
H419   H     0.63850   0.99164   0.28411   0.00000  Uiso   1.00
H420   H     0.68018   0.95897   0.24554   0.00000  Uiso   1.00
O421   O     0.25000   0.09512   0.54562   0.00000  Uiso   1.00
O422   O     0.25000   0.23822   0.45438   0.00000  Uiso   1.00
O423   O     0.25000   0.23822   0.54562   0.00000  Uiso   1.00
O424   O     0.25000   0.09512   0.45438   0.00000  Uiso   1.00
C425   C     0.24993   0.07265   0.50007   0.00000  Uiso   1.00
C426   C     0.24994   0.26068   0.49994   0.00000  Uiso   1.00
O427   O     0.18393   0.16667   0.54563   0.00000  Uiso   1.00
O428   O     0.31608   0.16667   0.45437   0.00000  Uiso   1.00
O429   O     0.31608   0.16667   0.54563   0.00000  Uiso   1.00
O430   O     0.18393   0.16667   0.45437   0.00000  Uiso   1.00
C431   C     0.16340   0.16641   0.49982   0.00000  Uiso   1.00
C432   C     0.33668   0.16763   0.50014   0.00000  Uiso   1.00
Zn433  Zn    0.25000   0.16667   0.56093   0.00000  Uiso   1.00
Zn434  Zn    0.25000   0.16667   0.43907   0.00000  Uiso   1.00
N435   N     0.25000   0.16667   0.35788   0.00000  Uiso   1.00
N436   N     0.25000   0.16667   0.64212   0.00000  Uiso   1.00
C437   C     0.40691   0.21198   0.48718   0.00000  Uiso   1.00
C438   C     0.09316   0.12133   0.49776   0.00000  Uiso   1.00
C439   C     0.40667   0.12365   0.51259   0.00000  Uiso   1.00
C440   C     0.09350   0.21158   0.49884   0.00000  Uiso   1.00
C441   C     0.38436   0.16789   0.50023   0.00000  Uiso   1.00
C442   C     0.11588   0.16641   0.49921   0.00000  Uiso   1.00
C443   C     0.45333   0.12244   0.50944   0.00000  Uiso   1.00
C444   C     0.04725   0.21154   0.49093   0.00000  Uiso   1.00
C445   C     0.45370   0.21181   0.48652   0.00000  Uiso   1.00
C446   C     0.04679   0.12146   0.50384   0.00000  Uiso   1.00
C447   C     0.47674   0.16690   0.49751   0.00000  Uiso   1.00
C448   C     0.02352   0.16661   0.49731   0.00000  Uiso   1.00
C449   C     0.47729   0.07823   0.51882   0.00000  Uiso   1.00
C450   C     0.02446   0.25496   0.47699   0.00000  Uiso   1.00
C451   C     0.47822   0.25520   0.47460   0.00000  Uiso   1.00
C452   C     0.02348   0.07792   0.51611   0.00000  Uiso   1.00
C453   C     0.24968   0.02169   0.50012   0.00000  Uiso   1.00
C454   C     0.24969   0.31163   0.49990   0.00000  Uiso   1.00
F455   F     0.45658   0.03498   0.53141   0.00000  Uiso   1.00
F456   F     0.04703   0.29639   0.46177   0.00000  Uiso   1.00
F457   F     0.45806   0.29798   0.45931   0.00000  Uiso   1.00
F458   F     0.04553   0.03575   0.52971   0.00000  Uiso   1.00
O459   O     0.38361   0.25639   0.48525   0.00000  Uiso   1.00
C460   C     0.37017   0.26725   0.43078   0.00000  Uiso   1.00
H461   H     0.34016   0.24544   0.41954   0.00000  Uiso   1.00
H462   H     0.39683   0.25958   0.40018   0.00000  Uiso   1.00
C463   C     0.35767   0.32191   0.42714   0.00000  Uiso   1.00
H464   H     0.38815   0.01204   0.42542   0.00000  Uiso   1.00
H465   H     0.33707   0.32871   0.38995   0.00000  Uiso   1.00
H466   H     0.33796   0.33284   0.46351   0.00000  Uiso   1.00
O467   O     0.11664   0.07790   0.48915   0.00000  Uiso   1.00
C468   C     0.11246   0.06545   0.43294   0.00000  Uiso   1.00
H469   H     0.11943   0.09783   0.40559   0.00000  Uiso   1.00
H470   H     0.07822   0.05135   0.42399   0.00000  Uiso   1.00
C471   C     0.14576   0.02511   0.41875   0.00000  Uiso   1.00
H472   H     0.14181   0.32620   0.44651   0.00000  Uiso   1.00
H473   H     0.14003   0.01266   0.37601   0.00000  Uiso   1.00
H474   H     0.18028   0.03969   0.42223   0.00000  Uiso   1.00
O475   O     0.38219   0.08088   0.52268   0.00000  Uiso   1.00
C476   C     0.37794   0.07395   0.58001   0.00000  Uiso   1.00
H477   H     0.35419   0.10105   0.59760   0.00000  Uiso   1.00
H478   H     0.41047   0.07786   0.60210   0.00000  Uiso   1.00
C479   C     0.36003   0.02204   0.59078   0.00000  Uiso   1.00
H480   H     0.38253   0.32723   0.57265   0.00000  Uiso   1.00
H481   H     0.35804   0.01548   0.63556   0.00000  Uiso   1.00
H482   H     0.32619   0.01793   0.57257   0.00000  Uiso   1.00
O483   O     0.11728   0.25504   0.50698   0.00000  Uiso   1.00
C484   C     0.11207   0.26938   0.56241   0.00000  Uiso   1.00
H485   H     0.11711   0.23769   0.59138   0.00000  Uiso   1.00
H486   H     0.07814   0.28497   0.56882   0.00000  Uiso   1.00
C487   C     0.14639   0.30892   0.57687   0.00000  Uiso   1.00
H488   H     0.14612   0.00571   0.54593   0.00000  Uiso   1.00
H489   H     0.13850   0.32497   0.61744   0.00000  Uiso   1.00
H490   H     0.18018   0.29230   0.57888   0.00000  Uiso   1.00
O491   O     0.75000   0.09512   0.54562   0.00000  Uiso   1.00
O492   O     0.75000   0.23822   0.45438   0.00000  Uiso   1.00
O493   O     0.75000   0.23822   0.54562   0.00000  Uiso   1.00
O494   O     0.75000   0.09512   0.45438   0.00000  Uiso   1.00
C495   C     0.74993   0.07265   0.50007   0.00000  Uiso   1.00
C496   C     0.74994   0.26068   0.49994   0.00000  Uiso   1.00
O497   O     0.68393   0.16667   0.54563   0.00000  Uiso   1.00
O498   O     0.81608   0.16667   0.45437   0.00000  Uiso   1.00
O499   O     0.81608   0.16667   0.54563   0.00000  Uiso   1.00
O500   O     0.68393   0.16667   0.45437   0.00000  Uiso   1.00
C501   C     0.66340   0.16641   0.49982   0.00000  Uiso   1.00
C502   C     0.83668   0.16763   0.50014   0.00000  Uiso   1.00
Zn503  Zn    0.75000   0.16667   0.56093   0.00000  Uiso   1.00
Zn504  Zn    0.75000   0.16667   0.43907   0.00000  Uiso   1.00
N505   N     0.75000   0.16667   0.35788   0.00000  Uiso   1.00
N506   N     0.75000   0.16667   0.64212   0.00000  Uiso   1.00
C507   C     0.90691   0.21198   0.48718   0.00000  Uiso   1.00
C508   C     0.59316   0.12133   0.49776   0.00000  Uiso   1.00
C509   C     0.90667   0.12365   0.51259   0.00000  Uiso   1.00
C510   C     0.59350   0.21158   0.49884   0.00000  Uiso   1.00
C511   C     0.88436   0.16789   0.50023   0.00000  Uiso   1.00
C512   C     0.61588   0.16641   0.49921   0.00000  Uiso   1.00
C513   C     0.95333   0.12244   0.50944   0.00000  Uiso   1.00
C514   C     0.54725   0.21154   0.49093   0.00000  Uiso   1.00
C515   C     0.95370   0.21181   0.48652   0.00000  Uiso   1.00
C516   C     0.54679   0.12146   0.50384   0.00000  Uiso   1.00
C517   C     0.97674   0.16690   0.49751   0.00000  Uiso   1.00
C518   C     0.52352   0.16661   0.49731   0.00000  Uiso   1.00
C519   C     0.97729   0.07823   0.51882   0.00000  Uiso   1.00
C520   C     0.52446   0.25496   0.47699   0.00000  Uiso   1.00
C521   C     0.97822   0.25520   0.47460   0.00000  Uiso   1.00
C522   C     0.52348   0.07792   0.51611   0.00000  Uiso   1.00
C523   C     0.74968   0.02169   0.50012   0.00000  Uiso   1.00
C524   C     0.74969   0.31163   0.49990   0.00000  Uiso   1.00
F525   F     0.95658   0.03498   0.53141   0.00000  Uiso   1.00
F526   F     0.54703   0.29639   0.46177   0.00000  Uiso   1.00
F527   F     0.95806   0.29798   0.45931   0.00000  Uiso   1.00
F528   F     0.54553   0.03575   0.52971   0.00000  Uiso   1.00
O529   O     0.88361   0.25639   0.48525   0.00000  Uiso   1.00
C530   C     0.87017   0.26725   0.43078   0.00000  Uiso   1.00
H531   H     0.84016   0.24544   0.41954   0.00000  Uiso   1.00
H532   H     0.89683   0.25958   0.40018   0.00000  Uiso   1.00
C533   C     0.85767   0.32191   0.42714   0.00000  Uiso   1.00
H534   H     0.88815   0.01204   0.42542   0.00000  Uiso   1.00
H535   H     0.83707   0.32871   0.38995   0.00000  Uiso   1.00
H536   H     0.83796   0.33284   0.46351   0.00000  Uiso   1.00
O537   O     0.61664   0.07790   0.48915   0.00000  Uiso   1.00
C538   C     0.61246   0.06545   0.43294   0.00000  Uiso   1.00
H539   H     0.61943   0.09783   0.40559   0.00000  Uiso   1.00
H540   H     0.57822   0.05135   0.42399   0.00000  Uiso   1.00
C541   C     0.64576   0.02511   0.41875   0.00000  Uiso   1.00
H542   H     0.64181   0.32620   0.44651   0.00000  Uiso   1.00
H543   H     0.64003   0.01266   0.37601   0.00000  Uiso   1.00
H544   H     0.68028   0.03969   0.42223   0.00000  Uiso   1.00
O545   O     0.88219   0.08088   0.52268   0.00000  Uiso   1.00
C546   C     0.87794   0.07395   0.58001   0.00000  Uiso   1.00
H547   H     0.85419   0.10105   0.59760   0.00000  Uiso   1.00
H548   H     0.91047   0.07786   0.60210   0.00000  Uiso   1.00
C549   C     0.86003   0.02204   0.59078   0.00000  Uiso   1.00
H550   H     0.88253   0.32723   0.57265   0.00000  Uiso   1.00
H551   H     0.85804   0.01548   0.63556   0.00000  Uiso   1.00
H552   H     0.82619   0.01793   0.57257   0.00000  Uiso   1.00
O553   O     0.61728   0.25504   0.50698   0.00000  Uiso   1.00
C554   C     0.61207   0.26938   0.56241   0.00000  Uiso   1.00
H555   H     0.61711   0.23769   0.59138   0.00000  Uiso   1.00
H556   H     0.57814   0.28497   0.56882   0.00000  Uiso   1.00
C557   C     0.64639   0.30892   0.57687   0.00000  Uiso   1.00
H558   H     0.64612   0.00571   0.54593   0.00000  Uiso   1.00
H559   H     0.63850   0.32497   0.61744   0.00000  Uiso   1.00
H560   H     0.68018   0.29230   0.57888   0.00000  Uiso   1.00
O561   O     0.25000   0.42845   0.54562   0.00000  Uiso   1.00
O562   O     0.25000   0.57155   0.45438   0.00000  Uiso   1.00
O563   O     0.25000   0.57155   0.54562   0.00000  Uiso   1.00
O564   O     0.25000   0.42845   0.45438   0.00000  Uiso   1.00
C565   C     0.24993   0.40598   0.50007   0.00000  Uiso   1.00
C566   C     0.24994   0.59402   0.49994   0.00000  Uiso   1.00
O567   O     0.18393   0.50000   0.54563   0.00000  Uiso   1.00
O568   O     0.31608   0.50000   0.45437   0.00000  Uiso   1.00
O569   O     0.31608   0.50000   0.54563   0.00000  Uiso   1.00
O570   O     0.18393   0.50000   0.45437   0.00000  Uiso   1.00
C571   C     0.16340   0.49974   0.49982   0.00000  Uiso   1.00
C572   C     0.33668   0.50096   0.50014   0.00000  Uiso   1.00
Zn573  Zn    0.25000   0.50000   0.56093   0.00000  Uiso   1.00
Zn574  Zn    0.25000   0.50000   0.43907   0.00000  Uiso   1.00
N575   N     0.25000   0.50000   0.35788   0.00000  Uiso   1.00
N576   N     0.25000   0.50000   0.64212   0.00000  Uiso   1.00
C577   C     0.40691   0.54531   0.48718   0.00000  Uiso   1.00
C578   C     0.09316   0.45466   0.49776   0.00000  Uiso   1.00
C579   C     0.40667   0.45698   0.51259   0.00000  Uiso   1.00
C580   C     0.09350   0.54491   0.49884   0.00000  Uiso   1.00
C581   C     0.38436   0.50122   0.50023   0.00000  Uiso   1.00
C582   C     0.11588   0.49975   0.49921   0.00000  Uiso   1.00
C583   C     0.45333   0.45577   0.50944   0.00000  Uiso   1.00
C584   C     0.04725   0.54488   0.49093   0.00000  Uiso   1.00
C585   C     0.45370   0.54515   0.48652   0.00000  Uiso   1.00
C586   C     0.04679   0.45480   0.50384   0.00000  Uiso   1.00
C587   C     0.47674   0.50023   0.49751   0.00000  Uiso   1.00
C588   C     0.02352   0.49994   0.49731   0.00000  Uiso   1.00
C589   C     0.47729   0.41156   0.51882   0.00000  Uiso   1.00
C590   C     0.02446   0.58830   0.47699   0.00000  Uiso   1.00
C591   C     0.47822   0.58854   0.47460   0.00000  Uiso   1.00
C592   C     0.02348   0.41125   0.51611   0.00000  Uiso   1.00
C593   C     0.24968   0.35503   0.50012   0.00000  Uiso   1.00
C594   C     0.24969   0.64497   0.49990   0.00000  Uiso   1.00
F595   F     0.45658   0.36831   0.53141   0.00000  Uiso   1.00
F596   F     0.04703   0.62972   0.46177   0.00000  Uiso   1.00
F597   F     0.45806   0.63131   0.45931   0.00000  Uiso   1.00
F598   F     0.04553   0.36909   0.52971   0.00000  Uiso   1.00
O599   O     0.38361   0.58973   0.48525   0.00000  Uiso   1.00
C600   C     0.37017   0.60059   0.43078   0.00000  Uiso   1.00
H601   H     0.34016   0.57877   0.41954   0.00000  Uiso   1.00
H602   H     0.39683   0.59292   0.40018   0.00000  Uiso   1.00
C603   C     0.35767   0.65524   0.42714   0.00000  Uiso   1.00
H604   H     0.38815   0.34538   0.42542   0.00000  Uiso   1.00
H605   H     0.33707   0.66204   0.38995   0.00000  Uiso   1.00
H606   H     0.33796   0.66617   0.46351   0.00000  Uiso   1.00
O607   O     0.11664   0.41124   0.48915   0.00000  Uiso   1.00
C608   C     0.11246   0.39878   0.43294   0.00000  Uiso   1.00
H609   H     0.11943   0.43116   0.40559   0.00000  Uiso   1.00
H610   H     0.07822   0.38468   0.42399   0.00000  Uiso   1.00
C611   C     0.14576   0.35844   0.41875   0.00000  Uiso   1.00
H612   H     0.14181   0.65954   0.44651   0.00000  Uiso   1.00
H613   H     0.14003   0.34600   0.37601   0.00000  Uiso   1.00
H614   H     0.18028   0.37303   0.42223   0.00000  Uiso   1.00
O615   O     0.38219   0.41422   0.52268   0.00000  Uiso   1.00
C616   C     0.37794   0.40729   0.58001   0.00000  Uiso   1.00
H617   H     0.35419   0.43438   0.59760   0.00000  Uiso   1.00
H618   H     0.41047   0.41119   0.60210   0.00000  Uiso   1.00
C619   C     0.36003   0.35537   0.59078   0.00000  Uiso   1.00
H620   H     0.38253   0.66056   0.57265   0.00000  Uiso   1.00
H621   H     0.35804   0.34882   0.63556   0.00000  Uiso   1.00
H622   H     0.32619   0.35127   0.57257   0.00000  Uiso   1.00
O623   O     0.11728   0.58838   0.50698   0.00000  Uiso   1.00
C624   C     0.11207   0.60272   0.56241   0.00000  Uiso   1.00
H625   H     0.11711   0.57102   0.59138   0.00000  Uiso   1.00
H626   H     0.07814   0.61830   0.56882   0.00000  Uiso   1.00
C627   C     0.14639   0.64225   0.57687   0.00000  Uiso   1.00
H628   H     0.14612   0.33904   0.54593   0.00000  Uiso   1.00
H629   H     0.13850   0.65830   0.61744   0.00000  Uiso   1.00
H630   H     0.18018   0.62563   0.57888   0.00000  Uiso   1.00
O631   O     0.75000   0.42845   0.54562   0.00000  Uiso   1.00
O632   O     0.75000   0.57155   0.45438   0.00000  Uiso   1.00
O633   O     0.75000   0.57155   0.54562   0.00000  Uiso   1.00
O634   O     0.75000   0.42845   0.45438   0.00000  Uiso   1.00
C635   C     0.74993   0.40598   0.50007   0.00000  Uiso   1.00
C636   C     0.74994   0.59402   0.49994   0.00000  Uiso   1.00
O637   O     0.68393   0.50000   0.54563   0.00000  Uiso   1.00
O638   O     0.81608   0.50000   0.45437   0.00000  Uiso   1.00
O639   O     0.81608   0.50000   0.54563   0.00000  Uiso   1.00
O640   O     0.68393   0.50000   0.45437   0.00000  Uiso   1.00
C641   C     0.66340   0.49974   0.49982   0.00000  Uiso   1.00
C642   C     0.83668   0.50096   0.50014   0.00000  Uiso   1.00
Zn643  Zn    0.75000   0.50000   0.56093   0.00000  Uiso   1.00
Zn644  Zn    0.75000   0.50000   0.43907   0.00000  Uiso   1.00
N645   N     0.75000   0.50000   0.35788   0.00000  Uiso   1.00
N646   N     0.75000   0.50000   0.64212   0.00000  Uiso   1.00
C647   C     0.90691   0.54531   0.48718   0.00000  Uiso   1.00
C648   C     0.59316   0.45466   0.49776   0.00000  Uiso   1.00
C649   C     0.90667   0.45698   0.51259   0.00000  Uiso   1.00
C650   C     0.59350   0.54491   0.49884   0.00000  Uiso   1.00
C651   C     0.88436   0.50122   0.50023   0.00000  Uiso   1.00
C652   C     0.61588   0.49975   0.49921   0.00000  Uiso   1.00
C653   C     0.95333   0.45577   0.50944   0.00000  Uiso   1.00
C654   C     0.54725   0.54488   0.49093   0.00000  Uiso   1.00
C655   C     0.95370   0.54515   0.48652   0.00000  Uiso   1.00
C656   C     0.54679   0.45480   0.50384   0.00000  Uiso   1.00
C657   C     0.97674   0.50023   0.49751   0.00000  Uiso   1.00
C658   C     0.52352   0.49994   0.49731   0.00000  Uiso   1.00
C659   C     0.97729   0.41156   0.51882   0.00000  Uiso   1.00
C660   C     0.52446   0.58830   0.47699   0.00000  Uiso   1.00
C661   C     0.97822   0.58854   0.47460   0.00000  Uiso   1.00
C662   C     0.52348   0.41125   0.51611   0.00000  Uiso   1.00
C663   C     0.74968   0.35503   0.50012   0.00000  Uiso   1.00
C664   C     0.74969   0.64497   0.49990   0.00000  Uiso   1.00
F665   F     0.95658   0.36831   0.53141   0.00000  Uiso   1.00
F666   F     0.54703   0.62972   0.46177   0.00000  Uiso   1.00
F667   F     0.95806   0.63131   0.45931   0.00000  Uiso   1.00
F668   F     0.54553   0.36909   0.52971   0.00000  Uiso   1.00
O669   O     0.88361   0.58973   0.48525   0.00000  Uiso   1.00
C670   C     0.87017   0.60059   0.43078   0.00000  Uiso   1.00
H671   H     0.84016   0.57877   0.41954   0.00000  Uiso   1.00
H672   H     0.89683   0.59292   0.40018   0.00000  Uiso   1.00
C673   C     0.85767   0.65524   0.42714   0.00000  Uiso   1.00
H674   H     0.88815   0.34538   0.42542   0.00000  Uiso   1.00
H675   H     0.83707   0.66204   0.38995   0.00000  Uiso   1.00
H676   H     0.83796   0.66617   0.46351   0.00000  Uiso   1.00
O677   O     0.61664   0.41124   0.48915   0.00000  Uiso   1.00
C678   C     0.61246   0.39878   0.43294   0.00000  Uiso   1.00
H679   H     0.61943   0.43116   0.40559   0.00000  Uiso   1.00
H680   H     0.57822   0.38468   0.42399   0.00000  Uiso   1.00
C681   C     0.64576   0.35844   0.41875   0.00000  Uiso   1.00
H682   H     0.64181   0.65954   0.44651   0.00000  Uiso   1.00
H683   H     0.64003   0.34600   0.37601   0.00000  Uiso   1.00
H684   H     0.68028   0.37303   0.42223   0.00000  Uiso   1.00
O685   O     0.88219   0.41422   0.52268   0.00000  Uiso   1.00
C686   C     0.87794   0.40729   0.58001   0.00000  Uiso   1.00
H687   H     0.85419   0.43438   0.59760   0.00000  Uiso   1.00
H688   H     0.91047   0.41119   0.60210   0.00000  Uiso   1.00
C689   C     0.86003   0.35537   0.59078   0.00000  Uiso   1.00
H690   H     0.88253   0.66056   0.57265   0.00000  Uiso   1.00
H691   H     0.85804   0.34882   0.63556   0.00000  Uiso   1.00
H692   H     0.82619   0.35127   0.57257   0.00000  Uiso   1.00
O693   O     0.61728   0.58838   0.50698   0.00000  Uiso   1.00
C694   C     0.61207   0.60272   0.56241   0.00000  Uiso   1.00
H695   H     0.61711   0.57102   0.59138   0.00000  Uiso   1.00
H696   H     0.57814   0.61830   0.56882   0.00000  Uiso   1.00
C697   C     0.64639   0.64225   0.57687   0.00000  Uiso   1.00
H698   H     0.64612   0.33904   0.54593   0.00000  Uiso   1.00
H699   H     0.63850   0.65830   0.61744   0.00000  Uiso   1.00
H700   H     0.68018   0.62563   0.57888   0.00000  Uiso   1.00
O701   O     0.25000   0.76178   0.54562   0.00000  Uiso   1.00
O702   O     0.25000   0.90488   0.45438   0.00000  Uiso   1.00
O703   O     0.25000   0.90488   0.54562   0.00000  Uiso   1.00
O704   O     0.25000   0.76178   0.45438   0.00000  Uiso   1.00
C705   C     0.24993   0.73932   0.50007   0.00000  Uiso   1.00
C706   C     0.24994   0.92735   0.49994   0.00000  Uiso   1.00
O707   O     0.18393   0.83333   0.54563   0.00000  Uiso   1.00
O708   O     0.31608   0.83333   0.45437   0.00000  Uiso   1.00
O709   O     0.31608   0.83333   0.54563   0.00000  Uiso   1.00
O710   O     0.18393   0.83333   0.45437   0.00000  Uiso   1.00
C711   C     0.16340   0.83308   0.49982   0.00000  Uiso   1.00
C712   C     0.33668   0.83430   0.50014   0.00000  Uiso   1.00
Zn713  Zn    0.25000   0.83333   0.56093   0.00000  Uiso   1.00
Zn714  Zn    0.25000   0.83333   0.43907   0.00000  Uiso   1.00
N715   N     0.25000   0.83333   0.35788   0.00000  Uiso   1.00
N716   N     0.25000   0.83333   0.64212   0.00000  Uiso   1.00
C717   C     0.40691   0.87864   0.48718   0.00000  Uiso   1.00
C718   C     0.09316   0.78799   0.49776   0.00000  Uiso   1.00
C719   C     0.40667   0.79031   0.51259   0.00000  Uiso   1.00
C720   C     0.09350   0.87824   0.49884   0.00000  Uiso   1.00
C721   C     0.38436   0.83455   0.50023   0.00000  Uiso   1.00
C722   C     0.11588   0.83308   0.49921   0.00000  Uiso   1.00
C723   C     0.45333   0.78910   0.50944   0.00000  Uiso   1.00
C724   C     0.04725   0.87821   0.49093   0.00000  Uiso   1.00
C725   C     0.45370   0.87848   0.48652   0.00000  Uiso   1.00
C726   C     0.04679   0.78813   0.50384   0.00000  Uiso   1.00
C727   C     0.47674   0.83357   0.49751   0.00000  Uiso   1.00
C728   C     0.02352   0.83328   0.49731   0.00000  Uiso   1.00
C729   C     0.47729   0.74489   0.51882   0.00000  Uiso   1.00
C730   C     0.02446   0.92163   0.47699   0.00000  Uiso   1.00
C731   C     0.47822   0.92187   0.47460   0.00000  Uiso   1.00
C732   C     0.02348   0.74459   0.51611   0.00000  Uiso   1.00
C733   C     0.24968   0.68836   0.50012   0.00000  Uiso   1.00
C734   C     0.24969   0.97830   0.49990   0.00000  Uiso   1.00
F735   F     0.45658   0.70164   0.53141   0.00000  Uiso   1.00
F736   F     0.04703   0.96305   0.46177   0.00000  Uiso   1.00
F737   F     0.45806   0.96465   0.45931   0.00000  Uiso   1.00
F738   F     0.04553   0.70242   0.52971   0.00000  Uiso   1.00
O739   O     0.38361   0.92306   0.48525   0.00000  Uiso   1.00
C740   C     0.37017   0.93392   0.43078   0.00000  Uiso   1.00
H741   H     0.34016   0.91210   0.41954   0.00000  Uiso   1.00
H742   H     0.39683   0.92625   0.40018   0.00000  Uiso   1.00
C743   C     0.35767   0.98858   0.42714   0.00000  Uiso   1.00
H744   H     0.38815   0.67871   0.42542   0.00000  Uiso   1.00
H745   H     0.33707   0.99537   0.38995   0.00000  Uiso   1.00
H746   H     0.33796   0.99951   0.46351   0.00000  Uiso   1.00
O747   O     0.11664   0.74457   0.48915   0.00000  Uiso   1.00
C748   C     0.11246   0.73211   0.43294   0.00000  Uiso   1.00
H749   H     0.11943   0.76450   0.40559   0.00000  Uiso   1.00
H750   H     0.07822   0.71802   0.42399   0.00000  Uiso   1.00
C751   C     0.14576   0.69178   0.41875   0.00000  Uiso   1.00
H752   H     0.14181   0.99287   0.44651   0.00000  Uiso   1.00
H753   H     0.14003   0.67933   0.37601   0.00000  Uiso   1.00
H754   H     0.18028   0.70636   0.42223   0.00000  Uiso   1.00
O755   O     0.38219   0.74755   0.52268   0.00000  Uiso   1.00
C756   C     0.37794   0.74062   0.58001   0.00000  Uiso   1.00
H757   H     0.35419   0.76771   0.59760   0.00000  Uiso   1.00
H758   H     0.41047   0.74452   0.60210   0.00000  Uiso   1.00
C759   C     0.36003   0.68871   0.59078   0.00000  Uiso   1.00
H760   H     0.38253   0.99389   0.57265   0.00000  Uiso   1.00
H761   H     0.35804   0.68215   0.63556   0.00000  Uiso   1.00
H762   H     0.32619   0.68460   0.57257   0.00000  Uiso   1.00
O763   O     0.11728   0.92171   0.50698   0.00000  Uiso   1.00
C764   C     0.11207   0.93605   0.56241   0.00000  Uiso   1.00
H765   H     0.11711   0.90435   0.59138   0.00000  Uiso   1.00
H766   H     0.07814   0.95164   0.56882   0.00000  Uiso   1.00
C767   C     0.14639   0.97558   0.57687   0.00000  Uiso   1.00
H768   H     0.14612   0.67237   0.54593   0.00000  Uiso   1.00
H769   H     0.13850   0.99164   0.61744   0.00000  Uiso   1.00
H770   H     0.18018   0.95897   0.57888   0.00000  Uiso   1.00
O771   O     0.75000   0.76178   0.54562   0.00000  Uiso   1.00
O772   O     0.75000   0.90488   0.45438   0.00000  Uiso   1.00
O773   O     0.75000   0.90488   0.54562   0.00000  Uiso   1.00
O774   O     0.75000   0.76178   0.45438   0.00000  Uiso   1.00
C775   C     0.74993   0.73932   0.50007   0.00000  Uiso   1.00
C776   C     0.74994   0.92735   0.49994   0.00000  Uiso   1.00
O777   O     0.68393   0.83333   0.54563   0.00000  Uiso   1.00
O778   O     0.81608   0.83333   0.45437   0.00000  Uiso   1.00
O779   O     0.81608   0.83333   0.54563   0.00000  Uiso   1.00
O780   O     0.68393   0.83333   0.45437   0.00000  Uiso   1.00
C781   C     0.66340   0.83308   0.49982   0.00000  Uiso   1.00
C782   C     0.83668   0.83430   0.50014   0.00000  Uiso   1.00
Zn783  Zn    0.75000   0.83333   0.56093   0.00000  Uiso   1.00
Zn784  Zn    0.75000   0.83333   0.43907   0.00000  Uiso   1.00
N785   N     0.75000   0.83333   0.35788   0.00000  Uiso   1.00
N786   N     0.75000   0.83333   0.64212   0.00000  Uiso   1.00
C787   C     0.90691   0.87864   0.48718   0.00000  Uiso   1.00
C788   C     0.59316   0.78799   0.49776   0.00000  Uiso   1.00
C789   C     0.90667   0.79031   0.51259   0.00000  Uiso   1.00
C790   C     0.59350   0.87824   0.49884   0.00000  Uiso   1.00
C791   C     0.88436   0.83455   0.50023   0.00000  Uiso   1.00
C792   C     0.61588   0.83308   0.49921   0.00000  Uiso   1.00
C793   C     0.95333   0.78910   0.50944   0.00000  Uiso   1.00
C794   C     0.54725   0.87821   0.49093   0.00000  Uiso   1.00
C795   C     0.95370   0.87848   0.48652   0.00000  Uiso   1.00
C796   C     0.54679   0.78813   0.50384   0.00000  Uiso   1.00
C797   C     0.97674   0.83357   0.49751   0.00000  Uiso   1.00
C798   C     0.52352   0.83328   0.49731   0.00000  Uiso   1.00
C799   C     0.97729   0.74489   0.51882   0.00000  Uiso   1.00
C800   C     0.52446   0.92163   0.47699   0.00000  Uiso   1.00
C801   C     0.97822   0.92187   0.47460   0.00000  Uiso   1.00
C802   C     0.52348   0.74459   0.51611   0.00000  Uiso   1.00
C803   C     0.74968   0.68836   0.50012   0.00000  Uiso   1.00
C804   C     0.74969   0.97830   0.49990   0.00000  Uiso   1.00
F805   F     0.95658   0.70164   0.53141   0.00000  Uiso   1.00
F806   F     0.54703   0.96305   0.46177   0.00000  Uiso   1.00
F807   F     0.95806   0.96465   0.45931   0.00000  Uiso   1.00
F808   F     0.54553   0.70242   0.52971   0.00000  Uiso   1.00
O809   O     0.88361   0.92306   0.48525   0.00000  Uiso   1.00
C810   C     0.87017   0.93392   0.43078   0.00000  Uiso   1.00
H811   H     0.84016   0.91210   0.41954   0.00000  Uiso   1.00
H812   H     0.89683   0.92625   0.40018   0.00000  Uiso   1.00
C813   C     0.85767   0.98858   0.42714   0.00000  Uiso   1.00
H814   H     0.88815   0.67871   0.42542   0.00000  Uiso   1.00
H815   H     0.83707   0.99537   0.38995   0.00000  Uiso   1.00
H816   H     0.83796   0.99951   0.46351   0.00000  Uiso   1.00
O817   O     0.61664   0.74457   0.48915   0.00000  Uiso   1.00
C818   C     0.61246   0.73211   0.43294   0.00000  Uiso   1.00
H819   H     0.61943   0.76450   0.40559   0.00000  Uiso   1.00
H820   H     0.57822   0.71802   0.42399   0.00000  Uiso   1.00
C821   C     0.64576   0.69178   0.41875   0.00000  Uiso   1.00
H822   H     0.64181   0.99287   0.44651   0.00000  Uiso   1.00
H823   H     0.64003   0.67933   0.37601   0.00000  Uiso   1.00
H824   H     0.68028   0.70636   0.42223   0.00000  Uiso   1.00
O825   O     0.88219   0.74755   0.52268   0.00000  Uiso   1.00
C826   C     0.87794   0.74062   0.58001   0.00000  Uiso   1.00
H827   H     0.85419   0.76771   0.59760   0.00000  Uiso   1.00
H828   H     0.91047   0.74452   0.60210   0.00000  Uiso   1.00
C829   C     0.86003   0.68871   0.59078   0.00000  Uiso   1.00
H830   H     0.88253   0.99389   0.57265   0.00000  Uiso   1.00
H831   H     0.85804   0.68215   0.63556   0.00000  Uiso   1.00
H832   H     0.82619   0.68460   0.57257   0.00000  Uiso   1.00
O833   O     0.61728   0.92171   0.50698   0.00000  Uiso   1.00
C834   C     0.61207   0.93605   0.56241   0.00000  Uiso   1.00
H835   H     0.61711   0.90435   0.59138   0.00000  Uiso   1.00
H836   H     0.57814   0.95164   0.56882   0.00000  Uiso   1.00
C837   C     0.64639   0.97558   0.57687   0.00000  Uiso   1.00
H838   H     0.64612   0.67237   0.54593   0.00000  Uiso   1.00
H839   H     0.63850   0.99164   0.61744   0.00000  Uiso   1.00
H840   H     0.68018   0.95897   0.57888   0.00000  Uiso   1.00
O841   O     0.25000   0.09512   0.87895   0.00000  Uiso   1.00
O842   O     0.25000   0.23822   0.78772   0.00000  Uiso   1.00
O843   O     0.25000   0.23822   0.87895   0.00000  Uiso   1.00
O844   O     0.25000   0.09512   0.78772   0.00000  Uiso   1.00
C845   C     0.24993   0.07265   0.83340   0.00000  Uiso   1.00
C846   C     0.24994   0.26068   0.83327   0.00000  Uiso   1.00
O847   O     0.18393   0.16667   0.87896   0.00000  Uiso   1.00
O848   O     0.31608   0.16667   0.78770   0.00000  Uiso   1.00
O849   O     0.31608   0.16667   0.87896   0.00000  Uiso   1.00
O850   O     0.18393   0.16667   0.78770   0.00000  Uiso   1.00
C851   C     0.16340   0.16641   0.83315   0.00000  Uiso   1.00
C852   C     0.33668   0.16763   0.83347   0.00000  Uiso   1.00
Zn853  Zn    0.25000   0.16667   0.89426   0.00000  Uiso   1.00
Zn854  Zn    0.25000   0.16667   0.77241   0.00000  Uiso   1.00
N855   N     0.25000   0.16667   0.69121   0.00000  Uiso   1.00
N856   N     0.25000   0.16667   0.97545   0.00000  Uiso   1.00
C857   C     0.40691   0.21198   0.82052   0.00000  Uiso   1.00
C858   C     0.09316   0.12133   0.83110   0.00000  Uiso   1.00
C859   C     0.40667   0.12365   0.84593   0.00000  Uiso   1.00
C860   C     0.09350   0.21158   0.83217   0.00000  Uiso   1.00
C861   C     0.38436   0.16789   0.83356   0.00000  Uiso   1.00
C862   C     0.11588   0.16641   0.83255   0.00000  Uiso   1.00
C863   C     0.45333   0.12244   0.84277   0.00000  Uiso   1.00
C864   C     0.04725   0.21154   0.82426   0.00000  Uiso   1.00
C865   C     0.45370   0.21181   0.81985   0.00000  Uiso   1.00
C866   C     0.04679   0.12146   0.83717   0.00000  Uiso   1.00
C867   C     0.47674   0.16690   0.83084   0.00000  Uiso   1.00
C868   C     0.02352   0.16661   0.83064   0.00000  Uiso   1.00
C869   C     0.47729   0.07823   0.85215   0.00000  Uiso   1.00
C870   C     0.02446   0.25496   0.81033   0.00000  Uiso   1.00
C871   C     0.47822   0.25520   0.80794   0.00000  Uiso   1.00
C872   C     0.02348   0.07792   0.84944   0.00000  Uiso   1.00
C873   C     0.24968   0.02169   0.83345   0.00000  Uiso   1.00
C874   C     0.24969   0.31163   0.83324   0.00000  Uiso   1.00
F875   F     0.45658   0.03498   0.86474   0.00000  Uiso   1.00
F876   F     0.04703   0.29639   0.79510   0.00000  Uiso   1.00
F877   F     0.45806   0.29798   0.79264   0.00000  Uiso   1.00
F878   F     0.04553   0.03575   0.86305   0.00000  Uiso   1.00
O879   O     0.38361   0.25639   0.81858   0.00000  Uiso   1.00
C880   C     0.37017   0.26725   0.76411   0.00000  Uiso   1.00
H881   H     0.34016   0.24544   0.75288   0.00000  Uiso   1.00
H882   H     0.39683   0.25958   0.73351   0.00000  Uiso   1.00
C883   C     0.35767   0.32191   0.76047   0.00000  Uiso   1.00
H884   H     0.38815   0.01204   0.75875   0.00000  Uiso   1.00
H885   H     0.33707   0.32871   0.72328   0.00000  Uiso   1.00
H886   H     0.33796   0.33284   0.79684   0.00000  Uiso   1.00
O887   O     0.11664   0.07790   0.82248   0.00000  Uiso   1.00
C888   C     0.11246   0.06545   0.76627   0.00000  Uiso   1.00
H889   H     0.11943   0.09783   0.73893   0.00000  Uiso   1.00
H890   H     0.07822   0.05135   0.75733   0.00000  Uiso   1.00
C891   C     0.14576   0.02511   0.75208   0.00000  Uiso   1.00
H892   H     0.14181   0.32620   0.77984   0.00000  Uiso   1.00
H893   H     0.14003   0.01266   0.70934   0.00000  Uiso   1.00
H894   H     0.18028   0.03969   0.75556   0.00000  Uiso   1.00
O895   O     0.38219   0.08088   0.85602   0.00000  Uiso   1.00
C896   C     0.37794   0.07395   0.91335   0.00000  Uiso   1.00
H897   H     0.35419   0.10105   0.93093   0.00000  Uiso   1.00
H898   H     0.41047   0.07786   0.93543   0.00000  Uiso   1.00
C899   C     0.36003   0.02204   0.92412   0.00000  Uiso   1.00
H900   H     0.38253   0.32723   0.90598   0.00000  Uiso   1.00
H901   H     0.35804   0.01548   0.96889   0.00000  Uiso   1.00
H902   H     0.32619   0.01793   0.90590   0.00000  Uiso   1.00
O903   O     0.11728   0.25504   0.84032   0.00000  Uiso   1.00
C904   C     0.11207   0.26938   0.89574   0.00000  Uiso   1.00
H905   H     0.11711   0.23769   0.92472   0.00000  Uiso   1.00
H906   H     0.07814   0.28497   0.90215   0.00000  Uiso   1.00
C907   C     0.14639   0.30892   0.91020   0.00000  Uiso   1.00
H908   H     0.14612   0.00571   0.87927   0.00000  Uiso   1.00
H909   H     0.13850   0.32497   0.95078   0.00000  Uiso   1.00
H910   H     0.18018   0.29230   0.91221   0.00000  Uiso   1.00
O911   O     0.75000   0.09512   0.87895   0.00000  Uiso   1.00
O912   O     0.75000   0.23822   0.78772   0.00000  Uiso   1.00
O913   O     0.75000   0.23822   0.87895   0.00000  Uiso   1.00
O914   O     0.75000   0.09512   0.78772   0.00000  Uiso   1.00
C915   C     0.74993   0.07265   0.83340   0.00000  Uiso   1.00
C916   C     0.74994   0.26068   0.83327   0.00000  Uiso   1.00
O917   O     0.68393   0.16667   0.87896   0.00000  Uiso   1.00
O918   O     0.81608   0.16667   0.78770   0.00000  Uiso   1.00
O919   O     0.81608   0.16667   0.87896   0.00000  Uiso   1.00
O920   O     0.68393   0.16667   0.78770   0.00000  Uiso   1.00
C921   C     0.66340   0.16641   0.83315   0.00000  Uiso   1.00
C922   C     0.83668   0.16763   0.83347   0.00000  Uiso   1.00
Zn923  Zn    0.75000   0.16667   0.89426   0.00000  Uiso   1.00
Zn924  Zn    0.75000   0.16667   0.77241   0.00000  Uiso   1.00
N925   N     0.75000   0.16667   0.69121   0.00000  Uiso   1.00
N926   N     0.75000   0.16667   0.97545   0.00000  Uiso   1.00
C927   C     0.90691   0.21198   0.82052   0.00000  Uiso   1.00
C928   C     0.59316   0.12133   0.83110   0.00000  Uiso   1.00
C929   C     0.90667   0.12365   0.84593   0.00000  Uiso   1.00
C930   C     0.59350   0.21158   0.83217   0.00000  Uiso   1.00
C931   C     0.88436   0.16789   0.83356   0.00000  Uiso   1.00
C932   C     0.61588   0.16641   0.83255   0.00000  Uiso   1.00
C933   C     0.95333   0.12244   0.84277   0.00000  Uiso   1.00
C934   C     0.54725   0.21154   0.82426   0.00000  Uiso   1.00
C935   C     0.95370   0.21181   0.81985   0.00000  Uiso   1.00
C936   C     0.54679   0.12146   0.83717   0.00000  Uiso   1.00
C937   C     0.97674   0.16690   0.83084   0.00000  Uiso   1.00
C938   C     0.52352   0.16661   0.83064   0.00000  Uiso   1.00
C939   C     0.97729   0.07823   0.85215   0.00000  Uiso   1.00
C940   C     0.52446   0.25496   0.81033   0.00000  Uiso   1.00
C941   C     0.97822   0.25520   0.80794   0.00000  Uiso   1.00
C942   C     0.52348   0.07792   0.84944   0.00000  Uiso   1.00
C943   C     0.74968   0.02169   0.83345   0.00000  Uiso   1.00
C944   C     0.74969   0.31163   0.83324   0.00000  Uiso   1.00
F945   F     0.95658   0.03498   0.86474   0.00000  Uiso   1.00
F946   F     0.54703   0.29639   0.79510   0.00000  Uiso   1.00
F947   F     0.95806   0.29798   0.79264   0.00000  Uiso   1.00
F948   F     0.54553   0.03575   0.86305   0.00000  Uiso   1.00
O949   O     0.88361   0.25639   0.81858   0.00000  Uiso   1.00
C950   C     0.87017   0.26725   0.76411   0.00000  Uiso   1.00
H951   H     0.84016   0.24544   0.75288   0.00000  Uiso   1.00
H952   H     0.89683   0.25958   0.73351   0.00000  Uiso   1.00
C953   C     0.85767   0.32191   0.76047   0.00000  Uiso   1.00
H954   H     0.88815   0.01204   0.75875   0.00000  Uiso   1.00
H955   H     0.83707   0.32871   0.72328   0.00000  Uiso   1.00
H956   H     0.83796   0.33284   0.79684   0.00000  Uiso   1.00
O957   O     0.61664   0.07790   0.82248   0.00000  Uiso   1.00
C958   C     0.61246   0.06545   0.76627   0.00000  Uiso   1.00
H959   H     0.61943   0.09783   0.73893   0.00000  Uiso   1.00
H960   H     0.57822   0.05135   0.75733   0.00000  Uiso   1.00
C961   C     0.64576   0.02511   0.75208   0.00000  Uiso   1.00
H962   H     0.64181   0.32620   0.77984   0.00000  Uiso   1.00
H963   H     0.64003   0.01266   0.70934   0.00000  Uiso   1.00
H964   H     0.68028   0.03969   0.75556   0.00000  Uiso   1.00
O965   O     0.88219   0.08088   0.85602   0.00000  Uiso   1.00
C966   C     0.87794   0.07395   0.91335   0.00000  Uiso   1.00
H967   H     0.85419   0.10105   0.93093   0.00000  Uiso   1.00
H968   H     0.91047   0.07786   0.93543   0.00000  Uiso   1.00
C969   C     0.86003   0.02204   0.92412   0.00000  Uiso   1.00
H970   H     0.88253   0.32723   0.90598   0.00000  Uiso   1.00
H971   H     0.85804   0.01548   0.96889   0.00000  Uiso   1.00
H972   H     0.82619   0.01793   0.90590   0.00000  Uiso   1.00
O973   O     0.61728   0.25504   0.84032   0.00000  Uiso   1.00
C974   C     0.61207   0.26938   0.89574   0.00000  Uiso   1.00
H975   H     0.61711   0.23769   0.92472   0.00000  Uiso   1.00
H976   H     0.57814   0.28497   0.90215   0.00000  Uiso   1.00
C977   C     0.64639   0.30892   0.91020   0.00000  Uiso   1.00
H978   H     0.64612   0.00571   0.87927   0.00000  Uiso   1.00
H979   H     0.63850   0.32497   0.95078   0.00000  Uiso   1.00
H980   H     0.68018   0.29230   0.91221   0.00000  Uiso   1.00
O981   O     0.25000   0.42845   0.87895   0.00000  Uiso   1.00
O982   O     0.25000   0.57155   0.78772   0.00000  Uiso   1.00
O983   O     0.25000   0.57155   0.87895   0.00000  Uiso   1.00
O984   O     0.25000   0.42845   0.78772   0.00000  Uiso   1.00
C985   C     0.24993   0.40598   0.83340   0.00000  Uiso   1.00
C986   C     0.24994   0.59402   0.83327   0.00000  Uiso   1.00
O987   O     0.18393   0.50000   0.87896   0.00000  Uiso   1.00
O988   O     0.31608   0.50000   0.78770   0.00000  Uiso   1.00
O989   O     0.31608   0.50000   0.87896   0.00000  Uiso   1.00
O990   O     0.18393   0.50000   0.78770   0.00000  Uiso   1.00
C991   C     0.16340   0.49974   0.83315   0.00000  Uiso   1.00
C992   C     0.33668   0.50096   0.83347   0.00000  Uiso   1.00
Zn993  Zn    0.25000   0.50000   0.89426   0.00000  Uiso   1.00
Zn994  Zn    0.25000   0.50000   0.77241   0.00000  Uiso   1.00
N995   N     0.25000   0.50000   0.69121   0.00000  Uiso   1.00
N996   N     0.25000   0.50000   0.97545   0.00000  Uiso   1.00
C997   C     0.40691   0.54531   0.82052   0.00000  Uiso   1.00
C998   C     0.09316   0.45466   0.83110   0.00000  Uiso   1.00
C999   C     0.40667   0.45698   0.84593   0.00000  Uiso   1.00
C1000  C     0.09350   0.54491   0.83217   0.00000  Uiso   1.00
C1001  C     0.38436   0.50122   0.83356   0.00000  Uiso   1.00
C1002  C     0.11588   0.49975   0.83255   0.00000  Uiso   1.00
C1003  C     0.45333   0.45577   0.84277   0.00000  Uiso   1.00
C1004  C     0.04725   0.54488   0.82426   0.00000  Uiso   1.00
C1005  C     0.45370   0.54515   0.81985   0.00000  Uiso   1.00
C1006  C     0.04679   0.45480   0.83717   0.00000  Uiso   1.00
C1007  C     0.47674   0.50023   0.83084   0.00000  Uiso   1.00
C1008  C     0.02352   0.49994   0.83064   0.00000  Uiso   1.00
C1009  C     0.47729   0.41156   0.85215   0.00000  Uiso   1.00
C1010  C     0.02446   0.58830   0.81033   0.00000  Uiso   1.00
C1011  C     0.47822   0.58854   0.80794   0.00000  Uiso   1.00
C1012  C     0.02348   0.41125   0.84944   0.00000  Uiso   1.00
C1013  C     0.24968   0.35503   0.83345   0.00000  Uiso   1.00
C1014  C     0.24969   0.64497   0.83324   0.00000  Uiso   1.00
F1015  F     0.45658   0.36831   0.86474   0.00000  Uiso   1.00
F1016  F     0.04703   0.62972   0.79510   0.00000  Uiso   1.00
F1017  F     0.45806   0.63131   0.79264   0.00000  Uiso   1.00
F1018  F     0.04553   0.36909   0.86305   0.00000  Uiso   1.00
O1019  O     0.38361   0.58973   0.81858   0.00000  Uiso   1.00
C1020  C     0.37017   0.60059   0.76411   0.00000  Uiso   1.00
H1021  H     0.34016   0.57877   0.75288   0.00000  Uiso   1.00
H1022  H     0.39683   0.59292   0.73351   0.00000  Uiso   1.00
C1023  C     0.35767   0.65524   0.76047   0.00000  Uiso   1.00
H1024  H     0.38815   0.34538   0.75875   0.00000  Uiso   1.00
H1025  H     0.33707   0.66204   0.72328   0.00000  Uiso   1.00
H1026  H     0.33796   0.66617   0.79684   0.00000  Uiso   1.00
O1027  O     0.11664   0.41124   0.82248   0.00000  Uiso   1.00
C1028  C     0.11246   0.39878   0.76627   0.00000  Uiso   1.00
H1029  H     0.11943   0.43116   0.73893   0.00000  Uiso   1.00
H1030  H     0.07822   0.38468   0.75733   0.00000  Uiso   1.00
C1031  C     0.14576   0.35844   0.75208   0.00000  Uiso   1.00
H1032  H     0.14181   0.65954   0.77984   0.00000  Uiso   1.00
H1033  H     0.14003   0.34600   0.70934   0.00000  Uiso   1.00
H1034  H     0.18028   0.37303   0.75556   0.00000  Uiso   1.00
O1035  O     0.38219   0.41422   0.85602   0.00000  Uiso   1.00
C1036  C     0.37794   0.40729   0.91335   0.00000  Uiso   1.00
H1037  H     0.35419   0.43438   0.93093   0.00000  Uiso   1.00
H1038  H     0.41047   0.41119   0.93543   0.00000  Uiso   1.00
C1039  C     0.36003   0.35537   0.92412   0.00000  Uiso   1.00
H1040  H     0.38253   0.66056   0.90598   0.00000  Uiso   1.00
H1041  H     0.35804   0.34882   0.96889   0.00000  Uiso   1.00
H1042  H     0.32619   0.35127   0.90590   0.00000  Uiso   1.00
O1043  O     0.11728   0.58838   0.84032   0.00000  Uiso   1.00
C1044  C     0.11207   0.60272   0.89574   0.00000  Uiso   1.00
H1045  H     0.11711   0.57102   0.92472   0.00000  Uiso   1.00
H1046  H     0.07814   0.61830   0.90215   0.00000  Uiso   1.00
C1047  C     0.14639   0.64225   0.91020   0.00000  Uiso   1.00
H1048  H     0.14612   0.33904   0.87927   0.00000  Uiso   1.00
H1049  H     0.13850   0.65830   0.95078   0.00000  Uiso   1.00
H1050  H     0.18018   0.62563   0.91221   0.00000  Uiso   1.00
O1051  O     0.75000   0.42845   0.87895   0.00000  Uiso   1.00
O1052  O     0.75000   0.57155   0.78772   0.00000  Uiso   1.00
O1053  O     0.75000   0.57155   0.87895   0.00000  Uiso   1.00
O1054  O     0.75000   0.42845   0.78772   0.00000  Uiso   1.00
C1055  C     0.74993   0.40598   0.83340   0.00000  Uiso   1.00
C1056  C     0.74994   0.59402   0.83327   0.00000  Uiso   1.00
O1057  O     0.68393   0.50000   0.87896   0.00000  Uiso   1.00
O1058  O     0.81608   0.50000   0.78770   0.00000  Uiso   1.00
O1059  O     0.81608   0.50000   0.87896   0.00000  Uiso   1.00
O1060  O     0.68393   0.50000   0.78770   0.00000  Uiso   1.00
C1061  C     0.66340   0.49974   0.83315   0.00000  Uiso   1.00
C1062  C     0.83668   0.50096   0.83347   0.00000  Uiso   1.00
Zn1063 Zn    0.75000   0.50000   0.89426   0.00000  Uiso   1.00
Zn1064 Zn    0.75000   0.50000   0.77241   0.00000  Uiso   1.00
N1065  N     0.75000   0.50000   0.69121   0.00000  Uiso   1.00
N1066  N     0.75000   0.50000   0.97545   0.00000  Uiso   1.00
C1067  C     0.90691   0.54531   0.82052   0.00000  Uiso   1.00
C1068  C     0.59316   0.45466   0.83110   0.00000  Uiso   1.00
C1069  C     0.90667   0.45698   0.84593   0.00000  Uiso   1.00
C1070  C     0.59350   0.54491   0.83217   0.00000  Uiso   1.00
C1071  C     0.88436   0.50122   0.83356   0.00000  Uiso   1.00
C1072  C     0.61588   0.49975   0.83255   0.00000  Uiso   1.00
C1073  C     0.95333   0.45577   0.84277   0.00000  Uiso   1.00
C1074  C     0.54725   0.54488   0.82426   0.00000  Uiso   1.00
C1075  C     0.95370   0.54515   0.81985   0.00000  Uiso   1.00
C1076  C     0.54679   0.45480   0.83717   0.00000  Uiso   1.00
C1077  C     0.97674   0.50023   0.83084   0.00000  Uiso   1.00
C1078  C     0.52352   0.49994   0.83064   0.00000  Uiso   1.00
C1079  C     0.97729   0.41156   0.85215   0.00000  Uiso   1.00
C1080  C     0.52446   0.58830   0.81033   0.00000  Uiso   1.00
C1081  C     0.97822   0.58854   0.80794   0.00000  Uiso   1.00
C1082  C     0.52348   0.41125   0.84944   0.00000  Uiso   1.00
C1083  C     0.74968   0.35503   0.83345   0.00000  Uiso   1.00
C1084  C     0.74969   0.64497   0.83324   0.00000  Uiso   1.00
F1085  F     0.95658   0.36831   0.86474   0.00000  Uiso   1.00
F1086  F     0.54703   0.62972   0.79510   0.00000  Uiso   1.00
F1087  F     0.95806   0.63131   0.79264   0.00000  Uiso   1.00
F1088  F     0.54553   0.36909   0.86305   0.00000  Uiso   1.00
O1089  O     0.88361   0.58973   0.81858   0.00000  Uiso   1.00
C1090  C     0.87017   0.60059   0.76411   0.00000  Uiso   1.00
H1091  H     0.84016   0.57877   0.75288   0.00000  Uiso   1.00
H1092  H     0.89683   0.59292   0.73351   0.00000  Uiso   1.00
C1093  C     0.85767   0.65524   0.76047   0.00000  Uiso   1.00
H1094  H     0.88815   0.34538   0.75875   0.00000  Uiso   1.00
H1095  H     0.83707   0.66204   0.72328   0.00000  Uiso   1.00
H1096  H     0.83796   0.66617   0.79684   0.00000  Uiso   1.00
O1097  O     0.61664   0.41124   0.82248   0.00000  Uiso   1.00
C1098  C     0.61246   0.39878   0.76627   0.00000  Uiso   1.00
H1099  H     0.61943   0.43116   0.73893   0.00000  Uiso   1.00
H1100  H     0.57822   0.38468   0.75733   0.00000  Uiso   1.00
C1101  C     0.64576   0.35844   0.75208   0.00000  Uiso   1.00
H1102  H     0.64181   0.65954   0.77984   0.00000  Uiso   1.00
H1103  H     0.64003   0.34600   0.70934   0.00000  Uiso   1.00
H1104  H     0.68028   0.37303   0.75556   0.00000  Uiso   1.00
O1105  O     0.88219   0.41422   0.85602   0.00000  Uiso   1.00
C1106  C     0.87794   0.40729   0.91335   0.00000  Uiso   1.00
H1107  H     0.85419   0.43438   0.93093   0.00000  Uiso   1.00
H1108  H     0.91047   0.41119   0.93543   0.00000  Uiso   1.00
C1109  C     0.86003   0.35537   0.92412   0.00000  Uiso   1.00
H1110  H     0.88253   0.66056   0.90598   0.00000  Uiso   1.00
H1111  H     0.85804   0.34882   0.96889   0.00000  Uiso   1.00
H1112  H     0.82619   0.35127   0.90590   0.00000  Uiso   1.00
O1113  O     0.61728   0.58838   0.84032   0.00000  Uiso   1.00
C1114  C     0.61207   0.60272   0.89574   0.00000  Uiso   1.00
H1115  H     0.61711   0.57102   0.92472   0.00000  Uiso   1.00
H1116  H     0.57814   0.61830   0.90215   0.00000  Uiso   1.00
C1117  C     0.64639   0.64225   0.91020   0.00000  Uiso   1.00
H1118  H     0.64612   0.33904   0.87927   0.00000  Uiso   1.00
H1119  H     0.63850   0.65830   0.95078   0.00000  Uiso   1.00
H1120  H     0.68018   0.62563   0.91221   0.00000  Uiso   1.00
O1121  O     0.25000   0.76178   0.87895   0.00000  Uiso   1.00
O1122  O     0.25000   0.90488   0.78772   0.00000  Uiso   1.00
O1123  O     0.25000   0.90488   0.87895   0.00000  Uiso   1.00
O1124  O     0.25000   0.76178   0.78772   0.00000  Uiso   1.00
C1125  C     0.24993   0.73932   0.83340   0.00000  Uiso   1.00
C1126  C     0.24994   0.92735   0.83327   0.00000  Uiso   1.00
O1127  O     0.18393   0.83333   0.87896   0.00000  Uiso   1.00
O1128  O     0.31608   0.83333   0.78770   0.00000  Uiso   1.00
O1129  O     0.31608   0.83333   0.87896   0.00000  Uiso   1.00
O1130  O     0.18393   0.83333   0.78770   0.00000  Uiso   1.00
C1131  C     0.16340   0.83308   0.83315   0.00000  Uiso   1.00
C1132  C     0.33668   0.83430   0.83347   0.00000  Uiso   1.00
Zn1133 Zn    0.25000   0.83333   0.89426   0.00000  Uiso   1.00
Zn1134 Zn    0.25000   0.83333   0.77241   0.00000  Uiso   1.00
N1135  N     0.25000   0.83333   0.69121   0.00000  Uiso   1.00
N1136  N     0.25000   0.83333   0.97545   0.00000  Uiso   1.00
C1137  C     0.40691   0.87864   0.82052   0.00000  Uiso   1.00
C1138  C     0.09316   0.78799   0.83110   0.00000  Uiso   1.00
C1139  C     0.40667   0.79031   0.84593   0.00000  Uiso   1.00
C1140  C     0.09350   0.87824   0.83217   0.00000  Uiso   1.00
C1141  C     0.38436   0.83455   0.83356   0.00000  Uiso   1.00
C1142  C     0.11588   0.83308   0.83255   0.00000  Uiso   1.00
C1143  C     0.45333   0.78910   0.84277   0.00000  Uiso   1.00
C1144  C     0.04725   0.87821   0.82426   0.00000  Uiso   1.00
C1145  C     0.45370   0.87848   0.81985   0.00000  Uiso   1.00
C1146  C     0.04679   0.78813   0.83717   0.00000  Uiso   1.00
C1147  C     0.47674   0.83357   0.83084   0.00000  Uiso   1.00
C1148  C     0.02352   0.83328   0.83064   0.00000  Uiso   1.00
C1149  C     0.47729   0.74489   0.85215   0.00000  Uiso   1.00
C1150  C     0.02446   0.92163   0.81033   0.00000  Uiso   1.00
C1151  C     0.47822   0.92187   0.80794   0.00000  Uiso   1.00
C1152  C     0.02348   0.74459   0.84944   0.00000  Uiso   1.00
C1153  C     0.24968   0.68836   0.83345   0.00000  Uiso   1.00
C1154  C     0.24969   0.97830   0.83324   0.00000  Uiso   1.00
F1155  F     0.45658   0.70164   0.86474   0.00000  Uiso   1.00
F1156  F     0.04703   0.96305   0.79510   0.00000  Uiso   1.00
F1157  F     0.45806   0.96465   0.79264   0.00000  Uiso   1.00
F1158  F     0.04553   0.70242   0.86305   0.00000  Uiso   1.00
O1159  O     0.38361   0.92306   0.81858   0.00000  Uiso   1.00
C1160  C     0.37017   0.93392   0.76411   0.00000  Uiso   1.00
H1161  H     0.34016   0.91210   0.75288   0.00000  Uiso   1.00
H1162  H     0.39683   0.92625   0.73351   0.00000  Uiso   1.00
C1163  C     0.35767   0.98858   0.76047   0.00000  Uiso   1.00
H1164  H     0.38815   0.67871   0.75875   0.00000  Uiso   1.00
H1165  H     0.33707   0.99537   0.72328   0.00000  Uiso   1.00
H1166  H     0.33796   0.99951   0.79684   0.00000  Uiso   1.00
O1167  O     0.11664   0.74457   0.82248   0.00000  Uiso   1.00
C1168  C     0.11246   0.73211   0.76627   0.00000  Uiso   1.00
H1169  H     0.11943   0.76450   0.73893   0.00000  Uiso   1.00
H1170  H     0.07822   0.71802   0.75733   0.00000  Uiso   1.00
C1171  C     0.14576   0.69178   0.75208   0.00000  Uiso   1.00
H1172  H     0.14181   0.99287   0.77984   0.00000  Uiso   1.00
H1173  H     0.14003   0.67933   0.70934   0.00000  Uiso   1.00
H1174  H     0.18028   0.70636   0.75556   0.00000  Uiso   1.00
O1175  O     0.38219   0.74755   0.85602   0.00000  Uiso   1.00
C1176  C     0.37794   0.74062   0.91335   0.00000  Uiso   1.00
H1177  H     0.35419   0.76771   0.93093   0.00000  Uiso   1.00
H1178  H     0.41047   0.74452   0.93543   0.00000  Uiso   1.00
C1179  C     0.36003   0.68871   0.92412   0.00000  Uiso   1.00
H1180  H     0.38253   0.99389   0.90598   0.00000  Uiso   1.00
H1181  H     0.35804   0.68215   0.96889   0.00000  Uiso   1.00
H1182  H     0.32619   0.68460   0.90590   0.00000  Uiso   1.00
O1183  O     0.11728   0.92171   0.84032   0.00000  Uiso   1.00
C1184  C     0.11207   0.93605   0.89574   0.00000  Uiso   1.00
H1185  H     0.11711   0.90435   0.92472   0.00000  Uiso   1.00
H1186  H     0.07814   0.95164   0.90215   0.00000  Uiso   1.00
C1187  C     0.14639   0.97558   0.91020   0.00000  Uiso   1.00
H1188  H     0.14612   0.67237   0.87927   0.00000  Uiso   1.00
H1189  H     0.13850   0.99164   0.95078   0.00000  Uiso   1.00
H1190  H     0.18018   0.95897   0.91221   0.00000  Uiso   1.00
O1191  O     0.75000   0.76178   0.87895   0.00000  Uiso   1.00
O1192  O     0.75000   0.90488   0.78772   0.00000  Uiso   1.00
O1193  O     0.75000   0.90488   0.87895   0.00000  Uiso   1.00
O1194  O     0.75000   0.76178   0.78772   0.00000  Uiso   1.00
C1195  C     0.74993   0.73932   0.83340   0.00000  Uiso   1.00
C1196  C     0.74994   0.92735   0.83327   0.00000  Uiso   1.00
O1197  O     0.68393   0.83333   0.87896   0.00000  Uiso   1.00
O1198  O     0.81608   0.83333   0.78770   0.00000  Uiso   1.00
O1199  O     0.81608   0.83333   0.87896   0.00000  Uiso   1.00
O1200  O     0.68393   0.83333   0.78770   0.00000  Uiso   1.00
C1201  C     0.66340   0.83308   0.83315   0.00000  Uiso   1.00
C1202  C     0.83668   0.83430   0.83347   0.00000  Uiso   1.00
Zn1203 Zn    0.75000   0.83333   0.89426   0.00000  Uiso   1.00
Zn1204 Zn    0.75000   0.83333   0.77241   0.00000  Uiso   1.00
N1205  N     0.75000   0.83333   0.69121   0.00000  Uiso   1.00
N1206  N     0.75000   0.83333   0.97545   0.00000  Uiso   1.00
C1207  C     0.90691   0.87864   0.82052   0.00000  Uiso   1.00
C1208  C     0.59316   0.78799   0.83110   0.00000  Uiso   1.00
C1209  C     0.90667   0.79031   0.84593   0.00000  Uiso   1.00
C1210  C     0.59350   0.87824   0.83217   0.00000  Uiso   1.00
C1211  C     0.88436   0.83455   0.83356   0.00000  Uiso   1.00
C1212  C     0.61588   0.83308   0.83255   0.00000  Uiso   1.00
C1213  C     0.95333   0.78910   0.84277   0.00000  Uiso   1.00
C1214  C     0.54725   0.87821   0.82426   0.00000  Uiso   1.00
C1215  C     0.95370   0.87848   0.81985   0.00000  Uiso   1.00
C1216  C     0.54679   0.78813   0.83717   0.00000  Uiso   1.00
C1217  C     0.97674   0.83357   0.83084   0.00000  Uiso   1.00
C1218  C     0.52352   0.83328   0.83064   0.00000  Uiso   1.00
C1219  C     0.97729   0.74489   0.85215   0.00000  Uiso   1.00
C1220  C     0.52446   0.92163   0.81033   0.00000  Uiso   1.00
C1221  C     0.97822   0.92187   0.80794   0.00000  Uiso   1.00
C1222  C     0.52348   0.74459   0.84944   0.00000  Uiso   1.00
C1223  C     0.74968   0.68836   0.83345   0.00000  Uiso   1.00
C1224  C     0.74969   0.97830   0.83324   0.00000  Uiso   1.00
F1225  F     0.95658   0.70164   0.86474   0.00000  Uiso   1.00
F1226  F     0.54703   0.96305   0.79510   0.00000  Uiso   1.00
F1227  F     0.95806   0.96465   0.79264   0.00000  Uiso   1.00
F1228  F     0.54553   0.70242   0.86305   0.00000  Uiso   1.00
O1229  O     0.88361   0.92306   0.81858   0.00000  Uiso   1.00
C1230  C     0.87017   0.93392   0.76411   0.00000  Uiso   1.00
H1231  H     0.84016   0.91210   0.75288   0.00000  Uiso   1.00
H1232  H     0.89683   0.92625   0.73351   0.00000  Uiso   1.00
C1233  C     0.85767   0.98858   0.76047   0.00000  Uiso   1.00
H1234  H     0.88815   0.67871   0.75875   0.00000  Uiso   1.00
H1235  H     0.83707   0.99537   0.72328   0.00000  Uiso   1.00
H1236  H     0.83796   0.99951   0.79684   0.00000  Uiso   1.00
O1237  O     0.61664   0.74457   0.82248   0.00000  Uiso   1.00
C1238  C     0.61246   0.73211   0.76627   0.00000  Uiso   1.00
H1239  H     0.61943   0.76450   0.73893   0.00000  Uiso   1.00
H1240  H     0.57822   0.71802   0.75733   0.00000  Uiso   1.00
C1241  C     0.64576   0.69178   0.75208   0.00000  Uiso   1.00
H1242  H     0.64181   0.99287   0.77984   0.00000  Uiso   1.00
H1243  H     0.64003   0.67933   0.70934   0.00000  Uiso   1.00
H1244  H     0.68028   0.70636   0.75556   0.00000  Uiso   1.00
O1245  O     0.88219   0.74755   0.85602   0.00000  Uiso   1.00
C1246  C     0.87794   0.74062   0.91335   0.00000  Uiso   1.00
H1247  H     0.85419   0.76771   0.93093   0.00000  Uiso   1.00
H1248  H     0.91047   0.74452   0.93543   0.00000  Uiso   1.00
C1249  C     0.86003   0.68871   0.92412   0.00000  Uiso   1.00
H1250  H     0.88253   0.99389   0.90598   0.00000  Uiso   1.00
H1251  H     0.85804   0.68215   0.96889   0.00000  Uiso   1.00
H1252  H     0.82619   0.68460   0.90590   0.00000  Uiso   1.00
O1253  O     0.61728   0.92171   0.84032   0.00000  Uiso   1.00
C1254  C     0.61207   0.93605   0.89574   0.00000  Uiso   1.00
H1255  H     0.61711   0.90435   0.92472   0.00000  Uiso   1.00
H1256  H     0.57814   0.95164   0.90215   0.00000  Uiso   1.00
C1257  C     0.64639   0.97558   0.91020   0.00000  Uiso   1.00
H1258  H     0.64612   0.67237   0.87927   0.00000  Uiso   1.00
H1259  H     0.63850   0.99164   0.95078   0.00000  Uiso   1.00
H1260  H     0.68018   0.95897   0.91221   0.00000  Uiso   1.00
loop_
_geom_bond_atom_site_label_1
_geom_bond_atom_site_label_2
_geom_bond_distance
_geom_bond_site_symmetry_2
_ccdc_geom_bond_type
O1     C5      1.266   .     A
O1     Zn13    1.966   .     S
O2     C6      1.266   .     A
O2     Zn14    1.966   .     S
O3     Zn13    1.964   .     S
O3     C6      1.265   .     A
O4     C5      1.266   .     A
O4     Zn14    1.964   .     S
C5     C33     1.374   .     S
C6     C34     1.374   .     S
O7     C11     1.271   .     A
O7     Zn13    2.010   .     S
O8     C12     1.271   .     A
O8     Zn14    2.010   .     S
O9     C12     1.272   .     A
O9     Zn13    2.015   .     S
O10    C11     1.269   .     A
O10    Zn14    2.015   .     S
C11    C22     1.422   .     S
C12    C21     1.427   .     S
Zn13   N16     1.978   .     S
Zn14   N15     1.978   .     S
N15    N856    1.196   1_554 S
N16    N435    1.196   .     S
C17    C25     1.401   .     A
C17    O39     1.388   .     S
C17    C21     1.402   .     A
C18    O47     1.384   .     S
C18    C22     1.392   .     A
C18    C26     1.397   .     A
C19    C23     1.400   .     A
C19    C21     1.399   .     A
C19    O55     1.387   .     S
C20    O63     1.384   .     S
C20    C22     1.391   .     A
C20    C24     1.397   .     A
C23    C27     1.418   .     A
C23    C29     1.410   .     A
C24    C30     1.396   .     A
C24    C28     1.412   .     A
C25    C31     1.410   .     A
C25    C27     1.419   .     A
C26    C32     1.397   .     A
C26    C28     1.412   .     A
C27    C98     1.400   .     S
C28    C97     1.400   1_455 S
C29    F35     1.355   .     S
C29    C102    1.385   .     S
C30    F36     1.356   .     S
C30    C101    1.385   1_455 S
C31    F37     1.353   .     S
C31    C100    1.385   .     S
C32    F38     1.355   .     S
C32    C99     1.385   1_455 S
C33    C314    1.170   1_545 S
C34    C173    1.170   .     S
O39    C40     1.414   .     S
C40    C43     1.524   .     S
C40    H42     1.115   .     S
C40    H41     1.106   .     S
C43    H45     1.108   .     S
C43    H46     1.108   .     S
C43    H184    1.110   .     S
H44    C323    1.110   1_545 S
O47    C48     1.416   .     S
C48    H50     1.113   .     S
C48    H49     1.117   .     S
C48    C51     1.519   .     S
C51    H54     1.108   .     S
C51    H53     1.107   .     S
C51    H332    1.106   1_545 S
H52    C191    1.106   .     S
O55    C56     1.415   .     S
C56    C59     1.520   .     S
C56    H58     1.115   .     S
C56    H57     1.109   .     S
C59    H61     1.106   .     S
C59    H62     1.109   .     S
C59    H340    1.110   1_545 S
H60    C199    1.110   .     S
O63    C64     1.415   .     S
C64    H65     1.117   .     S
C64    C67     1.519   .     S
C64    H66     1.112   .     S
C67    H70     1.108   .     S
C67    H69     1.107   .     S
C67    H208    1.106   .     S
H68    C347    1.106   1_545 S
O71    C75     1.266   .     A
O71    Zn83    1.966   .     S
O72    C76     1.266   .     A
O72    Zn84    1.966   .     S
O73    Zn83    1.964   .     S
O73    C76     1.265   .     A
O74    C75     1.266   .     A
O74    Zn84    1.964   .     S
C75    C103    1.374   .     S
C76    C104    1.374   .     S
O77    C81     1.271   .     A
O77    Zn83    2.010   .     S
O78    C82     1.271   .     A
O78    Zn84    2.010   .     S
O79    C82     1.272   .     A
O79    Zn83    2.015   .     S
O80    C81     1.269   .     A
O80    Zn84    2.015   .     S
C81    C92     1.422   .     S
C82    C91     1.427   .     S
Zn83   N86     1.978   .     S
Zn84   N85     1.978   .     S
N85    N926    1.196   1_554 S
N86    N505    1.196   .     S
C87    C95     1.401   .     A
C87    O109    1.388   .     S
C87    C91     1.402   .     A
C88    O117    1.384   .     S
C88    C92     1.392   .     A
C88    C96     1.397   .     A
C89    C93     1.400   .     A
C89    C91     1.399   .     A
C89    O125    1.387   .     S
C90    O133    1.384   .     S
C90    C92     1.391   .     A
C90    C94     1.397   .     A
C93    C97     1.418   .     A
C93    C99     1.410   .     A
C94    C100    1.396   .     A
C94    C98     1.412   .     A
C95    C101    1.410   .     A
C95    C97     1.419   .     A
C96    C102    1.397   .     A
C96    C98     1.412   .     A
C97    C28     1.400   1_655 S
C99    F105    1.355   .     S
C99    C32     1.385   1_655 S
C100   F106    1.356   .     S
C101   F107    1.353   .     S
C101   C30     1.385   1_655 S
C102   F108    1.355   .     S
C103   C384    1.170   1_545 S
C104   C243    1.170   .     S
O109   C110    1.414   .     S
C110   C113    1.524   .     S
C110   H112    1.115   .     S
C110   H111    1.106   .     S
C113   H115    1.108   .     S
C113   H116    1.108   .     S
C113   H254    1.110   .     S
H114   C393    1.110   1_545 S
O117   C118    1.416   .     S
C118   H120    1.113   .     S
C118   H119    1.117   .     S
C118   C121    1.519   .     S
C121   H124    1.108   .     S
C121   H123    1.107   .     S
C121   H402    1.106   1_545 S
H122   C261    1.106   .     S
O125   C126    1.415   .     S
C126   C129    1.520   .     S
C126   H128    1.115   .     S
C126   H127    1.109   .     S
C129   H131    1.106   .     S
C129   H132    1.109   .     S
C129   H410    1.110   1_545 S
H130   C269    1.110   .     S
O133   C134    1.415   .     S
C134   H135    1.117   .     S
C134   C137    1.519   .     S
C134   H136    1.112   .     S
C137   H140    1.108   .     S
C137   H139    1.107   .     S
C137   H278    1.106   .     S
H138   C417    1.106   1_545 S
O141   C145    1.266   .     A
O141   Zn153   1.966   .     S
O142   C146    1.266   .     A
O142   Zn154   1.966   .     S
O143   Zn153   1.964   .     S
O143   C146    1.265   .     A
O144   C145    1.266   .     A
O144   Zn154   1.964   .     S
C145   C173    1.374   .     S
C146   C174    1.374   .     S
O147   C151    1.271   .     A
O147   Zn153   2.010   .     S
O148   C152    1.271   .     A
O148   Zn154   2.010   .     S
O149   C152    1.272   .     A
O149   Zn153   2.015   .     S
O150   C151    1.269   .     A
O150   Zn154   2.015   .     S
C151   C162    1.422   .     S
C152   C161    1.427   .     S
Zn153  N156    1.978   .     S
Zn154  N155    1.978   .     S
N155   N996    1.196   1_554 S
N156   N575    1.196   .     S
C157   C165    1.401   .     A
C157   O179    1.388   .     S
C157   C161    1.402   .     A
C158   O187    1.384   .     S
C158   C162    1.392   .     A
C158   C166    1.397   .     A
C159   C163    1.400   .     A
C159   C161    1.399   .     A
C159   O195    1.387   .     S
C160   O203    1.384   .     S
C160   C162    1.391   .     A
C160   C164    1.397   .     A
C163   C167    1.418   .     A
C163   C169    1.410   .     A
C164   C170    1.396   .     A
C164   C168    1.412   .     A
C165   C171    1.410   .     A
C165   C167    1.419   .     A
C166   C172    1.397   .     A
C166   C168    1.412   .     A
C167   C238    1.400   .     S
C168   C237    1.400   1_455 S
C169   F175    1.355   .     S
C169   C242    1.385   .     S
C170   F176    1.356   .     S
C170   C241    1.385   1_455 S
C171   F177    1.353   .     S
C171   C240    1.385   .     S
C172   F178    1.355   .     S
C172   C239    1.385   1_455 S
C174   C313    1.170   .     S
O179   C180    1.414   .     S
C180   C183    1.524   .     S
C180   H182    1.115   .     S
C180   H181    1.106   .     S
C183   H185    1.108   .     S
C183   H186    1.108   .     S
C183   H324    1.110   .     S
O187   C188    1.416   .     S
C188   H190    1.113   .     S
C188   H189    1.117   .     S
C188   C191    1.519   .     S
C191   H194    1.108   .     S
C191   H193    1.107   .     S
H192   C331    1.106   .     S
O195   C196    1.415   .     S
C196   C199    1.520   .     S
C196   H198    1.115   .     S
C196   H197    1.109   .     S
C199   H201    1.106   .     S
C199   H202    1.109   .     S
H200   C339    1.110   .     S
O203   C204    1.415   .     S
C204   H205    1.117   .     S
C204   C207    1.519   .     S
C204   H206    1.112   .     S
C207   H210    1.108   .     S
C207   H209    1.107   .     S
C207   H348    1.106   .     S
O211   C215    1.266   .     A
O211   Zn223   1.966   .     S
O212   C216    1.266   .     A
O212   Zn224   1.966   .     S
O213   Zn223   1.964   .     S
O213   C216    1.265   .     A
O214   C215    1.266   .     A
O214   Zn224   1.964   .     S
C215   C243    1.374   .     S
C216   C244    1.374   .     S
O217   C221    1.271   .     A
O217   Zn223   2.010   .     S
O218   C222    1.271   .     A
O218   Zn224   2.010   .     S
O219   C222    1.272   .     A
O219   Zn223   2.015   .     S
O220   C221    1.269   .     A
O220   Zn224   2.015   .     S
C221   C232    1.422   .     S
C222   C231    1.427   .     S
Zn223  N226    1.978   .     S
Zn224  N225    1.978   .     S
N225   N1066   1.196   1_554 S
N226   N645    1.196   .     S
C227   C235    1.401   .     A
C227   O249    1.388   .     S
C227   C231    1.402   .     A
C228   O257    1.384   .     S
C228   C232    1.392   .     A
C228   C236    1.397   .     A
C229   C233    1.400   .     A
C229   C231    1.399   .     A
C229   O265    1.387   .     S
C230   O273    1.384   .     S
C230   C232    1.391   .     A
C230   C234    1.397   .     A
C233   C237    1.418   .     A
C233   C239    1.410   .     A
C234   C240    1.396   .     A
C234   C238    1.412   .     A
C235   C241    1.410   .     A
C235   C237    1.419   .     A
C236   C242    1.397   .     A
C236   C238    1.412   .     A
C237   C168    1.400   1_655 S
C239   F245    1.355   .     S
C239   C172    1.385   1_655 S
C240   F246    1.356   .     S
C241   F247    1.353   .     S
C241   C170    1.385   1_655 S
C242   F248    1.355   .     S
C244   C383    1.170   .     S
O249   C250    1.414   .     S
C250   C253    1.524   .     S
C250   H252    1.115   .     S
C250   H251    1.106   .     S
C253   H255    1.108   .     S
C253   H256    1.108   .     S
C253   H394    1.110   .     S
O257   C258    1.416   .     S
C258   H260    1.113   .     S
C258   H259    1.117   .     S
C258   C261    1.519   .     S
C261   H264    1.108   .     S
C261   H263    1.107   .     S
H262   C401    1.106   .     S
O265   C266    1.415   .     S
C266   C269    1.520   .     S
C266   H268    1.115   .     S
C266   H267    1.109   .     S
C269   H271    1.106   .     S
C269   H272    1.109   .     S
H270   C409    1.110   .     S
O273   C274    1.415   .     S
C274   H275    1.117   .     S
C274   C277    1.519   .     S
C274   H276    1.112   .     S
C277   H280    1.108   .     S
C277   H279    1.107   .     S
C277   H418    1.106   .     S
O281   C285    1.266   .     A
O281   Zn293   1.966   .     S
O282   C286    1.266   .     A
O282   Zn294   1.966   .     S
O283   Zn293   1.964   .     S
O283   C286    1.265   .     A
O284   C285    1.266   .     A
O284   Zn294   1.964   .     S
C285   C313    1.374   .     S
C286   C314    1.374   .     S
O287   C291    1.271   .     A
O287   Zn293   2.010   .     S
O288   C292    1.271   .     A
O288   Zn294   2.010   .     S
O289   C292    1.272   .     A
O289   Zn293   2.015   .     S
O290   C291    1.269   .     A
O290   Zn294   2.015   .     S
C291   C302    1.422   .     S
C292   C301    1.427   .     S
Zn293  N296    1.978   .     S
Zn294  N295    1.978   .     S
N295   N1136   1.196   1_554 S
N296   N715    1.196   .     S
C297   C305    1.401   .     A
C297   O319    1.388   .     S
C297   C301    1.402   .     A
C298   O327    1.384   .     S
C298   C302    1.392   .     A
C298   C306    1.397   .     A
C299   C303    1.400   .     A
C299   C301    1.399   .     A
C299   O335    1.387   .     S
C300   O343    1.384   .     S
C300   C302    1.391   .     A
C300   C304    1.397   .     A
C303   C307    1.418   .     A
C303   C309    1.410   .     A
C304   C310    1.396   .     A
C304   C308    1.412   .     A
C305   C311    1.410   .     A
C305   C307    1.419   .     A
C306   C312    1.397   .     A
C306   C308    1.412   .     A
C307   C378    1.400   .     S
C308   C377    1.400   1_455 S
C309   F315    1.355   .     S
C309   C382    1.385   .     S
C310   F316    1.356   .     S
C310   C381    1.385   1_455 S
C311   F317    1.353   .     S
C311   C380    1.385   .     S
C312   F318    1.355   .     S
C312   C379    1.385   1_455 S
C314   C33     1.170   1_565 S
O319   C320    1.414   .     S
C320   C323    1.524   .     S
C320   H322    1.115   .     S
C320   H321    1.106   .     S
C323   H325    1.108   .     S
C323   H326    1.108   .     S
C323   H44     1.110   1_565 S
O327   C328    1.416   .     S
C328   H330    1.113   .     S
C328   H329    1.117   .     S
C328   C331    1.519   .     S
C331   H334    1.108   .     S
C331   H333    1.107   .     S
H332   C51     1.106   1_565 S
O335   C336    1.415   .     S
C336   C339    1.520   .     S
C336   H338    1.115   .     S
C336   H337    1.109   .     S
C339   H341    1.106   .     S
C339   H342    1.109   .     S
H340   C59     1.110   1_565 S
O343   C344    1.415   .     S
C344   H345    1.117   .     S
C344   C347    1.519   .     S
C344   H346    1.112   .     S
C347   H350    1.108   .     S
C347   H349    1.107   .     S
C347   H68     1.106   1_565 S
O351   C355    1.266   .     A
O351   Zn363   1.966   .     S
O352   C356    1.266   .     A
O352   Zn364   1.966   .     S
O353   Zn363   1.964   .     S
O353   C356    1.265   .     A
O354   C355    1.266   .     A
O354   Zn364   1.964   .     S
C355   C383    1.374   .     S
C356   C384    1.374   .     S
O357   C361    1.271   .     A
O357   Zn363   2.010   .     S
O358   C362    1.271   .     A
O358   Zn364   2.010   .     S
O359   C362    1.272   .     A
O359   Zn363   2.015   .     S
O360   C361    1.269   .     A
O360   Zn364   2.015   .     S
C361   C372    1.422   .     S
C362   C371    1.427   .     S
Zn363  N366    1.978   .     S
Zn364  N365    1.978   .     S
N365   N1206   1.196   1_554 S
N366   N785    1.196   .     S
C367   C375    1.401   .     A
C367   O389    1.388   .     S
C367   C371    1.402   .     A
C368   O397    1.384   .     S
C368   C372    1.392   .     A
C368   C376    1.397   .     A
C369   C373    1.400   .     A
C369   C371    1.399   .     A
C369   O405    1.387   .     S
C370   O413    1.384   .     S
C370   C372    1.391   .     A
C370   C374    1.397   .     A
C373   C377    1.418   .     A
C373   C379    1.410   .     A
C374   C380    1.396   .     A
C374   C378    1.412   .     A
C375   C381    1.410   .     A
C375   C377    1.419   .     A
C376   C382    1.397   .     A
C376   C378    1.412   .     A
C377   C308    1.400   1_655 S
C379   F385    1.355   .     S
C379   C312    1.385   1_655 S
C380   F386    1.356   .     S
C381   F387    1.353   .     S
C381   C310    1.385   1_655 S
C382   F388    1.355   .     S
C384   C103    1.170   1_565 S
O389   C390    1.414   .     S
C390   C393    1.524   .     S
C390   H392    1.115   .     S
C390   H391    1.106   .     S
C393   H395    1.108   .     S
C393   H396    1.108   .     S
C393   H114    1.110   1_565 S
O397   C398    1.416   .     S
C398   H400    1.113   .     S
C398   H399    1.117   .     S
C398   C401    1.519   .     S
C401   H404    1.108   .     S
C401   H403    1.107   .     S
H402   C121    1.106   1_565 S
O405   C406    1.415   .     S
C406   C409    1.520   .     S
C406   H408    1.115   .     S
C406   H407    1.109   .     S
C409   H411    1.106   .     S
C409   H412    1.109   .     S
H410   C129    1.110   1_565 S
O413   C414    1.415   .     S
C414   H415    1.117   .     S
C414   C417    1.519   .     S
C414   H416    1.112   .     S
C417   H420    1.108   .     S
C417   H419    1.107   .     S
C417   H138    1.106   1_565 S
O421   C425    1.266   .     A
O421   Zn433   1.966   .     S
O422   C426    1.266   .     A
O422   Zn434   1.966   .     S
O423   Zn433   1.964   .     S
O423   C426    1.265   .     A
O424   C425    1.266   .     A
O424   Zn434   1.964   .     S
C425   C453    1.374   .     S
C426   C454    1.374   .     S
O427   C431    1.271   .     A
O427   Zn433   2.010   .     S
O428   C432    1.271   .     A
O428   Zn434   2.010   .     S
O429   C432    1.272   .     A
O429   Zn433   2.015   .     S
O430   C431    1.269   .     A
O430   Zn434   2.015   .     S
C431   C442    1.422   .     S
C432   C441    1.427   .     S
Zn433  N436    1.978   .     S
Zn434  N435    1.978   .     S
N436   N855    1.196   .     S
C437   C445    1.401   .     A
C437   O459    1.388   .     S
C437   C441    1.402   .     A
C438   O467    1.384   .     S
C438   C442    1.392   .     A
C438   C446    1.397   .     A
C439   C443    1.400   .     A
C439   C441    1.399   .     A
C439   O475    1.387   .     S
C440   O483    1.384   .     S
C440   C442    1.391   .     A
C440   C444    1.397   .     A
C443   C447    1.418   .     A
C443   C449    1.410   .     A
C444   C450    1.396   .     A
C444   C448    1.412   .     A
C445   C451    1.410   .     A
C445   C447    1.419   .     A
C446   C452    1.397   .     A
C446   C448    1.412   .     A
C447   C518    1.400   .     S
C448   C517    1.400   1_455 S
C449   F455    1.355   .     S
C449   C522    1.385   .     S
C450   F456    1.356   .     S
C450   C521    1.385   1_455 S
C451   F457    1.353   .     S
C451   C520    1.385   .     S
C452   F458    1.355   .     S
C452   C519    1.385   1_455 S
C453   C734    1.170   1_545 S
C454   C593    1.170   .     S
O459   C460    1.414   .     S
C460   C463    1.524   .     S
C460   H462    1.115   .     S
C460   H461    1.106   .     S
C463   H465    1.108   .     S
C463   H466    1.108   .     S
C463   H604    1.110   .     S
H464   C743    1.110   1_545 S
O467   C468    1.416   .     S
C468   H470    1.113   .     S
C468   H469    1.117   .     S
C468   C471    1.519   .     S
C471   H474    1.108   .     S
C471   H473    1.107   .     S
C471   H752    1.106   1_545 S
H472   C611    1.106   .     S
O475   C476    1.415   .     S
C476   C479    1.520   .     S
C476   H478    1.115   .     S
C476   H477    1.109   .     S
C479   H481    1.106   .     S
C479   H482    1.109   .     S
C479   H760    1.110   1_545 S
H480   C619    1.110   .     S
O483   C484    1.415   .     S
C484   H485    1.117   .     S
C484   C487    1.519   .     S
C484   H486    1.112   .     S
C487   H490    1.108   .     S
C487   H489    1.107   .     S
C487   H628    1.106   .     S
H488   C767    1.106   1_545 S
O491   C495    1.266   .     A
O491   Zn503   1.966   .     S
O492   C496    1.266   .     A
O492   Zn504   1.966   .     S
O493   Zn503   1.964   .     S
O493   C496    1.265   .     A
O494   C495    1.266   .     A
O494   Zn504   1.964   .     S
C495   C523    1.374   .     S
C496   C524    1.374   .     S
O497   C501    1.271   .     A
O497   Zn503   2.010   .     S
O498   C502    1.271   .     A
O498   Zn504   2.010   .     S
O499   C502    1.272   .     A
O499   Zn503   2.015   .     S
O500   C501    1.269   .     A
O500   Zn504   2.015   .     S
C501   C512    1.422   .     S
C502   C511    1.427   .     S
Zn503  N506    1.978   .     S
Zn504  N505    1.978   .     S
N506   N925    1.196   .     S
C507   C515    1.401   .     A
C507   O529    1.388   .     S
C507   C511    1.402   .     A
C508   O537    1.384   .     S
C508   C512    1.392   .     A
C508   C516    1.397   .     A
C509   C513    1.400   .     A
C509   C511    1.399   .     A
C509   O545    1.387   .     S
C510   O553    1.384   .     S
C510   C512    1.391   .     A
C510   C514    1.397   .     A
C513   C517    1.418   .     A
C513   C519    1.410   .     A
C514   C520    1.396   .     A
C514   C518    1.412   .     A
C515   C521    1.410   .     A
C515   C517    1.419   .     A
C516   C522    1.397   .     A
C516   C518    1.412   .     A
C517   C448    1.400   1_655 S
C519   F525    1.355   .     S
C519   C452    1.385   1_655 S
C520   F526    1.356   .     S
C521   F527    1.353   .     S
C521   C450    1.385   1_655 S
C522   F528    1.355   .     S
C523   C804    1.170   1_545 S
C524   C663    1.170   .     S
O529   C530    1.414   .     S
C530   C533    1.524   .     S
C530   H532    1.115   .     S
C530   H531    1.106   .     S
C533   H535    1.108   .     S
C533   H536    1.108   .     S
C533   H674    1.110   .     S
H534   C813    1.110   1_545 S
O537   C538    1.416   .     S
C538   H540    1.113   .     S
C538   H539    1.117   .     S
C538   C541    1.519   .     S
C541   H544    1.108   .     S
C541   H543    1.107   .     S
C541   H822    1.106   1_545 S
H542   C681    1.106   .     S
O545   C546    1.415   .     S
C546   C549    1.520   .     S
C546   H548    1.115   .     S
C546   H547    1.109   .     S
C549   H551    1.106   .     S
C549   H552    1.109   .     S
C549   H830    1.110   1_545 S
H550   C689    1.110   .     S
O553   C554    1.415   .     S
C554   H555    1.117   .     S
C554   C557    1.519   .     S
C554   H556    1.112   .     S
C557   H560    1.108   .     S
C557   H559    1.107   .     S
C557   H698    1.106   .     S
H558   C837    1.106   1_545 S
O561   C565    1.266   .     A
O561   Zn573   1.966   .     S
O562   C566    1.266   .     A
O562   Zn574   1.966   .     S
O563   Zn573   1.964   .     S
O563   C566    1.265   .     A
O564   C565    1.266   .     A
O564   Zn574   1.964   .     S
C565   C593    1.374   .     S
C566   C594    1.374   .     S
O567   C571    1.271   .     A
O567   Zn573   2.010   .     S
O568   C572    1.271   .     A
O568   Zn574   2.010   .     S
O569   C572    1.272   .     A
O569   Zn573   2.015   .     S
O570   C571    1.269   .     A
O570   Zn574   2.015   .     S
C571   C582    1.422   .     S
C572   C581    1.427   .     S
Zn573  N576    1.978   .     S
Zn574  N575    1.978   .     S
N576   N995    1.196   .     S
C577   C585    1.401   .     A
C577   O599    1.388   .     S
C577   C581    1.402   .     A
C578   O607    1.384   .     S
C578   C582    1.392   .     A
C578   C586    1.397   .     A
C579   C583    1.400   .     A
C579   C581    1.399   .     A
C579   O615    1.387   .     S
C580   O623    1.384   .     S
C580   C582    1.391   .     A
C580   C584    1.397   .     A
C583   C587    1.418   .     A
C583   C589    1.410   .     A
C584   C590    1.396   .     A
C584   C588    1.412   .     A
C585   C591    1.410   .     A
C585   C587    1.419   .     A
C586   C592    1.397   .     A
C586   C588    1.412   .     A
C587   C658    1.400   .     S
C588   C657    1.400   1_455 S
C589   F595    1.355   .     S
C589   C662    1.385   .     S
C590   F596    1.356   .     S
C590   C661    1.385   1_455 S
C591   F597    1.353   .     S
C591   C660    1.385   .     S
C592   F598    1.355   .     S
C592   C659    1.385   1_455 S
C594   C733    1.170   .     S
O599   C600    1.414   .     S
C600   C603    1.524   .     S
C600   H602    1.115   .     S
C600   H601    1.106   .     S
C603   H605    1.108   .     S
C603   H606    1.108   .     S
C603   H744    1.110   .     S
O607   C608    1.416   .     S
C608   H610    1.113   .     S
C608   H609    1.117   .     S
C608   C611    1.519   .     S
C611   H614    1.108   .     S
C611   H613    1.107   .     S
H612   C751    1.106   .     S
O615   C616    1.415   .     S
C616   C619    1.520   .     S
C616   H618    1.115   .     S
C616   H617    1.109   .     S
C619   H621    1.106   .     S
C619   H622    1.109   .     S
H620   C759    1.110   .     S
O623   C624    1.415   .     S
C624   H625    1.117   .     S
C624   C627    1.519   .     S
C624   H626    1.112   .     S
C627   H630    1.108   .     S
C627   H629    1.107   .     S
C627   H768    1.106   .     S
O631   C635    1.266   .     A
O631   Zn643   1.966   .     S
O632   C636    1.266   .     A
O632   Zn644   1.966   .     S
O633   Zn643   1.964   .     S
O633   C636    1.265   .     A
O634   C635    1.266   .     A
O634   Zn644   1.964   .     S
C635   C663    1.374   .     S
C636   C664    1.374   .     S
O637   C641    1.271   .     A
O637   Zn643   2.010   .     S
O638   C642    1.271   .     A
O638   Zn644   2.010   .     S
O639   C642    1.272   .     A
O639   Zn643   2.015   .     S
O640   C641    1.269   .     A
O640   Zn644   2.015   .     S
C641   C652    1.422   .     S
C642   C651    1.427   .     S
Zn643  N646    1.978   .     S
Zn644  N645    1.978   .     S
N646   N1065   1.196   .     S
C647   C655    1.401   .     A
C647   O669    1.388   .     S
C647   C651    1.402   .     A
C648   O677    1.384   .     S
C648   C652    1.392   .     A
C648   C656    1.397   .     A
C649   C653    1.400   .     A
C649   C651    1.399   .     A
C649   O685    1.387   .     S
C650   O693    1.384   .     S
C650   C652    1.391   .     A
C650   C654    1.397   .     A
C653   C657    1.418   .     A
C653   C659    1.410   .     A
C654   C660    1.396   .     A
C654   C658    1.412   .     A
C655   C661    1.410   .     A
C655   C657    1.419   .     A
C656   C662    1.397   .     A
C656   C658    1.412   .     A
C657   C588    1.400   1_655 S
C659   F665    1.355   .     S
C659   C592    1.385   1_655 S
C660   F666    1.356   .     S
C661   F667    1.353   .     S
C661   C590    1.385   1_655 S
C662   F668    1.355   .     S
C664   C803    1.170   .     S
O669   C670    1.414   .     S
C670   C673    1.524   .     S
C670   H672    1.115   .     S
C670   H671    1.106   .     S
C673   H675    1.108   .     S
C673   H676    1.108   .     S
C673   H814    1.110   .     S
O677   C678    1.416   .     S
C678   H680    1.113   .     S
C678   H679    1.117   .     S
C678   C681    1.519   .     S
C681   H684    1.108   .     S
C681   H683    1.107   .     S
H682   C821    1.106   .     S
O685   C686    1.415   .     S
C686   C689    1.520   .     S
C686   H688    1.115   .     S
C686   H687    1.109   .     S
C689   H691    1.106   .     S
C689   H692    1.109   .     S
H690   C829    1.110   .     S
O693   C694    1.415   .     S
C694   H695    1.117   .     S
C694   C697    1.519   .     S
C694   H696    1.112   .     S
C697   H700    1.108   .     S
C697   H699    1.107   .     S
C697   H838    1.106   .     S
O701   C705    1.266   .     A
O701   Zn713   1.966   .     S
O702   C706    1.266   .     A
O702   Zn714   1.966   .     S
O703   Zn713   1.964   .     S
O703   C706    1.265   .     A
O704   C705    1.266   .     A
O704   Zn714   1.964   .     S
C705   C733    1.374   .     S
C706   C734    1.374   .     S
O707   C711    1.271   .     A
O707   Zn713   2.010   .     S
O708   C712    1.271   .     A
O708   Zn714   2.010   .     S
O709   C712    1.272   .     A
O709   Zn713   2.015   .     S
O710   C711    1.269   .     A
O710   Zn714   2.015   .     S
C711   C722    1.422   .     S
C712   C721    1.427   .     S
Zn713  N716    1.978   .     S
Zn714  N715    1.978   .     S
N716   N1135   1.196   .     S
C717   C725    1.401   .     A
C717   O739    1.388   .     S
C717   C721    1.402   .     A
C718   O747    1.384   .     S
C718   C722    1.392   .     A
C718   C726    1.397   .     A
C719   C723    1.400   .     A
C719   C721    1.399   .     A
C719   O755    1.387   .     S
C720   O763    1.384   .     S
C720   C722    1.391   .     A
C720   C724    1.397   .     A
C723   C727    1.418   .     A
C723   C729    1.410   .     A
C724   C730    1.396   .     A
C724   C728    1.412   .     A
C725   C731    1.410   .     A
C725   C727    1.419   .     A
C726   C732    1.397   .     A
C726   C728    1.412   .     A
C727   C798    1.400   .     S
C728   C797    1.400   1_455 S
C729   F735    1.355   .     S
C729   C802    1.385   .     S
C730   F736    1.356   .     S
C730   C801    1.385   1_455 S
C731   F737    1.353   .     S
C731   C800    1.385   .     S
C732   F738    1.355   .     S
C732   C799    1.385   1_455 S
C734   C453    1.170   1_565 S
O739   C740    1.414   .     S
C740   C743    1.524   .     S
C740   H742    1.115   .     S
C740   H741    1.106   .     S
C743   H745    1.108   .     S
C743   H746    1.108   .     S
C743   H464    1.110   1_565 S
O747   C748    1.416   .     S
C748   H750    1.113   .     S
C748   H749    1.117   .     S
C748   C751    1.519   .     S
C751   H754    1.108   .     S
C751   H753    1.107   .     S
H752   C471    1.106   1_565 S
O755   C756    1.415   .     S
C756   C759    1.520   .     S
C756   H758    1.115   .     S
C756   H757    1.109   .     S
C759   H761    1.106   .     S
C759   H762    1.109   .     S
H760   C479    1.110   1_565 S
O763   C764    1.415   .     S
C764   H765    1.117   .     S
C764   C767    1.519   .     S
C764   H766    1.112   .     S
C767   H770    1.108   .     S
C767   H769    1.107   .     S
C767   H488    1.106   1_565 S
O771   C775    1.266   .     A
O771   Zn783   1.966   .     S
O772   C776    1.266   .     A
O772   Zn784   1.966   .     S
O773   Zn783   1.964   .     S
O773   C776    1.265   .     A
O774   C775    1.266   .     A
O774   Zn784   1.964   .     S
C775   C803    1.374   .     S
C776   C804    1.374   .     S
O777   C781    1.271   .     A
O777   Zn783   2.010   .     S
O778   C782    1.271   .     A
O778   Zn784   2.010   .     S
O779   C782    1.272   .     A
O779   Zn783   2.015   .     S
O780   C781    1.269   .     A
O780   Zn784   2.015   .     S
C781   C792    1.422   .     S
C782   C791    1.427   .     S
Zn783  N786    1.978   .     S
Zn784  N785    1.978   .     S
N786   N1205   1.196   .     S
C787   C795    1.401   .     A
C787   O809    1.388   .     S
C787   C791    1.402   .     A
C788   O817    1.384   .     S
C788   C792    1.392   .     A
C788   C796    1.397   .     A
C789   C793    1.400   .     A
C789   C791    1.399   .     A
C789   O825    1.387   .     S
C790   O833    1.384   .     S
C790   C792    1.391   .     A
C790   C794    1.397   .     A
C793   C797    1.418   .     A
C793   C799    1.410   .     A
C794   C800    1.396   .     A
C794   C798    1.412   .     A
C795   C801    1.410   .     A
C795   C797    1.419   .     A
C796   C802    1.397   .     A
C796   C798    1.412   .     A
C797   C728    1.400   1_655 S
C799   F805    1.355   .     S
C799   C732    1.385   1_655 S
C800   F806    1.356   .     S
C801   F807    1.353   .     S
C801   C730    1.385   1_655 S
C802   F808    1.355   .     S
C804   C523    1.170   1_565 S
O809   C810    1.414   .     S
C810   C813    1.524   .     S
C810   H812    1.115   .     S
C810   H811    1.106   .     S
C813   H815    1.108   .     S
C813   H816    1.108   .     S
C813   H534    1.110   1_565 S
O817   C818    1.416   .     S
C818   H820    1.113   .     S
C818   H819    1.117   .     S
C818   C821    1.519   .     S
C821   H824    1.108   .     S
C821   H823    1.107   .     S
H822   C541    1.106   1_565 S
O825   C826    1.415   .     S
C826   C829    1.520   .     S
C826   H828    1.115   .     S
C826   H827    1.109   .     S
C829   H831    1.106   .     S
C829   H832    1.109   .     S
H830   C549    1.110   1_565 S
O833   C834    1.415   .     S
C834   H835    1.117   .     S
C834   C837    1.519   .     S
C834   H836    1.112   .     S
C837   H840    1.108   .     S
C837   H839    1.107   .     S
C837   H558    1.106   1_565 S
O841   C845    1.266   .     A
O841   Zn853   1.966   .     S
O842   C846    1.266   .     A
O842   Zn854   1.966   .     S
O843   Zn853   1.964   .     S
O843   C846    1.265   .     A
O844   C845    1.266   .     A
O844   Zn854   1.964   .     S
C845   C873    1.374   .     S
C846   C874    1.374   .     S
O847   C851    1.271   .     A
O847   Zn853   2.010   .     S
O848   C852    1.271   .     A
O848   Zn854   2.010   .     S
O849   C852    1.272   .     A
O849   Zn853   2.015   .     S
O850   C851    1.269   .     A
O850   Zn854   2.015   .     S
C851   C862    1.422   .     S
C852   C861    1.427   .     S
Zn853  N856    1.978   .     S
Zn854  N855    1.978   .     S
N856   N15     1.196   1_556 S
C857   C865    1.401   .     A
C857   O879    1.388   .     S
C857   C861    1.402   .     A
C858   O887    1.384   .     S
C858   C862    1.392   .     A
C858   C866    1.397   .     A
C859   C863    1.400   .     A
C859   C861    1.399   .     A
C859   O895    1.387   .     S
C860   O903    1.384   .     S
C860   C862    1.391   .     A
C860   C864    1.397   .     A
C863   C867    1.418   .     A
C863   C869    1.410   .     A
C864   C870    1.396   .     A
C864   C868    1.412   .     A
C865   C871    1.410   .     A
C865   C867    1.419   .     A
C866   C872    1.397   .     A
C866   C868    1.412   .     A
C867   C938    1.400   .     S
C868   C937    1.400   1_455 S
C869   F875    1.355   .     S
C869   C942    1.385   .     S
C870   F876    1.356   .     S
C870   C941    1.385   1_455 S
C871   F877    1.353   .     S
C871   C940    1.385   .     S
C872   F878    1.355   .     S
C872   C939    1.385   1_455 S
C873   C1154   1.170   1_545 S
C874   C1013   1.170   .     S
O879   C880    1.414   .     S
C880   C883    1.524   .     S
C880   H882    1.115   .     S
C880   H881    1.106   .     S
C883   H885    1.108   .     S
C883   H886    1.108   .     S
C883   H1024   1.110   .     S
H884   C1163   1.110   1_545 S
O887   C888    1.416   .     S
C888   H890    1.113   .     S
C888   H889    1.117   .     S
C888   C891    1.519   .     S
C891   H894    1.108   .     S
C891   H893    1.107   .     S
C891   H1172   1.106   1_545 S
H892   C1031   1.106   .     S
O895   C896    1.415   .     S
C896   C899    1.520   .     S
C896   H898    1.115   .     S
C896   H897    1.109   .     S
C899   H901    1.106   .     S
C899   H902    1.109   .     S
C899   H1180   1.110   1_545 S
H900   C1039   1.110   .     S
O903   C904    1.415   .     S
C904   H905    1.117   .     S
C904   C907    1.519   .     S
C904   H906    1.112   .     S
C907   H910    1.108   .     S
C907   H909    1.107   .     S
C907   H1048   1.106   .     S
H908   C1187   1.106   1_545 S
O911   C915    1.266   .     A
O911   Zn923   1.966   .     S
O912   C916    1.266   .     A
O912   Zn924   1.966   .     S
O913   Zn923   1.964   .     S
O913   C916    1.265   .     A
O914   C915    1.266   .     A
O914   Zn924   1.964   .     S
C915   C943    1.374   .     S
C916   C944    1.374   .     S
O917   C921    1.271   .     A
O917   Zn923   2.010   .     S
O918   C922    1.271   .     A
O918   Zn924   2.010   .     S
O919   C922    1.272   .     A
O919   Zn923   2.015   .     S
O920   C921    1.269   .     A
O920   Zn924   2.015   .     S
C921   C932    1.422   .     S
C922   C931    1.427   .     S
Zn923  N926    1.978   .     S
Zn924  N925    1.978   .     S
N926   N85     1.196   1_556 S
C927   C935    1.401   .     A
C927   O949    1.388   .     S
C927   C931    1.402   .     A
C928   O957    1.384   .     S
C928   C932    1.392   .     A
C928   C936    1.397   .     A
C929   C933    1.400   .     A
C929   C931    1.399   .     A
C929   O965    1.387   .     S
C930   O973    1.384   .     S
C930   C932    1.391   .     A
C930   C934    1.397   .     A
C933   C937    1.418   .     A
C933   C939    1.410   .     A
C934   C940    1.396   .     A
C934   C938    1.412   .     A
C935   C941    1.410   .     A
C935   C937    1.419   .     A
C936   C942    1.397   .     A
C936   C938    1.412   .     A
C937   C868    1.400   1_655 S
C939   F945    1.355   .     S
C939   C872    1.385   1_655 S
C940   F946    1.356   .     S
C941   F947    1.353   .     S
C941   C870    1.385   1_655 S
C942   F948    1.355   .     S
C943   C1224   1.170   1_545 S
C944   C1083   1.170   .     S
O949   C950    1.414   .     S
C950   C953    1.524   .     S
C950   H952    1.115   .     S
C950   H951    1.106   .     S
C953   H955    1.108   .     S
C953   H956    1.108   .     S
C953   H1094   1.110   .     S
H954   C1233   1.110   1_545 S
O957   C958    1.416   .     S
C958   H960    1.113   .     S
C958   H959    1.117   .     S
C958   C961    1.519   .     S
C961   H964    1.108   .     S
C961   H963    1.107   .     S
C961   H1242   1.106   1_545 S
H962   C1101   1.106   .     S
O965   C966    1.415   .     S
C966   C969    1.520   .     S
C966   H968    1.115   .     S
C966   H967    1.109   .     S
C969   H971    1.106   .     S
C969   H972    1.109   .     S
C969   H1250   1.110   1_545 S
H970   C1109   1.110   .     S
O973   C974    1.415   .     S
C974   H975    1.117   .     S
C974   C977    1.519   .     S
C974   H976    1.112   .     S
C977   H980    1.108   .     S
C977   H979    1.107   .     S
C977   H1118   1.106   .     S
H978   C1257   1.106   1_545 S
O981   C985    1.266   .     A
O981   Zn993   1.966   .     S
O982   C986    1.266   .     A
O982   Zn994   1.966   .     S
O983   Zn993   1.964   .     S
O983   C986    1.265   .     A
O984   C985    1.266   .     A
O984   Zn994   1.964   .     S
C985   C1013   1.374   .     S
C986   C1014   1.374   .     S
O987   C991    1.271   .     A
O987   Zn993   2.010   .     S
O988   C992    1.271   .     A
O988   Zn994   2.010   .     S
O989   C992    1.272   .     A
O989   Zn993   2.015   .     S
O990   C991    1.269   .     A
O990   Zn994   2.015   .     S
C991   C1002   1.422   .     S
C992   C1001   1.427   .     S
Zn993  N996    1.978   .     S
Zn994  N995    1.978   .     S
N996   N155    1.196   1_556 S
C997   C1005   1.401   .     A
C997   O1019   1.388   .     S
C997   C1001   1.402   .     A
C998   O1027   1.384   .     S
C998   C1002   1.392   .     A
C998   C1006   1.397   .     A
C999   C1003   1.400   .     A
C999   C1001   1.399   .     A
C999   O1035   1.387   .     S
C1000  O1043   1.384   .     S
C1000  C1002   1.391   .     A
C1000  C1004   1.397   .     A
C1003  C1007   1.418   .     A
C1003  C1009   1.410   .     A
C1004  C1010   1.396   .     A
C1004  C1008   1.412   .     A
C1005  C1011   1.410   .     A
C1005  C1007   1.419   .     A
C1006  C1012   1.397   .     A
C1006  C1008   1.412   .     A
C1007  C1078   1.400   .     S
C1008  C1077   1.400   1_455 S
C1009  F1015   1.355   .     S
C1009  C1082   1.385   .     S
C1010  F1016   1.356   .     S
C1010  C1081   1.385   1_455 S
C1011  F1017   1.353   .     S
C1011  C1080   1.385   .     S
C1012  F1018   1.355   .     S
C1012  C1079   1.385   1_455 S
C1014  C1153   1.170   .     S
O1019  C1020   1.414   .     S
C1020  C1023   1.524   .     S
C1020  H1022   1.115   .     S
C1020  H1021   1.106   .     S
C1023  H1025   1.108   .     S
C1023  H1026   1.108   .     S
C1023  H1164   1.110   .     S
O1027  C1028   1.416   .     S
C1028  H1030   1.113   .     S
C1028  H1029   1.117   .     S
C1028  C1031   1.519   .     S
C1031  H1034   1.108   .     S
C1031  H1033   1.107   .     S
H1032  C1171   1.106   .     S
O1035  C1036   1.415   .     S
C1036  C1039   1.520   .     S
C1036  H1038   1.115   .     S
C1036  H1037   1.109   .     S
C1039  H1041   1.106   .     S
C1039  H1042   1.109   .     S
H1040  C1179   1.110   .     S
O1043  C1044   1.415   .     S
C1044  H1045   1.117   .     S
C1044  C1047   1.519   .     S
C1044  H1046   1.112   .     S
C1047  H1050   1.108   .     S
C1047  H1049   1.107   .     S
C1047  H1188   1.106   .     S
O1051  C1055   1.266   .     A
O1051  Zn1063  1.966   .     S
O1052  C1056   1.266   .     A
O1052  Zn1064  1.966   .     S
O1053  Zn1063  1.964   .     S
O1053  C1056   1.265   .     A
O1054  C1055   1.266   .     A
O1054  Zn1064  1.964   .     S
C1055  C1083   1.374   .     S
C1056  C1084   1.374   .     S
O1057  C1061   1.271   .     A
O1057  Zn1063  2.010   .     S
O1058  C1062   1.271   .     A
O1058  Zn1064  2.010   .     S
O1059  C1062   1.272   .     A
O1059  Zn1063  2.015   .     S
O1060  C1061   1.269   .     A
O1060  Zn1064  2.015   .     S
C1061  C1072   1.422   .     S
C1062  C1071   1.427   .     S
Zn1063 N1066   1.978   .     S
Zn1064 N1065   1.978   .     S
N1066  N225    1.196   1_556 S
C1067  C1075   1.401   .     A
C1067  O1089   1.388   .     S
C1067  C1071   1.402   .     A
C1068  O1097   1.384   .     S
C1068  C1072   1.392   .     A
C1068  C1076   1.397   .     A
C1069  C1073   1.400   .     A
C1069  C1071   1.399   .     A
C1069  O1105   1.387   .     S
C1070  O1113   1.384   .     S
C1070  C1072   1.391   .     A
C1070  C1074   1.397   .     A
C1073  C1077   1.418   .     A
C1073  C1079   1.410   .     A
C1074  C1080   1.396   .     A
C1074  C1078   1.412   .     A
C1075  C1081   1.410   .     A
C1075  C1077   1.419   .     A
C1076  C1082   1.397   .     A
C1076  C1078   1.412   .     A
C1077  C1008   1.400   1_655 S
C1079  F1085   1.355   .     S
C1079  C1012   1.385   1_655 S
C1080  F1086   1.356   .     S
C1081  F1087   1.353   .     S
C1081  C1010   1.385   1_655 S
C1082  F1088   1.355   .     S
C1084  C1223   1.170   .     S
O1089  C1090   1.414   .     S
C1090  C1093   1.524   .     S
C1090  H1092   1.115   .     S
C1090  H1091   1.106   .     S
C1093  H1095   1.108   .     S
C1093  H1096   1.108   .     S
C1093  H1234   1.110   .     S
O1097  C1098   1.416   .     S
C1098  H1100   1.113   .     S
C1098  H1099   1.117   .     S
C1098  C1101   1.519   .     S
C1101  H1104   1.108   .     S
C1101  H1103   1.107   .     S
H1102  C1241   1.106   .     S
O1105  C1106   1.415   .     S
C1106  C1109   1.520   .     S
C1106  H1108   1.115   .     S
C1106  H1107   1.109   .     S
C1109  H1111   1.106   .     S
C1109  H1112   1.109   .     S
H1110  C1249   1.110   .     S
O1113  C1114   1.415   .     S
C1114  H1115   1.117   .     S
C1114  C1117   1.519   .     S
C1114  H1116   1.112   .     S
C1117  H1120   1.108   .     S
C1117  H1119   1.107   .     S
C1117  H1258   1.106   .     S
O1121  C1125   1.266   .     A
O1121  Zn1133  1.966   .     S
O1122  C1126   1.266   .     A
O1122  Zn1134  1.966   .     S
O1123  Zn1133  1.964   .     S
O1123  C1126   1.265   .     A
O1124  C1125   1.266   .     A
O1124  Zn1134  1.964   .     S
C1125  C1153   1.374   .     S
C1126  C1154   1.374   .     S
O1127  C1131   1.271   .     A
O1127  Zn1133  2.010   .     S
O1128  C1132   1.271   .     A
O1128  Zn1134  2.010   .     S
O1129  C1132   1.272   .     A
O1129  Zn1133  2.015   .     S
O1130  C1131   1.269   .     A
O1130  Zn1134  2.015   .     S
C1131  C1142   1.422   .     S
C1132  C1141   1.427   .     S
Zn1133 N1136   1.978   .     S
Zn1134 N1135   1.978   .     S
N1136  N295    1.196   1_556 S
C1137  C1145   1.401   .     A
C1137  O1159   1.388   .     S
C1137  C1141   1.402   .     A
C1138  O1167   1.384   .     S
C1138  C1142   1.392   .     A
C1138  C1146   1.397   .     A
C1139  C1143   1.400   .     A
C1139  C1141   1.399   .     A
C1139  O1175   1.387   .     S
C1140  O1183   1.384   .     S
C1140  C1142   1.391   .     A
C1140  C1144   1.397   .     A
C1143  C1147   1.418   .     A
C1143  C1149   1.410   .     A
C1144  C1150   1.396   .     A
C1144  C1148   1.412   .     A
C1145  C1151   1.410   .     A
C1145  C1147   1.419   .     A
C1146  C1152   1.397   .     A
C1146  C1148   1.412   .     A
C1147  C1218   1.400   .     S
C1148  C1217   1.400   1_455 S
C1149  F1155   1.355   .     S
C1149  C1222   1.385   .     S
C1150  F1156   1.356   .     S
C1150  C1221   1.385   1_455 S
C1151  F1157   1.353   .     S
C1151  C1220   1.385   .     S
C1152  F1158   1.355   .     S
C1152  C1219   1.385   1_455 S
C1154  C873    1.170   1_565 S
O1159  C1160   1.414   .     S
C1160  C1163   1.524   .     S
C1160  H1162   1.115   .     S
C1160  H1161   1.106   .     S
C1163  H1165   1.108   .     S
C1163  H1166   1.108   .     S
C1163  H884    1.110   1_565 S
O1167  C1168   1.416   .     S
C1168  H1170   1.113   .     S
C1168  H1169   1.117   .     S
C1168  C1171   1.519   .     S
C1171  H1174   1.108   .     S
C1171  H1173   1.107   .     S
H1172  C891    1.106   1_565 S
O1175  C1176   1.415   .     S
C1176  C1179   1.520   .     S
C1176  H1178   1.115   .     S
C1176  H1177   1.109   .     S
C1179  H1181   1.106   .     S
C1179  H1182   1.109   .     S
H1180  C899    1.110   1_565 S
O1183  C1184   1.415   .     S
C1184  H1185   1.117   .     S
C1184  C1187   1.519   .     S
C1184  H1186   1.112   .     S
C1187  H1190   1.108   .     S
C1187  H1189   1.107   .     S
C1187  H908    1.106   1_565 S
O1191  C1195   1.266   .     A
O1191  Zn1203  1.966   .     S
O1192  C1196   1.266   .     A
O1192  Zn1204  1.966   .     S
O1193  Zn1203  1.964   .     S
O1193  C1196   1.265   .     A
O1194  C1195   1.266   .     A
O1194  Zn1204  1.964   .     S
C1195  C1223   1.374   .     S
C1196  C1224   1.374   .     S
O1197  C1201   1.271   .     A
O1197  Zn1203  2.010   .     S
O1198  C1202   1.271   .     A
O1198  Zn1204  2.010   .     S
O1199  C1202   1.272   .     A
O1199  Zn1203  2.015   .     S
O1200  C1201   1.269   .     A
O1200  Zn1204  2.015   .     S
C1201  C1212   1.422   .     S
C1202  C1211   1.427   .     S
Zn1203 N1206   1.978   .     S
Zn1204 N1205   1.978   .     S
N1206  N365    1.196   1_556 S
C1207  C1215   1.401   .     A
C1207  O1229   1.388   .     S
C1207  C1211   1.402   .     A
C1208  O1237   1.384   .     S
C1208  C1212   1.392   .     A
C1208  C1216   1.397   .     A
C1209  C1213   1.400   .     A
C1209  C1211   1.399   .     A
C1209  O1245   1.387   .     S
C1210  O1253   1.384   .     S
C1210  C1212   1.391   .     A
C1210  C1214   1.397   .     A
C1213  C1217   1.418   .     A
C1213  C1219   1.410   .     A
C1214  C1220   1.396   .     A
C1214  C1218   1.412   .     A
C1215  C1221   1.410   .     A
C1215  C1217   1.419   .     A
C1216  C1222   1.397   .     A
C1216  C1218   1.412   .     A
C1217  C1148   1.400   1_655 S
C1219  F1225   1.355   .     S
C1219  C1152   1.385   1_655 S
C1220  F1226   1.356   .     S
C1221  F1227   1.353   .     S
C1221  C1150   1.385   1_655 S
C1222  F1228   1.355   .     S
C1224  C943    1.170   1_565 S
O1229  C1230   1.414   .     S
C1230  C1233   1.524   .     S
C1230  H1232   1.115   .     S
C1230  H1231   1.106   .     S
C1233  H1235   1.108   .     S
C1233  H1236   1.108   .     S
C1233  H954    1.110   1_565 S
O1237  C1238   1.416   .     S
C1238  H1240   1.113   .     S
C1238  H1239   1.117   .     S
C1238  C1241   1.519   .     S
C1241  H1244   1.108   .     S
C1241  H1243   1.107   .     S
H1242  C961    1.106   1_565 S
O1245  C1246   1.415   .     S
C1246  C1249   1.520   .     S
C1246  H1248   1.115   .     S
C1246  H1247   1.109   .     S
C1249  H1251   1.106   .     S
C1249  H1252   1.109   .     S
H1250  C969    1.110   1_565 S
O1253  C1254   1.415   .     S
C1254  H1255   1.117   .     S
C1254  C1257   1.519   .     S
C1254  H1256   1.112   .     S
C1257  H1260   1.108   .     S
C1257  H1259   1.107   .     S
C1257  H978    1.106   1_565 S
