data_str_m3_o10_o16_pcu_sym.71
_audit_creation_date              2020-01-03
_audit_creation_method            'Materials Studio'
_symmetry_space_group_name_H-M    'P1'
_symmetry_Int_Tables_number       1
_symmetry_cell_setting            triclinic
loop_
_symmetry_equiv_pos_as_xyz
  x,y,z
_cell_length_a                    23.7758
_cell_length_b                    25.7020
_cell_length_c                    24.1946
_cell_angle_alpha                 94.0105
_cell_angle_beta                  101.1844
_cell_angle_gamma                 93.4131
loop_
_atom_site_label
_atom_site_type_symbol
_atom_site_fract_x
_atom_site_fract_y
_atom_site_fract_z
_atom_site_U_iso_or_equiv
_atom_site_adp_type
_atom_site_occupancy
C1     C     0.01520   0.26479   0.25136   0.00000  Uiso   1.00
C2     C     0.05411   0.17009   0.41639   0.00000  Uiso   1.00
C3     C     0.02485   0.31956   0.26195   0.00000  Uiso   1.00
C4     C     0.03541   0.16839   0.35517   0.00000  Uiso   1.00
C5     C     0.31195   0.01390   0.24947   0.00000  Uiso   1.00
C6     C     0.31926   0.06871   0.25239   0.00000  Uiso   1.00
C7     C     0.29774   0.16315   0.14491   0.00000  Uiso   1.00
C8     C     0.27125   0.09999   0.49808   0.00000  Uiso   1.00
C9     C     0.27760   0.15466   0.08445   0.00000  Uiso   1.00
C10    C     0.02643   0.20134   0.45103   0.00000  Uiso   1.00
C11    C     0.05154   0.21388   0.00742   0.00000  Uiso   1.00
C12    C     0.13478   0.16653   0.49437   0.00000  Uiso   1.00
C13    C     0.10584   0.19803   0.02878   0.00000  Uiso   1.00
C14    C     0.14218   0.08348   0.16460   0.00000  Uiso   1.00
C15    C     0.21800   0.22801   0.35556   0.00000  Uiso   1.00
C16    C     0.12822   0.00988   0.27447   0.00000  Uiso   1.00
C17    C     0.10540   0.14799   0.43965   0.00000  Uiso   1.00
C18    C     0.19176   0.15261   0.01233   0.00000  Uiso   1.00
C19    C     0.21559   0.11535   0.47901   0.00000  Uiso   1.00
C20    C     0.18290   0.09277   0.42812   0.00000  Uiso   1.00
C21    C     0.12837   0.10861   0.40891   0.00000  Uiso   1.00
C22    C     0.22575   0.17461   0.06280   0.00000  Uiso   1.00
C23    C     0.30180   0.11874   0.05153   0.00000  Uiso   1.00
H24    H     0.19957   0.06307   0.40293   0.00000  Uiso   1.00
H25    H     0.12741   0.16022   0.15258   0.00000  Uiso   1.00
H26    H     0.14705   0.07625   0.12002   0.00000  Uiso   1.00
H27    H     0.09807   0.06907   0.16779   0.00000  Uiso   1.00
H28    H     0.17478   0.06196   0.19117   0.00000  Uiso   1.00
H29    H     0.13627   0.22511   0.30584   0.00000  Uiso   1.00
H30    H     0.20104   0.25478   0.38544   0.00000  Uiso   1.00
H31    H     0.25866   0.24737   0.34872   0.00000  Uiso   1.00
H32    H     0.22478   0.19034   0.37484   0.00000  Uiso   1.00
H33    H     0.08332   0.32712   0.33785   0.00000  Uiso   1.00
H34    H     0.14667   0.05094   0.27910   0.00000  Uiso   1.00
H35    H     0.28972   0.07153   0.47303   0.00000  Uiso   1.00
H36    H     0.11911   0.32841   0.22913   0.00000  Uiso   1.00
H37    H     0.16102   0.31976   0.29798   0.00000  Uiso   1.00
H38    H     0.21150   0.20541   0.08817   0.00000  Uiso   1.00
H39    H     0.32005   0.21803   0.43412   0.00000  Uiso   1.00
H40    H     0.12335   0.21031   0.07250   0.00000  Uiso   1.00
H41    H     0.02995   0.23791   0.03412   0.00000  Uiso   1.00
H42    H     0.10400   0.08945   0.36981   0.00000  Uiso   1.00
H43    H     0.00910   0.10316   0.06821   0.00000  Uiso   1.00
H44    H     0.26931   0.32948   0.23019   0.00000  Uiso   1.00
N45    N     0.14493   0.15223   0.23542   0.00000  Uiso   1.00
N46    N     0.18840   0.18110   0.26457   0.00000  Uiso   1.00
N47    N     0.15176   0.13869   0.18131   0.00000  Uiso   1.00
N48    N     0.17732   0.21969   0.30281   0.00000  Uiso   1.00
N49    N     0.07691   0.00776   0.29832   0.00000  Uiso   1.00
O50    O     0.29769   0.24629   0.25357   0.00000  Uiso   1.00
O51    O     0.05742   0.23704   0.24423   0.00000  Uiso   1.00
O52    O     0.31490   0.17358   0.33380   0.00000  Uiso   1.00
O53    O     0.07463   0.16433   0.32446   0.00000  Uiso   1.00
O54    O     0.27592   0.09629   0.25576   0.00000  Uiso   1.00
O55    O     0.03565   0.08704   0.24642   0.00000  Uiso   1.00
O56    O     0.25870   0.16901   0.17554   0.00000  Uiso   1.00
O57    O     0.01843   0.15976   0.16620   0.00000  Uiso   1.00
Zn58   Zn    0.27119   0.17284   0.25623   0.00000  Uiso   1.00
Zn59   Zn    0.06214   0.16049   0.24376   0.00000  Uiso   1.00
C60    C     0.34854   0.26479   0.25136   0.00000  Uiso   1.00
C61    C     0.38744   0.17009   0.41639   0.00000  Uiso   1.00
C62    C     0.35818   0.31956   0.26195   0.00000  Uiso   1.00
C63    C     0.36874   0.16839   0.35517   0.00000  Uiso   1.00
C64    C     0.64529   0.01390   0.24947   0.00000  Uiso   1.00
C65    C     0.65260   0.06871   0.25239   0.00000  Uiso   1.00
C66    C     0.63107   0.16315   0.14491   0.00000  Uiso   1.00
C67    C     0.60458   0.09999   0.49808   0.00000  Uiso   1.00
C68    C     0.61093   0.15466   0.08445   0.00000  Uiso   1.00
C69    C     0.35977   0.20134   0.45103   0.00000  Uiso   1.00
C70    C     0.38487   0.21388   0.00742   0.00000  Uiso   1.00
C71    C     0.46812   0.16653   0.49437   0.00000  Uiso   1.00
C72    C     0.43917   0.19803   0.02878   0.00000  Uiso   1.00
C73    C     0.47552   0.08348   0.16460   0.00000  Uiso   1.00
C74    C     0.55133   0.22801   0.35556   0.00000  Uiso   1.00
C75    C     0.46156   0.00988   0.27447   0.00000  Uiso   1.00
C76    C     0.43873   0.14799   0.43965   0.00000  Uiso   1.00
C77    C     0.52509   0.15261   0.01233   0.00000  Uiso   1.00
C78    C     0.54892   0.11535   0.47901   0.00000  Uiso   1.00
C79    C     0.51623   0.09277   0.42812   0.00000  Uiso   1.00
C80    C     0.46170   0.10861   0.40891   0.00000  Uiso   1.00
C81    C     0.55908   0.17461   0.06280   0.00000  Uiso   1.00
C82    C     0.63514   0.11874   0.05153   0.00000  Uiso   1.00
H83    H     0.53290   0.06307   0.40293   0.00000  Uiso   1.00
H84    H     0.46074   0.16022   0.15258   0.00000  Uiso   1.00
H85    H     0.48039   0.07625   0.12002   0.00000  Uiso   1.00
H86    H     0.43140   0.06907   0.16779   0.00000  Uiso   1.00
H87    H     0.50812   0.06196   0.19117   0.00000  Uiso   1.00
H88    H     0.46961   0.22511   0.30584   0.00000  Uiso   1.00
H89    H     0.53437   0.25478   0.38544   0.00000  Uiso   1.00
H90    H     0.59199   0.24737   0.34872   0.00000  Uiso   1.00
H91    H     0.55812   0.19034   0.37484   0.00000  Uiso   1.00
H92    H     0.41666   0.32712   0.33785   0.00000  Uiso   1.00
H93    H     0.48001   0.05094   0.27910   0.00000  Uiso   1.00
H94    H     0.62306   0.07153   0.47303   0.00000  Uiso   1.00
H95    H     0.45245   0.32841   0.22913   0.00000  Uiso   1.00
H96    H     0.49436   0.31976   0.29798   0.00000  Uiso   1.00
H97    H     0.54483   0.20541   0.08817   0.00000  Uiso   1.00
H98    H     0.65338   0.21803   0.43412   0.00000  Uiso   1.00
H99    H     0.45668   0.21031   0.07250   0.00000  Uiso   1.00
H100   H     0.36329   0.23791   0.03412   0.00000  Uiso   1.00
H101   H     0.43734   0.08945   0.36981   0.00000  Uiso   1.00
H102   H     0.34243   0.10316   0.06821   0.00000  Uiso   1.00
H103   H     0.60265   0.32948   0.23019   0.00000  Uiso   1.00
N104   N     0.47827   0.15223   0.23542   0.00000  Uiso   1.00
N105   N     0.52173   0.18110   0.26457   0.00000  Uiso   1.00
N106   N     0.48509   0.13869   0.18131   0.00000  Uiso   1.00
N107   N     0.51065   0.21969   0.30281   0.00000  Uiso   1.00
N108   N     0.41024   0.00776   0.29832   0.00000  Uiso   1.00
O109   O     0.63102   0.24629   0.25357   0.00000  Uiso   1.00
O110   O     0.39075   0.23704   0.24423   0.00000  Uiso   1.00
O111   O     0.64823   0.17358   0.33380   0.00000  Uiso   1.00
O112   O     0.40796   0.16433   0.32446   0.00000  Uiso   1.00
O113   O     0.60925   0.09629   0.25576   0.00000  Uiso   1.00
O114   O     0.36898   0.08704   0.24642   0.00000  Uiso   1.00
O115   O     0.59204   0.16901   0.17554   0.00000  Uiso   1.00
O116   O     0.35177   0.15976   0.16620   0.00000  Uiso   1.00
Zn117  Zn    0.60453   0.17284   0.25623   0.00000  Uiso   1.00
Zn118  Zn    0.39547   0.16049   0.24376   0.00000  Uiso   1.00
C119   C     0.68187   0.26479   0.25136   0.00000  Uiso   1.00
C120   C     0.72077   0.17009   0.41639   0.00000  Uiso   1.00
C121   C     0.69152   0.31956   0.26195   0.00000  Uiso   1.00
C122   C     0.70207   0.16839   0.35517   0.00000  Uiso   1.00
C123   C     0.97862   0.01390   0.24947   0.00000  Uiso   1.00
C124   C     0.98593   0.06871   0.25239   0.00000  Uiso   1.00
C125   C     0.96440   0.16315   0.14491   0.00000  Uiso   1.00
C126   C     0.93792   0.09999   0.49808   0.00000  Uiso   1.00
C127   C     0.94427   0.15466   0.08445   0.00000  Uiso   1.00
C128   C     0.69310   0.20134   0.45103   0.00000  Uiso   1.00
C129   C     0.71820   0.21388   0.00742   0.00000  Uiso   1.00
C130   C     0.80145   0.16653   0.49437   0.00000  Uiso   1.00
C131   C     0.77250   0.19803   0.02878   0.00000  Uiso   1.00
C132   C     0.80885   0.08348   0.16460   0.00000  Uiso   1.00
C133   C     0.88466   0.22801   0.35556   0.00000  Uiso   1.00
C134   C     0.79489   0.00988   0.27447   0.00000  Uiso   1.00
C135   C     0.77206   0.14799   0.43965   0.00000  Uiso   1.00
C136   C     0.85842   0.15261   0.01233   0.00000  Uiso   1.00
C137   C     0.88226   0.11535   0.47901   0.00000  Uiso   1.00
C138   C     0.84957   0.09277   0.42812   0.00000  Uiso   1.00
C139   C     0.79503   0.10861   0.40891   0.00000  Uiso   1.00
C140   C     0.89241   0.17461   0.06280   0.00000  Uiso   1.00
C141   C     0.96847   0.11874   0.05153   0.00000  Uiso   1.00
H142   H     0.86623   0.06307   0.40293   0.00000  Uiso   1.00
H143   H     0.79408   0.16022   0.15258   0.00000  Uiso   1.00
H144   H     0.81372   0.07625   0.12002   0.00000  Uiso   1.00
H145   H     0.76474   0.06907   0.16779   0.00000  Uiso   1.00
H146   H     0.84145   0.06196   0.19117   0.00000  Uiso   1.00
H147   H     0.80294   0.22511   0.30584   0.00000  Uiso   1.00
H148   H     0.86770   0.25478   0.38544   0.00000  Uiso   1.00
H149   H     0.92532   0.24737   0.34872   0.00000  Uiso   1.00
H150   H     0.89145   0.19034   0.37484   0.00000  Uiso   1.00
H151   H     0.74999   0.32712   0.33785   0.00000  Uiso   1.00
H152   H     0.81334   0.05094   0.27910   0.00000  Uiso   1.00
H153   H     0.95639   0.07153   0.47303   0.00000  Uiso   1.00
H154   H     0.78578   0.32841   0.22913   0.00000  Uiso   1.00
H155   H     0.82769   0.31976   0.29798   0.00000  Uiso   1.00
H156   H     0.87817   0.20541   0.08817   0.00000  Uiso   1.00
H157   H     0.98671   0.21803   0.43412   0.00000  Uiso   1.00
H158   H     0.79002   0.21031   0.07250   0.00000  Uiso   1.00
H159   H     0.69662   0.23791   0.03412   0.00000  Uiso   1.00
H160   H     0.77067   0.08945   0.36981   0.00000  Uiso   1.00
H161   H     0.67577   0.10316   0.06821   0.00000  Uiso   1.00
H162   H     0.93598   0.32948   0.23019   0.00000  Uiso   1.00
N163   N     0.81160   0.15223   0.23542   0.00000  Uiso   1.00
N164   N     0.85507   0.18110   0.26457   0.00000  Uiso   1.00
N165   N     0.81842   0.13869   0.18131   0.00000  Uiso   1.00
N166   N     0.84398   0.21969   0.30281   0.00000  Uiso   1.00
N167   N     0.74358   0.00776   0.29832   0.00000  Uiso   1.00
O168   O     0.96435   0.24629   0.25357   0.00000  Uiso   1.00
O169   O     0.72408   0.23704   0.24423   0.00000  Uiso   1.00
O170   O     0.98157   0.17358   0.33380   0.00000  Uiso   1.00
O171   O     0.74130   0.16433   0.32446   0.00000  Uiso   1.00
O172   O     0.94258   0.09629   0.25576   0.00000  Uiso   1.00
O173   O     0.70231   0.08704   0.24642   0.00000  Uiso   1.00
O174   O     0.92537   0.16901   0.17554   0.00000  Uiso   1.00
O175   O     0.68510   0.15976   0.16620   0.00000  Uiso   1.00
Zn176  Zn    0.93786   0.17284   0.25623   0.00000  Uiso   1.00
Zn177  Zn    0.72881   0.16049   0.24376   0.00000  Uiso   1.00
C178   C     0.01520   0.59813   0.25136   0.00000  Uiso   1.00
C179   C     0.05411   0.50342   0.41639   0.00000  Uiso   1.00
C180   C     0.02485   0.65289   0.26195   0.00000  Uiso   1.00
C181   C     0.03541   0.50172   0.35517   0.00000  Uiso   1.00
C182   C     0.31195   0.34723   0.24947   0.00000  Uiso   1.00
C183   C     0.31926   0.40204   0.25239   0.00000  Uiso   1.00
C184   C     0.29774   0.49649   0.14491   0.00000  Uiso   1.00
C185   C     0.27125   0.43332   0.49808   0.00000  Uiso   1.00
C186   C     0.27760   0.48800   0.08445   0.00000  Uiso   1.00
C187   C     0.02643   0.53468   0.45103   0.00000  Uiso   1.00
C188   C     0.05154   0.54721   0.00742   0.00000  Uiso   1.00
C189   C     0.13478   0.49987   0.49437   0.00000  Uiso   1.00
C190   C     0.10584   0.53136   0.02878   0.00000  Uiso   1.00
C191   C     0.14218   0.41681   0.16460   0.00000  Uiso   1.00
C192   C     0.21800   0.56134   0.35556   0.00000  Uiso   1.00
C193   C     0.12822   0.34321   0.27447   0.00000  Uiso   1.00
C194   C     0.10540   0.48132   0.43965   0.00000  Uiso   1.00
C195   C     0.19176   0.48595   0.01233   0.00000  Uiso   1.00
C196   C     0.21559   0.44869   0.47901   0.00000  Uiso   1.00
C197   C     0.18290   0.42611   0.42812   0.00000  Uiso   1.00
C198   C     0.12837   0.44194   0.40891   0.00000  Uiso   1.00
C199   C     0.22575   0.50794   0.06280   0.00000  Uiso   1.00
C200   C     0.30180   0.45207   0.05153   0.00000  Uiso   1.00
H201   H     0.19957   0.39641   0.40293   0.00000  Uiso   1.00
H202   H     0.12741   0.49356   0.15258   0.00000  Uiso   1.00
H203   H     0.14705   0.40958   0.12002   0.00000  Uiso   1.00
H204   H     0.09807   0.40240   0.16779   0.00000  Uiso   1.00
H205   H     0.17478   0.39530   0.19117   0.00000  Uiso   1.00
H206   H     0.13627   0.55844   0.30584   0.00000  Uiso   1.00
H207   H     0.20104   0.58811   0.38544   0.00000  Uiso   1.00
H208   H     0.25866   0.58070   0.34872   0.00000  Uiso   1.00
H209   H     0.22478   0.52367   0.37484   0.00000  Uiso   1.00
H210   H     0.08332   0.66045   0.33785   0.00000  Uiso   1.00
H211   H     0.14667   0.38427   0.27910   0.00000  Uiso   1.00
H212   H     0.28972   0.40487   0.47303   0.00000  Uiso   1.00
H213   H     0.11911   0.66175   0.22913   0.00000  Uiso   1.00
H214   H     0.16102   0.65309   0.29798   0.00000  Uiso   1.00
H215   H     0.21150   0.53874   0.08817   0.00000  Uiso   1.00
H216   H     0.32005   0.55137   0.43412   0.00000  Uiso   1.00
H217   H     0.12335   0.54365   0.07250   0.00000  Uiso   1.00
H218   H     0.02995   0.57125   0.03412   0.00000  Uiso   1.00
H219   H     0.10400   0.42279   0.36981   0.00000  Uiso   1.00
H220   H     0.00910   0.43649   0.06821   0.00000  Uiso   1.00
H221   H     0.26931   0.66281   0.23019   0.00000  Uiso   1.00
N222   N     0.14493   0.48556   0.23542   0.00000  Uiso   1.00
N223   N     0.18840   0.51444   0.26457   0.00000  Uiso   1.00
N224   N     0.15176   0.47202   0.18131   0.00000  Uiso   1.00
N225   N     0.17732   0.55302   0.30281   0.00000  Uiso   1.00
N226   N     0.07691   0.34109   0.29832   0.00000  Uiso   1.00
O227   O     0.29769   0.57963   0.25357   0.00000  Uiso   1.00
O228   O     0.05742   0.57038   0.24423   0.00000  Uiso   1.00
O229   O     0.31490   0.50691   0.33380   0.00000  Uiso   1.00
O230   O     0.07463   0.49766   0.32446   0.00000  Uiso   1.00
O231   O     0.27592   0.42962   0.25576   0.00000  Uiso   1.00
O232   O     0.03565   0.42037   0.24642   0.00000  Uiso   1.00
O233   O     0.25870   0.50234   0.17554   0.00000  Uiso   1.00
O234   O     0.01843   0.49309   0.16620   0.00000  Uiso   1.00
Zn235  Zn    0.27119   0.50618   0.25623   0.00000  Uiso   1.00
Zn236  Zn    0.06214   0.49382   0.24376   0.00000  Uiso   1.00
C237   C     0.34854   0.59813   0.25136   0.00000  Uiso   1.00
C238   C     0.38744   0.50342   0.41639   0.00000  Uiso   1.00
C239   C     0.35818   0.65289   0.26195   0.00000  Uiso   1.00
C240   C     0.36874   0.50172   0.35517   0.00000  Uiso   1.00
C241   C     0.64529   0.34723   0.24947   0.00000  Uiso   1.00
C242   C     0.65260   0.40204   0.25239   0.00000  Uiso   1.00
C243   C     0.63107   0.49649   0.14491   0.00000  Uiso   1.00
C244   C     0.60458   0.43332   0.49808   0.00000  Uiso   1.00
C245   C     0.61093   0.48800   0.08445   0.00000  Uiso   1.00
C246   C     0.35977   0.53468   0.45103   0.00000  Uiso   1.00
C247   C     0.38487   0.54721   0.00742   0.00000  Uiso   1.00
C248   C     0.46812   0.49987   0.49437   0.00000  Uiso   1.00
C249   C     0.43917   0.53136   0.02878   0.00000  Uiso   1.00
C250   C     0.47552   0.41681   0.16460   0.00000  Uiso   1.00
C251   C     0.55133   0.56134   0.35556   0.00000  Uiso   1.00
C252   C     0.46156   0.34321   0.27447   0.00000  Uiso   1.00
C253   C     0.43873   0.48132   0.43965   0.00000  Uiso   1.00
C254   C     0.52509   0.48595   0.01233   0.00000  Uiso   1.00
C255   C     0.54892   0.44869   0.47901   0.00000  Uiso   1.00
C256   C     0.51623   0.42611   0.42812   0.00000  Uiso   1.00
C257   C     0.46170   0.44194   0.40891   0.00000  Uiso   1.00
C258   C     0.55908   0.50794   0.06280   0.00000  Uiso   1.00
C259   C     0.63514   0.45207   0.05153   0.00000  Uiso   1.00
H260   H     0.53290   0.39641   0.40293   0.00000  Uiso   1.00
H261   H     0.46074   0.49356   0.15258   0.00000  Uiso   1.00
H262   H     0.48039   0.40958   0.12002   0.00000  Uiso   1.00
H263   H     0.43140   0.40240   0.16779   0.00000  Uiso   1.00
H264   H     0.50812   0.39530   0.19117   0.00000  Uiso   1.00
H265   H     0.46961   0.55844   0.30584   0.00000  Uiso   1.00
H266   H     0.53437   0.58811   0.38544   0.00000  Uiso   1.00
H267   H     0.59199   0.58070   0.34872   0.00000  Uiso   1.00
H268   H     0.55812   0.52367   0.37484   0.00000  Uiso   1.00
H269   H     0.41666   0.66045   0.33785   0.00000  Uiso   1.00
H270   H     0.48001   0.38427   0.27910   0.00000  Uiso   1.00
H271   H     0.62306   0.40487   0.47303   0.00000  Uiso   1.00
H272   H     0.45245   0.66175   0.22913   0.00000  Uiso   1.00
H273   H     0.49436   0.65309   0.29798   0.00000  Uiso   1.00
H274   H     0.54483   0.53874   0.08817   0.00000  Uiso   1.00
H275   H     0.65338   0.55137   0.43412   0.00000  Uiso   1.00
H276   H     0.45668   0.54365   0.07250   0.00000  Uiso   1.00
H277   H     0.36329   0.57125   0.03412   0.00000  Uiso   1.00
H278   H     0.43734   0.42279   0.36981   0.00000  Uiso   1.00
H279   H     0.34243   0.43649   0.06821   0.00000  Uiso   1.00
H280   H     0.60265   0.66281   0.23019   0.00000  Uiso   1.00
N281   N     0.47827   0.48556   0.23542   0.00000  Uiso   1.00
N282   N     0.52173   0.51444   0.26457   0.00000  Uiso   1.00
N283   N     0.48509   0.47202   0.18131   0.00000  Uiso   1.00
N284   N     0.51065   0.55302   0.30281   0.00000  Uiso   1.00
N285   N     0.41024   0.34109   0.29832   0.00000  Uiso   1.00
O286   O     0.63102   0.57963   0.25357   0.00000  Uiso   1.00
O287   O     0.39075   0.57038   0.24423   0.00000  Uiso   1.00
O288   O     0.64823   0.50691   0.33380   0.00000  Uiso   1.00
O289   O     0.40796   0.49766   0.32446   0.00000  Uiso   1.00
O290   O     0.60925   0.42962   0.25576   0.00000  Uiso   1.00
O291   O     0.36898   0.42037   0.24642   0.00000  Uiso   1.00
O292   O     0.59204   0.50234   0.17554   0.00000  Uiso   1.00
O293   O     0.35177   0.49309   0.16620   0.00000  Uiso   1.00
Zn294  Zn    0.60453   0.50618   0.25623   0.00000  Uiso   1.00
Zn295  Zn    0.39547   0.49382   0.24376   0.00000  Uiso   1.00
C296   C     0.68187   0.59813   0.25136   0.00000  Uiso   1.00
C297   C     0.72077   0.50342   0.41639   0.00000  Uiso   1.00
C298   C     0.69152   0.65289   0.26195   0.00000  Uiso   1.00
C299   C     0.70207   0.50172   0.35517   0.00000  Uiso   1.00
C300   C     0.97862   0.34723   0.24947   0.00000  Uiso   1.00
C301   C     0.98593   0.40204   0.25239   0.00000  Uiso   1.00
C302   C     0.96440   0.49649   0.14491   0.00000  Uiso   1.00
C303   C     0.93792   0.43332   0.49808   0.00000  Uiso   1.00
C304   C     0.94427   0.48800   0.08445   0.00000  Uiso   1.00
C305   C     0.69310   0.53468   0.45103   0.00000  Uiso   1.00
C306   C     0.71820   0.54721   0.00742   0.00000  Uiso   1.00
C307   C     0.80145   0.49987   0.49437   0.00000  Uiso   1.00
C308   C     0.77250   0.53136   0.02878   0.00000  Uiso   1.00
C309   C     0.80885   0.41681   0.16460   0.00000  Uiso   1.00
C310   C     0.88466   0.56134   0.35556   0.00000  Uiso   1.00
C311   C     0.79489   0.34321   0.27447   0.00000  Uiso   1.00
C312   C     0.77206   0.48132   0.43965   0.00000  Uiso   1.00
C313   C     0.85842   0.48595   0.01233   0.00000  Uiso   1.00
C314   C     0.88226   0.44869   0.47901   0.00000  Uiso   1.00
C315   C     0.84957   0.42611   0.42812   0.00000  Uiso   1.00
C316   C     0.79503   0.44194   0.40891   0.00000  Uiso   1.00
C317   C     0.89241   0.50794   0.06280   0.00000  Uiso   1.00
C318   C     0.96847   0.45207   0.05153   0.00000  Uiso   1.00
H319   H     0.86623   0.39641   0.40293   0.00000  Uiso   1.00
H320   H     0.79408   0.49356   0.15258   0.00000  Uiso   1.00
H321   H     0.81372   0.40958   0.12002   0.00000  Uiso   1.00
H322   H     0.76474   0.40240   0.16779   0.00000  Uiso   1.00
H323   H     0.84145   0.39530   0.19117   0.00000  Uiso   1.00
H324   H     0.80294   0.55844   0.30584   0.00000  Uiso   1.00
H325   H     0.86770   0.58811   0.38544   0.00000  Uiso   1.00
H326   H     0.92532   0.58070   0.34872   0.00000  Uiso   1.00
H327   H     0.89145   0.52367   0.37484   0.00000  Uiso   1.00
H328   H     0.74999   0.66045   0.33785   0.00000  Uiso   1.00
H329   H     0.81334   0.38427   0.27910   0.00000  Uiso   1.00
H330   H     0.95639   0.40487   0.47303   0.00000  Uiso   1.00
H331   H     0.78578   0.66175   0.22913   0.00000  Uiso   1.00
H332   H     0.82769   0.65309   0.29798   0.00000  Uiso   1.00
H333   H     0.87817   0.53874   0.08817   0.00000  Uiso   1.00
H334   H     0.98671   0.55137   0.43412   0.00000  Uiso   1.00
H335   H     0.79002   0.54365   0.07250   0.00000  Uiso   1.00
H336   H     0.69662   0.57125   0.03412   0.00000  Uiso   1.00
H337   H     0.77067   0.42279   0.36981   0.00000  Uiso   1.00
H338   H     0.67577   0.43649   0.06821   0.00000  Uiso   1.00
H339   H     0.93598   0.66281   0.23019   0.00000  Uiso   1.00
N340   N     0.81160   0.48556   0.23542   0.00000  Uiso   1.00
N341   N     0.85507   0.51444   0.26457   0.00000  Uiso   1.00
N342   N     0.81842   0.47202   0.18131   0.00000  Uiso   1.00
N343   N     0.84398   0.55302   0.30281   0.00000  Uiso   1.00
N344   N     0.74358   0.34109   0.29832   0.00000  Uiso   1.00
O345   O     0.96435   0.57963   0.25357   0.00000  Uiso   1.00
O346   O     0.72408   0.57038   0.24423   0.00000  Uiso   1.00
O347   O     0.98157   0.50691   0.33380   0.00000  Uiso   1.00
O348   O     0.74130   0.49766   0.32446   0.00000  Uiso   1.00
O349   O     0.94258   0.42962   0.25576   0.00000  Uiso   1.00
O350   O     0.70231   0.42037   0.24642   0.00000  Uiso   1.00
O351   O     0.92537   0.50234   0.17554   0.00000  Uiso   1.00
O352   O     0.68510   0.49309   0.16620   0.00000  Uiso   1.00
Zn353  Zn    0.93786   0.50618   0.25623   0.00000  Uiso   1.00
Zn354  Zn    0.72881   0.49382   0.24376   0.00000  Uiso   1.00
C355   C     0.01520   0.93146   0.25136   0.00000  Uiso   1.00
C356   C     0.05411   0.83675   0.41639   0.00000  Uiso   1.00
C357   C     0.02485   0.98622   0.26195   0.00000  Uiso   1.00
C358   C     0.03541   0.83505   0.35517   0.00000  Uiso   1.00
C359   C     0.31195   0.68056   0.24947   0.00000  Uiso   1.00
C360   C     0.31926   0.73537   0.25239   0.00000  Uiso   1.00
C361   C     0.29774   0.82982   0.14491   0.00000  Uiso   1.00
C362   C     0.27125   0.76666   0.49808   0.00000  Uiso   1.00
C363   C     0.27760   0.82133   0.08445   0.00000  Uiso   1.00
C364   C     0.02643   0.86801   0.45103   0.00000  Uiso   1.00
C365   C     0.05154   0.88054   0.00742   0.00000  Uiso   1.00
C366   C     0.13478   0.83320   0.49437   0.00000  Uiso   1.00
C367   C     0.10584   0.86469   0.02878   0.00000  Uiso   1.00
C368   C     0.14218   0.75015   0.16460   0.00000  Uiso   1.00
C369   C     0.21800   0.89467   0.35556   0.00000  Uiso   1.00
C370   C     0.12822   0.67655   0.27447   0.00000  Uiso   1.00
C371   C     0.10540   0.81466   0.43965   0.00000  Uiso   1.00
C372   C     0.19176   0.81928   0.01233   0.00000  Uiso   1.00
C373   C     0.21559   0.78202   0.47901   0.00000  Uiso   1.00
C374   C     0.18290   0.75944   0.42812   0.00000  Uiso   1.00
C375   C     0.12837   0.77527   0.40891   0.00000  Uiso   1.00
C376   C     0.22575   0.84128   0.06280   0.00000  Uiso   1.00
C377   C     0.30180   0.78540   0.05153   0.00000  Uiso   1.00
H378   H     0.19957   0.72974   0.40293   0.00000  Uiso   1.00
H379   H     0.12741   0.82689   0.15258   0.00000  Uiso   1.00
H380   H     0.14705   0.74291   0.12002   0.00000  Uiso   1.00
H381   H     0.09807   0.73573   0.16779   0.00000  Uiso   1.00
H382   H     0.17478   0.72863   0.19117   0.00000  Uiso   1.00
H383   H     0.13627   0.89178   0.30584   0.00000  Uiso   1.00
H384   H     0.20104   0.92144   0.38544   0.00000  Uiso   1.00
H385   H     0.25866   0.91404   0.34872   0.00000  Uiso   1.00
H386   H     0.22478   0.85701   0.37484   0.00000  Uiso   1.00
H387   H     0.08332   0.99378   0.33785   0.00000  Uiso   1.00
H388   H     0.14667   0.71761   0.27910   0.00000  Uiso   1.00
H389   H     0.28972   0.73820   0.47303   0.00000  Uiso   1.00
H390   H     0.11911   0.99508   0.22913   0.00000  Uiso   1.00
H391   H     0.16102   0.98642   0.29798   0.00000  Uiso   1.00
H392   H     0.21150   0.87208   0.08817   0.00000  Uiso   1.00
H393   H     0.32005   0.88470   0.43412   0.00000  Uiso   1.00
H394   H     0.12335   0.87698   0.07250   0.00000  Uiso   1.00
H395   H     0.02995   0.90458   0.03412   0.00000  Uiso   1.00
H396   H     0.10400   0.75612   0.36981   0.00000  Uiso   1.00
H397   H     0.00910   0.76983   0.06821   0.00000  Uiso   1.00
H398   H     0.26931   0.99614   0.23019   0.00000  Uiso   1.00
N399   N     0.14493   0.81890   0.23542   0.00000  Uiso   1.00
N400   N     0.18840   0.84777   0.26457   0.00000  Uiso   1.00
N401   N     0.15176   0.80535   0.18131   0.00000  Uiso   1.00
N402   N     0.17732   0.88636   0.30281   0.00000  Uiso   1.00
N403   N     0.07691   0.67442   0.29832   0.00000  Uiso   1.00
O404   O     0.29769   0.91296   0.25357   0.00000  Uiso   1.00
O405   O     0.05742   0.90371   0.24423   0.00000  Uiso   1.00
O406   O     0.31490   0.84024   0.33380   0.00000  Uiso   1.00
O407   O     0.07463   0.83099   0.32446   0.00000  Uiso   1.00
O408   O     0.27592   0.76296   0.25576   0.00000  Uiso   1.00
O409   O     0.03565   0.75371   0.24642   0.00000  Uiso   1.00
O410   O     0.25870   0.83567   0.17554   0.00000  Uiso   1.00
O411   O     0.01843   0.82642   0.16620   0.00000  Uiso   1.00
Zn412  Zn    0.27119   0.83951   0.25623   0.00000  Uiso   1.00
Zn413  Zn    0.06214   0.82716   0.24376   0.00000  Uiso   1.00
C414   C     0.34854   0.93146   0.25136   0.00000  Uiso   1.00
C415   C     0.38744   0.83675   0.41639   0.00000  Uiso   1.00
C416   C     0.35818   0.98622   0.26195   0.00000  Uiso   1.00
C417   C     0.36874   0.83505   0.35517   0.00000  Uiso   1.00
C418   C     0.64529   0.68056   0.24947   0.00000  Uiso   1.00
C419   C     0.65260   0.73537   0.25239   0.00000  Uiso   1.00
C420   C     0.63107   0.82982   0.14491   0.00000  Uiso   1.00
C421   C     0.60458   0.76666   0.49808   0.00000  Uiso   1.00
C422   C     0.61093   0.82133   0.08445   0.00000  Uiso   1.00
C423   C     0.35977   0.86801   0.45103   0.00000  Uiso   1.00
C424   C     0.38487   0.88054   0.00742   0.00000  Uiso   1.00
C425   C     0.46812   0.83320   0.49437   0.00000  Uiso   1.00
C426   C     0.43917   0.86469   0.02878   0.00000  Uiso   1.00
C427   C     0.47552   0.75015   0.16460   0.00000  Uiso   1.00
C428   C     0.55133   0.89467   0.35556   0.00000  Uiso   1.00
C429   C     0.46156   0.67655   0.27447   0.00000  Uiso   1.00
C430   C     0.43873   0.81466   0.43965   0.00000  Uiso   1.00
C431   C     0.52509   0.81928   0.01233   0.00000  Uiso   1.00
C432   C     0.54892   0.78202   0.47901   0.00000  Uiso   1.00
C433   C     0.51623   0.75944   0.42812   0.00000  Uiso   1.00
C434   C     0.46170   0.77527   0.40891   0.00000  Uiso   1.00
C435   C     0.55908   0.84128   0.06280   0.00000  Uiso   1.00
C436   C     0.63514   0.78540   0.05153   0.00000  Uiso   1.00
H437   H     0.53290   0.72974   0.40293   0.00000  Uiso   1.00
H438   H     0.46074   0.82689   0.15258   0.00000  Uiso   1.00
H439   H     0.48039   0.74291   0.12002   0.00000  Uiso   1.00
H440   H     0.43140   0.73573   0.16779   0.00000  Uiso   1.00
H441   H     0.50812   0.72863   0.19117   0.00000  Uiso   1.00
H442   H     0.46961   0.89178   0.30584   0.00000  Uiso   1.00
H443   H     0.53437   0.92144   0.38544   0.00000  Uiso   1.00
H444   H     0.59199   0.91404   0.34872   0.00000  Uiso   1.00
H445   H     0.55812   0.85701   0.37484   0.00000  Uiso   1.00
H446   H     0.41666   0.99378   0.33785   0.00000  Uiso   1.00
H447   H     0.48001   0.71761   0.27910   0.00000  Uiso   1.00
H448   H     0.62306   0.73820   0.47303   0.00000  Uiso   1.00
H449   H     0.45245   0.99508   0.22913   0.00000  Uiso   1.00
H450   H     0.49436   0.98642   0.29798   0.00000  Uiso   1.00
H451   H     0.54483   0.87208   0.08817   0.00000  Uiso   1.00
H452   H     0.65338   0.88470   0.43412   0.00000  Uiso   1.00
H453   H     0.45668   0.87698   0.07250   0.00000  Uiso   1.00
H454   H     0.36329   0.90458   0.03412   0.00000  Uiso   1.00
H455   H     0.43734   0.75612   0.36981   0.00000  Uiso   1.00
H456   H     0.34243   0.76983   0.06821   0.00000  Uiso   1.00
H457   H     0.60265   0.99614   0.23019   0.00000  Uiso   1.00
N458   N     0.47827   0.81890   0.23542   0.00000  Uiso   1.00
N459   N     0.52173   0.84777   0.26457   0.00000  Uiso   1.00
N460   N     0.48509   0.80535   0.18131   0.00000  Uiso   1.00
N461   N     0.51065   0.88636   0.30281   0.00000  Uiso   1.00
N462   N     0.41024   0.67442   0.29832   0.00000  Uiso   1.00
O463   O     0.63102   0.91296   0.25357   0.00000  Uiso   1.00
O464   O     0.39075   0.90371   0.24423   0.00000  Uiso   1.00
O465   O     0.64823   0.84024   0.33380   0.00000  Uiso   1.00
O466   O     0.40796   0.83099   0.32446   0.00000  Uiso   1.00
O467   O     0.60925   0.76296   0.25576   0.00000  Uiso   1.00
O468   O     0.36898   0.75371   0.24642   0.00000  Uiso   1.00
O469   O     0.59204   0.83567   0.17554   0.00000  Uiso   1.00
O470   O     0.35177   0.82642   0.16620   0.00000  Uiso   1.00
Zn471  Zn    0.60453   0.83951   0.25623   0.00000  Uiso   1.00
Zn472  Zn    0.39547   0.82716   0.24376   0.00000  Uiso   1.00
C473   C     0.68187   0.93146   0.25136   0.00000  Uiso   1.00
C474   C     0.72077   0.83675   0.41639   0.00000  Uiso   1.00
C475   C     0.69152   0.98622   0.26195   0.00000  Uiso   1.00
C476   C     0.70207   0.83505   0.35517   0.00000  Uiso   1.00
C477   C     0.97862   0.68056   0.24947   0.00000  Uiso   1.00
C478   C     0.98593   0.73537   0.25239   0.00000  Uiso   1.00
C479   C     0.96440   0.82982   0.14491   0.00000  Uiso   1.00
C480   C     0.93792   0.76666   0.49808   0.00000  Uiso   1.00
C481   C     0.94427   0.82133   0.08445   0.00000  Uiso   1.00
C482   C     0.69310   0.86801   0.45103   0.00000  Uiso   1.00
C483   C     0.71820   0.88054   0.00742   0.00000  Uiso   1.00
C484   C     0.80145   0.83320   0.49437   0.00000  Uiso   1.00
C485   C     0.77250   0.86469   0.02878   0.00000  Uiso   1.00
C486   C     0.80885   0.75015   0.16460   0.00000  Uiso   1.00
C487   C     0.88466   0.89467   0.35556   0.00000  Uiso   1.00
C488   C     0.79489   0.67655   0.27447   0.00000  Uiso   1.00
C489   C     0.77206   0.81466   0.43965   0.00000  Uiso   1.00
C490   C     0.85842   0.81928   0.01233   0.00000  Uiso   1.00
C491   C     0.88226   0.78202   0.47901   0.00000  Uiso   1.00
C492   C     0.84957   0.75944   0.42812   0.00000  Uiso   1.00
C493   C     0.79503   0.77527   0.40891   0.00000  Uiso   1.00
C494   C     0.89241   0.84128   0.06280   0.00000  Uiso   1.00
C495   C     0.96847   0.78540   0.05153   0.00000  Uiso   1.00
H496   H     0.86623   0.72974   0.40293   0.00000  Uiso   1.00
H497   H     0.79408   0.82689   0.15258   0.00000  Uiso   1.00
H498   H     0.81372   0.74291   0.12002   0.00000  Uiso   1.00
H499   H     0.76474   0.73573   0.16779   0.00000  Uiso   1.00
H500   H     0.84145   0.72863   0.19117   0.00000  Uiso   1.00
H501   H     0.80294   0.89178   0.30584   0.00000  Uiso   1.00
H502   H     0.86770   0.92144   0.38544   0.00000  Uiso   1.00
H503   H     0.92532   0.91404   0.34872   0.00000  Uiso   1.00
H504   H     0.89145   0.85701   0.37484   0.00000  Uiso   1.00
H505   H     0.74999   0.99378   0.33785   0.00000  Uiso   1.00
H506   H     0.81334   0.71761   0.27910   0.00000  Uiso   1.00
H507   H     0.95639   0.73820   0.47303   0.00000  Uiso   1.00
H508   H     0.78578   0.99508   0.22913   0.00000  Uiso   1.00
H509   H     0.82769   0.98642   0.29798   0.00000  Uiso   1.00
H510   H     0.87817   0.87208   0.08817   0.00000  Uiso   1.00
H511   H     0.98671   0.88470   0.43412   0.00000  Uiso   1.00
H512   H     0.79002   0.87698   0.07250   0.00000  Uiso   1.00
H513   H     0.69662   0.90458   0.03412   0.00000  Uiso   1.00
H514   H     0.77067   0.75612   0.36981   0.00000  Uiso   1.00
H515   H     0.67577   0.76983   0.06821   0.00000  Uiso   1.00
H516   H     0.93598   0.99614   0.23019   0.00000  Uiso   1.00
N517   N     0.81160   0.81890   0.23542   0.00000  Uiso   1.00
N518   N     0.85507   0.84777   0.26457   0.00000  Uiso   1.00
N519   N     0.81842   0.80535   0.18131   0.00000  Uiso   1.00
N520   N     0.84398   0.88636   0.30281   0.00000  Uiso   1.00
N521   N     0.74358   0.67442   0.29832   0.00000  Uiso   1.00
O522   O     0.96435   0.91296   0.25357   0.00000  Uiso   1.00
O523   O     0.72408   0.90371   0.24423   0.00000  Uiso   1.00
O524   O     0.98157   0.84024   0.33380   0.00000  Uiso   1.00
O525   O     0.74130   0.83099   0.32446   0.00000  Uiso   1.00
O526   O     0.94258   0.76296   0.25576   0.00000  Uiso   1.00
O527   O     0.70231   0.75371   0.24642   0.00000  Uiso   1.00
O528   O     0.92537   0.83567   0.17554   0.00000  Uiso   1.00
O529   O     0.68510   0.82642   0.16620   0.00000  Uiso   1.00
Zn530  Zn    0.93786   0.83951   0.25623   0.00000  Uiso   1.00
Zn531  Zn    0.72881   0.82716   0.24376   0.00000  Uiso   1.00
C532   C     0.01520   0.26479   0.75136   0.00000  Uiso   1.00
C533   C     0.05411   0.17009   0.91639   0.00000  Uiso   1.00
C534   C     0.02485   0.31956   0.76195   0.00000  Uiso   1.00
C535   C     0.03541   0.16839   0.85517   0.00000  Uiso   1.00
C536   C     0.31195   0.01390   0.74947   0.00000  Uiso   1.00
C537   C     0.31926   0.06871   0.75239   0.00000  Uiso   1.00
C538   C     0.29774   0.16315   0.64491   0.00000  Uiso   1.00
C539   C     0.27125   0.09999   0.99808   0.00000  Uiso   1.00
C540   C     0.27760   0.15466   0.58445   0.00000  Uiso   1.00
C541   C     0.02643   0.20134   0.95103   0.00000  Uiso   1.00
C542   C     0.05154   0.21388   0.50742   0.00000  Uiso   1.00
C543   C     0.13478   0.16653   0.99437   0.00000  Uiso   1.00
C544   C     0.10584   0.19803   0.52878   0.00000  Uiso   1.00
C545   C     0.14218   0.08348   0.66460   0.00000  Uiso   1.00
C546   C     0.21800   0.22801   0.85556   0.00000  Uiso   1.00
C547   C     0.12822   0.00988   0.77447   0.00000  Uiso   1.00
C548   C     0.10540   0.14799   0.93965   0.00000  Uiso   1.00
C549   C     0.19176   0.15261   0.51233   0.00000  Uiso   1.00
C550   C     0.21559   0.11535   0.97901   0.00000  Uiso   1.00
C551   C     0.18290   0.09277   0.92812   0.00000  Uiso   1.00
C552   C     0.12837   0.10861   0.90891   0.00000  Uiso   1.00
C553   C     0.22575   0.17461   0.56280   0.00000  Uiso   1.00
C554   C     0.30180   0.11874   0.55153   0.00000  Uiso   1.00
H555   H     0.19957   0.06307   0.90293   0.00000  Uiso   1.00
H556   H     0.12741   0.16022   0.65258   0.00000  Uiso   1.00
H557   H     0.14705   0.07625   0.62002   0.00000  Uiso   1.00
H558   H     0.09807   0.06907   0.66779   0.00000  Uiso   1.00
H559   H     0.17478   0.06196   0.69117   0.00000  Uiso   1.00
H560   H     0.13627   0.22511   0.80584   0.00000  Uiso   1.00
H561   H     0.20104   0.25478   0.88544   0.00000  Uiso   1.00
H562   H     0.25866   0.24737   0.84872   0.00000  Uiso   1.00
H563   H     0.22478   0.19034   0.87484   0.00000  Uiso   1.00
H564   H     0.08332   0.32712   0.83785   0.00000  Uiso   1.00
H565   H     0.14667   0.05094   0.77910   0.00000  Uiso   1.00
H566   H     0.28972   0.07153   0.97303   0.00000  Uiso   1.00
H567   H     0.11911   0.32841   0.72913   0.00000  Uiso   1.00
H568   H     0.16102   0.31976   0.79798   0.00000  Uiso   1.00
H569   H     0.21150   0.20541   0.58817   0.00000  Uiso   1.00
H570   H     0.32005   0.21803   0.93412   0.00000  Uiso   1.00
H571   H     0.12335   0.21031   0.57250   0.00000  Uiso   1.00
H572   H     0.02995   0.23791   0.53412   0.00000  Uiso   1.00
H573   H     0.10400   0.08945   0.86981   0.00000  Uiso   1.00
H574   H     0.00910   0.10316   0.56821   0.00000  Uiso   1.00
H575   H     0.26931   0.32948   0.73019   0.00000  Uiso   1.00
N576   N     0.14493   0.15223   0.73542   0.00000  Uiso   1.00
N577   N     0.18840   0.18110   0.76457   0.00000  Uiso   1.00
N578   N     0.15176   0.13869   0.68131   0.00000  Uiso   1.00
N579   N     0.17732   0.21969   0.80281   0.00000  Uiso   1.00
N580   N     0.07691   0.00776   0.79832   0.00000  Uiso   1.00
O581   O     0.29769   0.24629   0.75357   0.00000  Uiso   1.00
O582   O     0.05742   0.23704   0.74423   0.00000  Uiso   1.00
O583   O     0.31490   0.17358   0.83380   0.00000  Uiso   1.00
O584   O     0.07463   0.16433   0.82446   0.00000  Uiso   1.00
O585   O     0.27592   0.09629   0.75576   0.00000  Uiso   1.00
O586   O     0.03565   0.08704   0.74642   0.00000  Uiso   1.00
O587   O     0.25870   0.16901   0.67554   0.00000  Uiso   1.00
O588   O     0.01843   0.15976   0.66620   0.00000  Uiso   1.00
Zn589  Zn    0.27119   0.17284   0.75623   0.00000  Uiso   1.00
Zn590  Zn    0.06214   0.16049   0.74376   0.00000  Uiso   1.00
C591   C     0.34854   0.26479   0.75136   0.00000  Uiso   1.00
C592   C     0.38744   0.17009   0.91639   0.00000  Uiso   1.00
C593   C     0.35818   0.31956   0.76195   0.00000  Uiso   1.00
C594   C     0.36874   0.16839   0.85517   0.00000  Uiso   1.00
C595   C     0.64529   0.01390   0.74947   0.00000  Uiso   1.00
C596   C     0.65260   0.06871   0.75239   0.00000  Uiso   1.00
C597   C     0.63107   0.16315   0.64491   0.00000  Uiso   1.00
C598   C     0.60458   0.09999   0.99808   0.00000  Uiso   1.00
C599   C     0.61093   0.15466   0.58445   0.00000  Uiso   1.00
C600   C     0.35977   0.20134   0.95103   0.00000  Uiso   1.00
C601   C     0.38487   0.21388   0.50742   0.00000  Uiso   1.00
C602   C     0.46812   0.16653   0.99437   0.00000  Uiso   1.00
C603   C     0.43917   0.19803   0.52878   0.00000  Uiso   1.00
C604   C     0.47552   0.08348   0.66460   0.00000  Uiso   1.00
C605   C     0.55133   0.22801   0.85556   0.00000  Uiso   1.00
C606   C     0.46156   0.00988   0.77447   0.00000  Uiso   1.00
C607   C     0.43873   0.14799   0.93965   0.00000  Uiso   1.00
C608   C     0.52509   0.15261   0.51233   0.00000  Uiso   1.00
C609   C     0.54892   0.11535   0.97901   0.00000  Uiso   1.00
C610   C     0.51623   0.09277   0.92812   0.00000  Uiso   1.00
C611   C     0.46170   0.10861   0.90891   0.00000  Uiso   1.00
C612   C     0.55908   0.17461   0.56280   0.00000  Uiso   1.00
C613   C     0.63514   0.11874   0.55153   0.00000  Uiso   1.00
H614   H     0.53290   0.06307   0.90293   0.00000  Uiso   1.00
H615   H     0.46074   0.16022   0.65258   0.00000  Uiso   1.00
H616   H     0.48039   0.07625   0.62002   0.00000  Uiso   1.00
H617   H     0.43140   0.06907   0.66779   0.00000  Uiso   1.00
H618   H     0.50812   0.06196   0.69117   0.00000  Uiso   1.00
H619   H     0.46961   0.22511   0.80584   0.00000  Uiso   1.00
H620   H     0.53437   0.25478   0.88544   0.00000  Uiso   1.00
H621   H     0.59199   0.24737   0.84872   0.00000  Uiso   1.00
H622   H     0.55812   0.19034   0.87484   0.00000  Uiso   1.00
H623   H     0.41666   0.32712   0.83785   0.00000  Uiso   1.00
H624   H     0.48001   0.05094   0.77910   0.00000  Uiso   1.00
H625   H     0.62306   0.07153   0.97303   0.00000  Uiso   1.00
H626   H     0.45245   0.32841   0.72913   0.00000  Uiso   1.00
H627   H     0.49436   0.31976   0.79798   0.00000  Uiso   1.00
H628   H     0.54483   0.20541   0.58817   0.00000  Uiso   1.00
H629   H     0.65338   0.21803   0.93412   0.00000  Uiso   1.00
H630   H     0.45668   0.21031   0.57250   0.00000  Uiso   1.00
H631   H     0.36329   0.23791   0.53412   0.00000  Uiso   1.00
H632   H     0.43734   0.08945   0.86981   0.00000  Uiso   1.00
H633   H     0.34243   0.10316   0.56821   0.00000  Uiso   1.00
H634   H     0.60265   0.32948   0.73019   0.00000  Uiso   1.00
N635   N     0.47827   0.15223   0.73542   0.00000  Uiso   1.00
N636   N     0.52173   0.18110   0.76457   0.00000  Uiso   1.00
N637   N     0.48509   0.13869   0.68131   0.00000  Uiso   1.00
N638   N     0.51065   0.21969   0.80281   0.00000  Uiso   1.00
N639   N     0.41024   0.00776   0.79832   0.00000  Uiso   1.00
O640   O     0.63102   0.24629   0.75357   0.00000  Uiso   1.00
O641   O     0.39075   0.23704   0.74423   0.00000  Uiso   1.00
O642   O     0.64823   0.17358   0.83380   0.00000  Uiso   1.00
O643   O     0.40796   0.16433   0.82446   0.00000  Uiso   1.00
O644   O     0.60925   0.09629   0.75576   0.00000  Uiso   1.00
O645   O     0.36898   0.08704   0.74642   0.00000  Uiso   1.00
O646   O     0.59204   0.16901   0.67554   0.00000  Uiso   1.00
O647   O     0.35177   0.15976   0.66620   0.00000  Uiso   1.00
Zn648  Zn    0.60453   0.17284   0.75623   0.00000  Uiso   1.00
Zn649  Zn    0.39547   0.16049   0.74376   0.00000  Uiso   1.00
C650   C     0.68187   0.26479   0.75136   0.00000  Uiso   1.00
C651   C     0.72077   0.17009   0.91639   0.00000  Uiso   1.00
C652   C     0.69152   0.31956   0.76195   0.00000  Uiso   1.00
C653   C     0.70207   0.16839   0.85517   0.00000  Uiso   1.00
C654   C     0.97862   0.01390   0.74947   0.00000  Uiso   1.00
C655   C     0.98593   0.06871   0.75239   0.00000  Uiso   1.00
C656   C     0.96440   0.16315   0.64491   0.00000  Uiso   1.00
C657   C     0.93792   0.09999   0.99808   0.00000  Uiso   1.00
C658   C     0.94427   0.15466   0.58445   0.00000  Uiso   1.00
C659   C     0.69310   0.20134   0.95103   0.00000  Uiso   1.00
C660   C     0.71820   0.21388   0.50742   0.00000  Uiso   1.00
C661   C     0.80145   0.16653   0.99437   0.00000  Uiso   1.00
C662   C     0.77250   0.19803   0.52878   0.00000  Uiso   1.00
C663   C     0.80885   0.08348   0.66460   0.00000  Uiso   1.00
C664   C     0.88466   0.22801   0.85556   0.00000  Uiso   1.00
C665   C     0.79489   0.00988   0.77447   0.00000  Uiso   1.00
C666   C     0.77206   0.14799   0.93965   0.00000  Uiso   1.00
C667   C     0.85842   0.15261   0.51233   0.00000  Uiso   1.00
C668   C     0.88226   0.11535   0.97901   0.00000  Uiso   1.00
C669   C     0.84957   0.09277   0.92812   0.00000  Uiso   1.00
C670   C     0.79503   0.10861   0.90891   0.00000  Uiso   1.00
C671   C     0.89241   0.17461   0.56280   0.00000  Uiso   1.00
C672   C     0.96847   0.11874   0.55153   0.00000  Uiso   1.00
H673   H     0.86623   0.06307   0.90293   0.00000  Uiso   1.00
H674   H     0.79408   0.16022   0.65258   0.00000  Uiso   1.00
H675   H     0.81372   0.07625   0.62002   0.00000  Uiso   1.00
H676   H     0.76474   0.06907   0.66779   0.00000  Uiso   1.00
H677   H     0.84145   0.06196   0.69117   0.00000  Uiso   1.00
H678   H     0.80294   0.22511   0.80584   0.00000  Uiso   1.00
H679   H     0.86770   0.25478   0.88544   0.00000  Uiso   1.00
H680   H     0.92532   0.24737   0.84872   0.00000  Uiso   1.00
H681   H     0.89145   0.19034   0.87484   0.00000  Uiso   1.00
H682   H     0.74999   0.32712   0.83785   0.00000  Uiso   1.00
H683   H     0.81334   0.05094   0.77910   0.00000  Uiso   1.00
H684   H     0.95639   0.07153   0.97303   0.00000  Uiso   1.00
H685   H     0.78578   0.32841   0.72913   0.00000  Uiso   1.00
H686   H     0.82769   0.31976   0.79798   0.00000  Uiso   1.00
H687   H     0.87817   0.20541   0.58817   0.00000  Uiso   1.00
H688   H     0.98671   0.21803   0.93412   0.00000  Uiso   1.00
H689   H     0.79002   0.21031   0.57250   0.00000  Uiso   1.00
H690   H     0.69662   0.23791   0.53412   0.00000  Uiso   1.00
H691   H     0.77067   0.08945   0.86981   0.00000  Uiso   1.00
H692   H     0.67577   0.10316   0.56821   0.00000  Uiso   1.00
H693   H     0.93598   0.32948   0.73019   0.00000  Uiso   1.00
N694   N     0.81160   0.15223   0.73542   0.00000  Uiso   1.00
N695   N     0.85507   0.18110   0.76457   0.00000  Uiso   1.00
N696   N     0.81842   0.13869   0.68131   0.00000  Uiso   1.00
N697   N     0.84398   0.21969   0.80281   0.00000  Uiso   1.00
N698   N     0.74358   0.00776   0.79832   0.00000  Uiso   1.00
O699   O     0.96435   0.24629   0.75357   0.00000  Uiso   1.00
O700   O     0.72408   0.23704   0.74423   0.00000  Uiso   1.00
O701   O     0.98157   0.17358   0.83380   0.00000  Uiso   1.00
O702   O     0.74130   0.16433   0.82446   0.00000  Uiso   1.00
O703   O     0.94258   0.09629   0.75576   0.00000  Uiso   1.00
O704   O     0.70231   0.08704   0.74642   0.00000  Uiso   1.00
O705   O     0.92537   0.16901   0.67554   0.00000  Uiso   1.00
O706   O     0.68510   0.15976   0.66620   0.00000  Uiso   1.00
Zn707  Zn    0.93786   0.17284   0.75623   0.00000  Uiso   1.00
Zn708  Zn    0.72881   0.16049   0.74376   0.00000  Uiso   1.00
C709   C     0.01520   0.59813   0.75136   0.00000  Uiso   1.00
C710   C     0.05411   0.50342   0.91639   0.00000  Uiso   1.00
C711   C     0.02485   0.65289   0.76195   0.00000  Uiso   1.00
C712   C     0.03541   0.50172   0.85517   0.00000  Uiso   1.00
C713   C     0.31195   0.34723   0.74947   0.00000  Uiso   1.00
C714   C     0.31926   0.40204   0.75239   0.00000  Uiso   1.00
C715   C     0.29774   0.49649   0.64491   0.00000  Uiso   1.00
C716   C     0.27125   0.43332   0.99808   0.00000  Uiso   1.00
C717   C     0.27760   0.48800   0.58445   0.00000  Uiso   1.00
C718   C     0.02643   0.53468   0.95103   0.00000  Uiso   1.00
C719   C     0.05154   0.54721   0.50742   0.00000  Uiso   1.00
C720   C     0.13478   0.49987   0.99437   0.00000  Uiso   1.00
C721   C     0.10584   0.53136   0.52878   0.00000  Uiso   1.00
C722   C     0.14218   0.41681   0.66460   0.00000  Uiso   1.00
C723   C     0.21800   0.56134   0.85556   0.00000  Uiso   1.00
C724   C     0.12822   0.34321   0.77447   0.00000  Uiso   1.00
C725   C     0.10540   0.48132   0.93965   0.00000  Uiso   1.00
C726   C     0.19176   0.48595   0.51233   0.00000  Uiso   1.00
C727   C     0.21559   0.44869   0.97901   0.00000  Uiso   1.00
C728   C     0.18290   0.42611   0.92812   0.00000  Uiso   1.00
C729   C     0.12837   0.44194   0.90891   0.00000  Uiso   1.00
C730   C     0.22575   0.50794   0.56280   0.00000  Uiso   1.00
C731   C     0.30180   0.45207   0.55153   0.00000  Uiso   1.00
H732   H     0.19957   0.39641   0.90293   0.00000  Uiso   1.00
H733   H     0.12741   0.49356   0.65258   0.00000  Uiso   1.00
H734   H     0.14705   0.40958   0.62002   0.00000  Uiso   1.00
H735   H     0.09807   0.40240   0.66779   0.00000  Uiso   1.00
H736   H     0.17478   0.39530   0.69117   0.00000  Uiso   1.00
H737   H     0.13627   0.55844   0.80584   0.00000  Uiso   1.00
H738   H     0.20104   0.58811   0.88544   0.00000  Uiso   1.00
H739   H     0.25866   0.58070   0.84872   0.00000  Uiso   1.00
H740   H     0.22478   0.52367   0.87484   0.00000  Uiso   1.00
H741   H     0.08332   0.66045   0.83785   0.00000  Uiso   1.00
H742   H     0.14667   0.38427   0.77910   0.00000  Uiso   1.00
H743   H     0.28972   0.40487   0.97303   0.00000  Uiso   1.00
H744   H     0.11911   0.66175   0.72913   0.00000  Uiso   1.00
H745   H     0.16102   0.65309   0.79798   0.00000  Uiso   1.00
H746   H     0.21150   0.53874   0.58817   0.00000  Uiso   1.00
H747   H     0.32005   0.55137   0.93412   0.00000  Uiso   1.00
H748   H     0.12335   0.54365   0.57250   0.00000  Uiso   1.00
H749   H     0.02995   0.57125   0.53412   0.00000  Uiso   1.00
H750   H     0.10400   0.42279   0.86981   0.00000  Uiso   1.00
H751   H     0.00910   0.43649   0.56821   0.00000  Uiso   1.00
H752   H     0.26931   0.66281   0.73019   0.00000  Uiso   1.00
N753   N     0.14493   0.48556   0.73542   0.00000  Uiso   1.00
N754   N     0.18840   0.51444   0.76457   0.00000  Uiso   1.00
N755   N     0.15176   0.47202   0.68131   0.00000  Uiso   1.00
N756   N     0.17732   0.55302   0.80281   0.00000  Uiso   1.00
N757   N     0.07691   0.34109   0.79832   0.00000  Uiso   1.00
O758   O     0.29769   0.57963   0.75357   0.00000  Uiso   1.00
O759   O     0.05742   0.57038   0.74423   0.00000  Uiso   1.00
O760   O     0.31490   0.50691   0.83380   0.00000  Uiso   1.00
O761   O     0.07463   0.49766   0.82446   0.00000  Uiso   1.00
O762   O     0.27592   0.42962   0.75576   0.00000  Uiso   1.00
O763   O     0.03565   0.42037   0.74642   0.00000  Uiso   1.00
O764   O     0.25870   0.50234   0.67554   0.00000  Uiso   1.00
O765   O     0.01843   0.49309   0.66620   0.00000  Uiso   1.00
Zn766  Zn    0.27119   0.50618   0.75623   0.00000  Uiso   1.00
Zn767  Zn    0.06214   0.49382   0.74376   0.00000  Uiso   1.00
C768   C     0.34854   0.59813   0.75136   0.00000  Uiso   1.00
C769   C     0.38744   0.50342   0.91639   0.00000  Uiso   1.00
C770   C     0.35818   0.65289   0.76195   0.00000  Uiso   1.00
C771   C     0.36874   0.50172   0.85517   0.00000  Uiso   1.00
C772   C     0.64529   0.34723   0.74947   0.00000  Uiso   1.00
C773   C     0.65260   0.40204   0.75239   0.00000  Uiso   1.00
C774   C     0.63107   0.49649   0.64491   0.00000  Uiso   1.00
C775   C     0.60458   0.43332   0.99808   0.00000  Uiso   1.00
C776   C     0.61093   0.48800   0.58445   0.00000  Uiso   1.00
C777   C     0.35977   0.53468   0.95103   0.00000  Uiso   1.00
C778   C     0.38487   0.54721   0.50742   0.00000  Uiso   1.00
C779   C     0.46812   0.49987   0.99437   0.00000  Uiso   1.00
C780   C     0.43917   0.53136   0.52878   0.00000  Uiso   1.00
C781   C     0.47552   0.41681   0.66460   0.00000  Uiso   1.00
C782   C     0.55133   0.56134   0.85556   0.00000  Uiso   1.00
C783   C     0.46156   0.34321   0.77447   0.00000  Uiso   1.00
C784   C     0.43873   0.48132   0.93965   0.00000  Uiso   1.00
C785   C     0.52509   0.48595   0.51233   0.00000  Uiso   1.00
C786   C     0.54892   0.44869   0.97901   0.00000  Uiso   1.00
C787   C     0.51623   0.42611   0.92812   0.00000  Uiso   1.00
C788   C     0.46170   0.44194   0.90891   0.00000  Uiso   1.00
C789   C     0.55908   0.50794   0.56280   0.00000  Uiso   1.00
C790   C     0.63514   0.45207   0.55153   0.00000  Uiso   1.00
H791   H     0.53290   0.39641   0.90293   0.00000  Uiso   1.00
H792   H     0.46074   0.49356   0.65258   0.00000  Uiso   1.00
H793   H     0.48039   0.40958   0.62002   0.00000  Uiso   1.00
H794   H     0.43140   0.40240   0.66779   0.00000  Uiso   1.00
H795   H     0.50812   0.39530   0.69117   0.00000  Uiso   1.00
H796   H     0.46961   0.55844   0.80584   0.00000  Uiso   1.00
H797   H     0.53437   0.58811   0.88544   0.00000  Uiso   1.00
H798   H     0.59199   0.58070   0.84872   0.00000  Uiso   1.00
H799   H     0.55812   0.52367   0.87484   0.00000  Uiso   1.00
H800   H     0.41666   0.66045   0.83785   0.00000  Uiso   1.00
H801   H     0.48001   0.38427   0.77910   0.00000  Uiso   1.00
H802   H     0.62306   0.40487   0.97303   0.00000  Uiso   1.00
H803   H     0.45245   0.66175   0.72913   0.00000  Uiso   1.00
H804   H     0.49436   0.65309   0.79798   0.00000  Uiso   1.00
H805   H     0.54483   0.53874   0.58817   0.00000  Uiso   1.00
H806   H     0.65338   0.55137   0.93412   0.00000  Uiso   1.00
H807   H     0.45668   0.54365   0.57250   0.00000  Uiso   1.00
H808   H     0.36329   0.57125   0.53412   0.00000  Uiso   1.00
H809   H     0.43734   0.42279   0.86981   0.00000  Uiso   1.00
H810   H     0.34243   0.43649   0.56821   0.00000  Uiso   1.00
H811   H     0.60265   0.66281   0.73019   0.00000  Uiso   1.00
N812   N     0.47827   0.48556   0.73542   0.00000  Uiso   1.00
N813   N     0.52173   0.51444   0.76457   0.00000  Uiso   1.00
N814   N     0.48509   0.47202   0.68131   0.00000  Uiso   1.00
N815   N     0.51065   0.55302   0.80281   0.00000  Uiso   1.00
N816   N     0.41024   0.34109   0.79832   0.00000  Uiso   1.00
O817   O     0.63102   0.57963   0.75357   0.00000  Uiso   1.00
O818   O     0.39075   0.57038   0.74423   0.00000  Uiso   1.00
O819   O     0.64823   0.50691   0.83380   0.00000  Uiso   1.00
O820   O     0.40796   0.49766   0.82446   0.00000  Uiso   1.00
O821   O     0.60925   0.42962   0.75576   0.00000  Uiso   1.00
O822   O     0.36898   0.42037   0.74642   0.00000  Uiso   1.00
O823   O     0.59204   0.50234   0.67554   0.00000  Uiso   1.00
O824   O     0.35177   0.49309   0.66620   0.00000  Uiso   1.00
Zn825  Zn    0.60453   0.50618   0.75623   0.00000  Uiso   1.00
Zn826  Zn    0.39547   0.49382   0.74376   0.00000  Uiso   1.00
C827   C     0.68187   0.59813   0.75136   0.00000  Uiso   1.00
C828   C     0.72077   0.50342   0.91639   0.00000  Uiso   1.00
C829   C     0.69152   0.65289   0.76195   0.00000  Uiso   1.00
C830   C     0.70207   0.50172   0.85517   0.00000  Uiso   1.00
C831   C     0.97862   0.34723   0.74947   0.00000  Uiso   1.00
C832   C     0.98593   0.40204   0.75239   0.00000  Uiso   1.00
C833   C     0.96440   0.49649   0.64491   0.00000  Uiso   1.00
C834   C     0.93792   0.43332   0.99808   0.00000  Uiso   1.00
C835   C     0.94427   0.48800   0.58445   0.00000  Uiso   1.00
C836   C     0.69310   0.53468   0.95103   0.00000  Uiso   1.00
C837   C     0.71820   0.54721   0.50742   0.00000  Uiso   1.00
C838   C     0.80145   0.49987   0.99437   0.00000  Uiso   1.00
C839   C     0.77250   0.53136   0.52878   0.00000  Uiso   1.00
C840   C     0.80885   0.41681   0.66460   0.00000  Uiso   1.00
C841   C     0.88466   0.56134   0.85556   0.00000  Uiso   1.00
C842   C     0.79489   0.34321   0.77447   0.00000  Uiso   1.00
C843   C     0.77206   0.48132   0.93965   0.00000  Uiso   1.00
C844   C     0.85842   0.48595   0.51233   0.00000  Uiso   1.00
C845   C     0.88226   0.44869   0.97901   0.00000  Uiso   1.00
C846   C     0.84957   0.42611   0.92812   0.00000  Uiso   1.00
C847   C     0.79503   0.44194   0.90891   0.00000  Uiso   1.00
C848   C     0.89241   0.50794   0.56280   0.00000  Uiso   1.00
C849   C     0.96847   0.45207   0.55153   0.00000  Uiso   1.00
H850   H     0.86623   0.39641   0.90293   0.00000  Uiso   1.00
H851   H     0.79408   0.49356   0.65258   0.00000  Uiso   1.00
H852   H     0.81372   0.40958   0.62002   0.00000  Uiso   1.00
H853   H     0.76474   0.40240   0.66779   0.00000  Uiso   1.00
H854   H     0.84145   0.39530   0.69117   0.00000  Uiso   1.00
H855   H     0.80294   0.55844   0.80584   0.00000  Uiso   1.00
H856   H     0.86770   0.58811   0.88544   0.00000  Uiso   1.00
H857   H     0.92532   0.58070   0.84872   0.00000  Uiso   1.00
H858   H     0.89145   0.52367   0.87484   0.00000  Uiso   1.00
H859   H     0.74999   0.66045   0.83785   0.00000  Uiso   1.00
H860   H     0.81334   0.38427   0.77910   0.00000  Uiso   1.00
H861   H     0.95639   0.40487   0.97303   0.00000  Uiso   1.00
H862   H     0.78578   0.66175   0.72913   0.00000  Uiso   1.00
H863   H     0.82769   0.65309   0.79798   0.00000  Uiso   1.00
H864   H     0.87817   0.53874   0.58817   0.00000  Uiso   1.00
H865   H     0.98671   0.55137   0.93412   0.00000  Uiso   1.00
H866   H     0.79002   0.54365   0.57250   0.00000  Uiso   1.00
H867   H     0.69662   0.57125   0.53412   0.00000  Uiso   1.00
H868   H     0.77067   0.42279   0.86981   0.00000  Uiso   1.00
H869   H     0.67577   0.43649   0.56821   0.00000  Uiso   1.00
H870   H     0.93598   0.66281   0.73019   0.00000  Uiso   1.00
N871   N     0.81160   0.48556   0.73542   0.00000  Uiso   1.00
N872   N     0.85507   0.51444   0.76457   0.00000  Uiso   1.00
N873   N     0.81842   0.47202   0.68131   0.00000  Uiso   1.00
N874   N     0.84398   0.55302   0.80281   0.00000  Uiso   1.00
N875   N     0.74358   0.34109   0.79832   0.00000  Uiso   1.00
O876   O     0.96435   0.57963   0.75357   0.00000  Uiso   1.00
O877   O     0.72408   0.57038   0.74423   0.00000  Uiso   1.00
O878   O     0.98157   0.50691   0.83380   0.00000  Uiso   1.00
O879   O     0.74130   0.49766   0.82446   0.00000  Uiso   1.00
O880   O     0.94258   0.42962   0.75576   0.00000  Uiso   1.00
O881   O     0.70231   0.42037   0.74642   0.00000  Uiso   1.00
O882   O     0.92537   0.50234   0.67554   0.00000  Uiso   1.00
O883   O     0.68510   0.49309   0.66620   0.00000  Uiso   1.00
Zn884  Zn    0.93786   0.50618   0.75623   0.00000  Uiso   1.00
Zn885  Zn    0.72881   0.49382   0.74376   0.00000  Uiso   1.00
C886   C     0.01520   0.93146   0.75136   0.00000  Uiso   1.00
C887   C     0.05411   0.83675   0.91639   0.00000  Uiso   1.00
C888   C     0.02485   0.98622   0.76195   0.00000  Uiso   1.00
C889   C     0.03541   0.83505   0.85517   0.00000  Uiso   1.00
C890   C     0.31195   0.68056   0.74947   0.00000  Uiso   1.00
C891   C     0.31926   0.73537   0.75239   0.00000  Uiso   1.00
C892   C     0.29774   0.82982   0.64491   0.00000  Uiso   1.00
C893   C     0.27125   0.76666   0.99808   0.00000  Uiso   1.00
C894   C     0.27760   0.82133   0.58445   0.00000  Uiso   1.00
C895   C     0.02643   0.86801   0.95103   0.00000  Uiso   1.00
C896   C     0.05154   0.88054   0.50742   0.00000  Uiso   1.00
C897   C     0.13478   0.83320   0.99437   0.00000  Uiso   1.00
C898   C     0.10584   0.86469   0.52878   0.00000  Uiso   1.00
C899   C     0.14218   0.75015   0.66460   0.00000  Uiso   1.00
C900   C     0.21800   0.89467   0.85556   0.00000  Uiso   1.00
C901   C     0.12822   0.67655   0.77447   0.00000  Uiso   1.00
C902   C     0.10540   0.81466   0.93965   0.00000  Uiso   1.00
C903   C     0.19176   0.81928   0.51233   0.00000  Uiso   1.00
C904   C     0.21559   0.78202   0.97901   0.00000  Uiso   1.00
C905   C     0.18290   0.75944   0.92812   0.00000  Uiso   1.00
C906   C     0.12837   0.77527   0.90891   0.00000  Uiso   1.00
C907   C     0.22575   0.84128   0.56280   0.00000  Uiso   1.00
C908   C     0.30180   0.78540   0.55153   0.00000  Uiso   1.00
H909   H     0.19957   0.72974   0.90293   0.00000  Uiso   1.00
H910   H     0.12741   0.82689   0.65258   0.00000  Uiso   1.00
H911   H     0.14705   0.74291   0.62002   0.00000  Uiso   1.00
H912   H     0.09807   0.73573   0.66779   0.00000  Uiso   1.00
H913   H     0.17478   0.72863   0.69117   0.00000  Uiso   1.00
H914   H     0.13627   0.89178   0.80584   0.00000  Uiso   1.00
H915   H     0.20104   0.92144   0.88544   0.00000  Uiso   1.00
H916   H     0.25866   0.91404   0.84872   0.00000  Uiso   1.00
H917   H     0.22478   0.85701   0.87484   0.00000  Uiso   1.00
H918   H     0.08332   0.99378   0.83785   0.00000  Uiso   1.00
H919   H     0.14667   0.71761   0.77910   0.00000  Uiso   1.00
H920   H     0.28972   0.73820   0.97303   0.00000  Uiso   1.00
H921   H     0.11911   0.99508   0.72913   0.00000  Uiso   1.00
H922   H     0.16102   0.98642   0.79798   0.00000  Uiso   1.00
H923   H     0.21150   0.87208   0.58817   0.00000  Uiso   1.00
H924   H     0.32005   0.88470   0.93412   0.00000  Uiso   1.00
H925   H     0.12335   0.87698   0.57250   0.00000  Uiso   1.00
H926   H     0.02995   0.90458   0.53412   0.00000  Uiso   1.00
H927   H     0.10400   0.75612   0.86981   0.00000  Uiso   1.00
H928   H     0.00910   0.76983   0.56821   0.00000  Uiso   1.00
H929   H     0.26931   0.99614   0.73019   0.00000  Uiso   1.00
N930   N     0.14493   0.81890   0.73542   0.00000  Uiso   1.00
N931   N     0.18840   0.84777   0.76457   0.00000  Uiso   1.00
N932   N     0.15176   0.80535   0.68131   0.00000  Uiso   1.00
N933   N     0.17732   0.88636   0.80281   0.00000  Uiso   1.00
N934   N     0.07691   0.67442   0.79832   0.00000  Uiso   1.00
O935   O     0.29769   0.91296   0.75357   0.00000  Uiso   1.00
O936   O     0.05742   0.90371   0.74423   0.00000  Uiso   1.00
O937   O     0.31490   0.84024   0.83380   0.00000  Uiso   1.00
O938   O     0.07463   0.83099   0.82446   0.00000  Uiso   1.00
O939   O     0.27592   0.76296   0.75576   0.00000  Uiso   1.00
O940   O     0.03565   0.75371   0.74642   0.00000  Uiso   1.00
O941   O     0.25870   0.83567   0.67554   0.00000  Uiso   1.00
O942   O     0.01843   0.82642   0.66620   0.00000  Uiso   1.00
Zn943  Zn    0.27119   0.83951   0.75623   0.00000  Uiso   1.00
Zn944  Zn    0.06214   0.82716   0.74376   0.00000  Uiso   1.00
C945   C     0.34854   0.93146   0.75136   0.00000  Uiso   1.00
C946   C     0.38744   0.83675   0.91639   0.00000  Uiso   1.00
C947   C     0.35818   0.98622   0.76195   0.00000  Uiso   1.00
C948   C     0.36874   0.83505   0.85517   0.00000  Uiso   1.00
C949   C     0.64529   0.68056   0.74947   0.00000  Uiso   1.00
C950   C     0.65260   0.73537   0.75239   0.00000  Uiso   1.00
C951   C     0.63107   0.82982   0.64491   0.00000  Uiso   1.00
C952   C     0.60458   0.76666   0.99808   0.00000  Uiso   1.00
C953   C     0.61093   0.82133   0.58445   0.00000  Uiso   1.00
C954   C     0.35977   0.86801   0.95103   0.00000  Uiso   1.00
C955   C     0.38487   0.88054   0.50742   0.00000  Uiso   1.00
C956   C     0.46812   0.83320   0.99437   0.00000  Uiso   1.00
C957   C     0.43917   0.86469   0.52878   0.00000  Uiso   1.00
C958   C     0.47552   0.75015   0.66460   0.00000  Uiso   1.00
C959   C     0.55133   0.89467   0.85556   0.00000  Uiso   1.00
C960   C     0.46156   0.67655   0.77447   0.00000  Uiso   1.00
C961   C     0.43873   0.81466   0.93965   0.00000  Uiso   1.00
C962   C     0.52509   0.81928   0.51233   0.00000  Uiso   1.00
C963   C     0.54892   0.78202   0.97901   0.00000  Uiso   1.00
C964   C     0.51623   0.75944   0.92812   0.00000  Uiso   1.00
C965   C     0.46170   0.77527   0.90891   0.00000  Uiso   1.00
C966   C     0.55908   0.84128   0.56280   0.00000  Uiso   1.00
C967   C     0.63514   0.78540   0.55153   0.00000  Uiso   1.00
H968   H     0.53290   0.72974   0.90293   0.00000  Uiso   1.00
H969   H     0.46074   0.82689   0.65258   0.00000  Uiso   1.00
H970   H     0.48039   0.74291   0.62002   0.00000  Uiso   1.00
H971   H     0.43140   0.73573   0.66779   0.00000  Uiso   1.00
H972   H     0.50812   0.72863   0.69117   0.00000  Uiso   1.00
H973   H     0.46961   0.89178   0.80584   0.00000  Uiso   1.00
H974   H     0.53437   0.92144   0.88544   0.00000  Uiso   1.00
H975   H     0.59199   0.91404   0.84872   0.00000  Uiso   1.00
H976   H     0.55812   0.85701   0.87484   0.00000  Uiso   1.00
H977   H     0.41666   0.99378   0.83785   0.00000  Uiso   1.00
H978   H     0.48001   0.71761   0.77910   0.00000  Uiso   1.00
H979   H     0.62306   0.73820   0.97303   0.00000  Uiso   1.00
H980   H     0.45245   0.99508   0.72913   0.00000  Uiso   1.00
H981   H     0.49436   0.98642   0.79798   0.00000  Uiso   1.00
H982   H     0.54483   0.87208   0.58817   0.00000  Uiso   1.00
H983   H     0.65338   0.88470   0.93412   0.00000  Uiso   1.00
H984   H     0.45668   0.87698   0.57250   0.00000  Uiso   1.00
H985   H     0.36329   0.90458   0.53412   0.00000  Uiso   1.00
H986   H     0.43734   0.75612   0.86981   0.00000  Uiso   1.00
H987   H     0.34243   0.76983   0.56821   0.00000  Uiso   1.00
H988   H     0.60265   0.99614   0.73019   0.00000  Uiso   1.00
N989   N     0.47827   0.81890   0.73542   0.00000  Uiso   1.00
N990   N     0.52173   0.84777   0.76457   0.00000  Uiso   1.00
N991   N     0.48509   0.80535   0.68131   0.00000  Uiso   1.00
N992   N     0.51065   0.88636   0.80281   0.00000  Uiso   1.00
N993   N     0.41024   0.67442   0.79832   0.00000  Uiso   1.00
O994   O     0.63102   0.91296   0.75357   0.00000  Uiso   1.00
O995   O     0.39075   0.90371   0.74423   0.00000  Uiso   1.00
O996   O     0.64823   0.84024   0.83380   0.00000  Uiso   1.00
O997   O     0.40796   0.83099   0.82446   0.00000  Uiso   1.00
O998   O     0.60925   0.76296   0.75576   0.00000  Uiso   1.00
O999   O     0.36898   0.75371   0.74642   0.00000  Uiso   1.00
O1000  O     0.59204   0.83567   0.67554   0.00000  Uiso   1.00
O1001  O     0.35177   0.82642   0.66620   0.00000  Uiso   1.00
Zn1002 Zn    0.60453   0.83951   0.75623   0.00000  Uiso   1.00
Zn1003 Zn    0.39547   0.82716   0.74376   0.00000  Uiso   1.00
C1004  C     0.68187   0.93146   0.75136   0.00000  Uiso   1.00
C1005  C     0.72077   0.83675   0.91639   0.00000  Uiso   1.00
C1006  C     0.69152   0.98622   0.76195   0.00000  Uiso   1.00
C1007  C     0.70207   0.83505   0.85517   0.00000  Uiso   1.00
C1008  C     0.97862   0.68056   0.74947   0.00000  Uiso   1.00
C1009  C     0.98593   0.73537   0.75239   0.00000  Uiso   1.00
C1010  C     0.96440   0.82982   0.64491   0.00000  Uiso   1.00
C1011  C     0.93792   0.76666   0.99808   0.00000  Uiso   1.00
C1012  C     0.94427   0.82133   0.58445   0.00000  Uiso   1.00
C1013  C     0.69310   0.86801   0.95103   0.00000  Uiso   1.00
C1014  C     0.71820   0.88054   0.50742   0.00000  Uiso   1.00
C1015  C     0.80145   0.83320   0.99437   0.00000  Uiso   1.00
C1016  C     0.77250   0.86469   0.52878   0.00000  Uiso   1.00
C1017  C     0.80885   0.75015   0.66460   0.00000  Uiso   1.00
C1018  C     0.88466   0.89467   0.85556   0.00000  Uiso   1.00
C1019  C     0.79489   0.67655   0.77447   0.00000  Uiso   1.00
C1020  C     0.77206   0.81466   0.93965   0.00000  Uiso   1.00
C1021  C     0.85842   0.81928   0.51233   0.00000  Uiso   1.00
C1022  C     0.88226   0.78202   0.97901   0.00000  Uiso   1.00
C1023  C     0.84957   0.75944   0.92812   0.00000  Uiso   1.00
C1024  C     0.79503   0.77527   0.90891   0.00000  Uiso   1.00
C1025  C     0.89241   0.84128   0.56280   0.00000  Uiso   1.00
C1026  C     0.96847   0.78540   0.55153   0.00000  Uiso   1.00
H1027  H     0.86623   0.72974   0.90293   0.00000  Uiso   1.00
H1028  H     0.79408   0.82689   0.65258   0.00000  Uiso   1.00
H1029  H     0.81372   0.74291   0.62002   0.00000  Uiso   1.00
H1030  H     0.76474   0.73573   0.66779   0.00000  Uiso   1.00
H1031  H     0.84145   0.72863   0.69117   0.00000  Uiso   1.00
H1032  H     0.80294   0.89178   0.80584   0.00000  Uiso   1.00
H1033  H     0.86770   0.92144   0.88544   0.00000  Uiso   1.00
H1034  H     0.92532   0.91404   0.84872   0.00000  Uiso   1.00
H1035  H     0.89145   0.85701   0.87484   0.00000  Uiso   1.00
H1036  H     0.74999   0.99378   0.83785   0.00000  Uiso   1.00
H1037  H     0.81334   0.71761   0.77910   0.00000  Uiso   1.00
H1038  H     0.95639   0.73820   0.97303   0.00000  Uiso   1.00
H1039  H     0.78578   0.99508   0.72913   0.00000  Uiso   1.00
H1040  H     0.82769   0.98642   0.79798   0.00000  Uiso   1.00
H1041  H     0.87817   0.87208   0.58817   0.00000  Uiso   1.00
H1042  H     0.98671   0.88470   0.93412   0.00000  Uiso   1.00
H1043  H     0.79002   0.87698   0.57250   0.00000  Uiso   1.00
H1044  H     0.69662   0.90458   0.53412   0.00000  Uiso   1.00
H1045  H     0.77067   0.75612   0.86981   0.00000  Uiso   1.00
H1046  H     0.67577   0.76983   0.56821   0.00000  Uiso   1.00
H1047  H     0.93598   0.99614   0.73019   0.00000  Uiso   1.00
N1048  N     0.81160   0.81890   0.73542   0.00000  Uiso   1.00
N1049  N     0.85507   0.84777   0.76457   0.00000  Uiso   1.00
N1050  N     0.81842   0.80535   0.68131   0.00000  Uiso   1.00
N1051  N     0.84398   0.88636   0.80281   0.00000  Uiso   1.00
N1052  N     0.74358   0.67442   0.79832   0.00000  Uiso   1.00
O1053  O     0.96435   0.91296   0.75357   0.00000  Uiso   1.00
O1054  O     0.72408   0.90371   0.74423   0.00000  Uiso   1.00
O1055  O     0.98157   0.84024   0.83380   0.00000  Uiso   1.00
O1056  O     0.74130   0.83099   0.82446   0.00000  Uiso   1.00
O1057  O     0.94258   0.76296   0.75576   0.00000  Uiso   1.00
O1058  O     0.70231   0.75371   0.74642   0.00000  Uiso   1.00
O1059  O     0.92537   0.83567   0.67554   0.00000  Uiso   1.00
O1060  O     0.68510   0.82642   0.66620   0.00000  Uiso   1.00
Zn1061 Zn    0.93786   0.83951   0.75623   0.00000  Uiso   1.00
Zn1062 Zn    0.72881   0.82716   0.74376   0.00000  Uiso   1.00
loop_
_geom_bond_atom_site_label_1
_geom_bond_atom_site_label_2
_geom_bond_distance
_geom_bond_site_symmetry_2
_ccdc_geom_bond_type
C1     O51     1.296   .     A
C1     C3      1.410   .     S
C1     O168    1.285   1_455 S
C2     C4      1.458   .     S
C2     C17     1.410   .     A
C2     C10     1.401   .     A
C3     C300    1.342   1_455 S
C3     N226    1.428   .     S
C4     O53     1.305   .     A
C4     O170    1.303   1_455 S
C5     C6      1.404   .     S
C5     C416    1.342   1_545 S
C5     H398    1.089   1_545 S
C6     O54     1.297   .     A
C6     O114    1.284   .     S
C7     O56     1.304   .     A
C7     C9      1.445   .     S
C7     O116    1.298   .     S
C8     C19     1.404   .     A
C8     H35     1.084   .     S
C8     C554    1.392   .     S
C9     C22     1.385   .     A
C9     C23     1.399   .     A
C10    C542    1.386   .     S
C10    H157    1.080   1_455 S
C11    C13     1.390   .     A
C11    H41     1.083   .     S
C11    C541    1.386   1_554 S
C12    C17     1.408   .     A
C12    C544    1.420   .     S
C12    C549    1.415   .     S
C13    H40     1.076   .     S
C13    C543    1.420   1_554 S
C14    N47     1.440   .     S
C14    H28     1.108   .     S
C14    H26     1.111   .     S
C14    H27     1.110   .     S
C15    H31     1.107   .     S
C15    H32     1.111   .     S
C15    N48     1.438   .     S
C15    H30     1.111   .     S
C16    N49     1.447   .     S
C16    H34     1.108   .     S
C16    H390    1.111   1_545 S
C16    H391    1.108   1_545 S
C17    C21     1.412   .     A
C18    C22     1.389   .     A
C18    C543    1.415   1_554 S
C18    C550    1.422   1_554 S
C19    C20     1.390   .     A
C19    C549    1.422   .     S
C20    C21     1.385   .     A
C20    H24     1.084   .     S
C21    H42     1.078   .     S
C22    H38     1.078   .     S
C23    C539    1.392   1_554 S
C23    H102    1.083   .     S
H25    N47     1.030   .     S
H29    N48     1.010   .     S
H33    N226    1.032   .     S
H36    C193    1.111   .     S
H37    C193    1.108   .     S
H39    C69     1.080   .     S
H43    C141    1.083   1_455 S
H44    C182    1.089   .     S
N45    N46     1.292   .     D
N45    N47     1.374   .     S
N45    Zn59    2.039   .     S
N46    N48     1.381   .     S
N46    Zn58    2.039   .     S
N49    C357    1.428   1_545 S
N49    H387    1.032   1_545 S
O50    Zn58    1.964   .     S
O50    C60     1.285   .     S
O51    Zn59    1.977   .     S
O52    Zn58    1.959   .     S
O52    C63     1.303   .     S
O53    Zn59    1.912   .     S
O54    Zn58    1.977   .     S
O55    Zn59    1.964   .     S
O55    C124    1.284   1_455 S
O56    Zn58    1.912   .     S
O57    Zn59    1.959   .     S
O57    C125    1.298   1_455 S
C60    O110    1.296   .     A
C60    C62     1.410   .     S
C61    C63     1.458   .     S
C61    C76     1.410   .     A
C61    C69     1.401   .     A
C62    C182    1.342   .     S
C62    N285    1.428   .     S
C63    O112    1.305   .     A
C64    C65     1.404   .     S
C64    C475    1.342   1_545 S
C64    H457    1.089   1_545 S
C65    O113    1.297   .     A
C65    O173    1.284   .     S
C66    O115    1.304   .     A
C66    C68     1.445   .     S
C66    O175    1.298   .     S
C67    C78     1.404   .     A
C67    H94     1.084   .     S
C67    C613    1.392   .     S
C68    C81     1.385   .     A
C68    C82     1.399   .     A
C69    C601    1.386   .     S
C70    C72     1.390   .     A
C70    H100    1.083   .     S
C70    C600    1.386   1_554 S
C71    C76     1.408   .     A
C71    C603    1.420   .     S
C71    C608    1.415   .     S
C72    H99     1.076   .     S
C72    C602    1.420   1_554 S
C73    N106    1.440   .     S
C73    H87     1.108   .     S
C73    H85     1.111   .     S
C73    H86     1.110   .     S
C74    H90     1.107   .     S
C74    H91     1.111   .     S
C74    N107    1.438   .     S
C74    H89     1.111   .     S
C75    N108    1.447   .     S
C75    H93     1.108   .     S
C75    H449    1.111   1_545 S
C75    H450    1.108   1_545 S
C76    C80     1.412   .     A
C77    C81     1.389   .     A
C77    C602    1.415   1_554 S
C77    C609    1.422   1_554 S
C78    C79     1.390   .     A
C78    C608    1.422   .     S
C79    C80     1.385   .     A
C79    H83     1.084   .     S
C80    H101    1.078   .     S
C81    H97     1.078   .     S
C82    C598    1.392   1_554 S
C82    H161    1.083   .     S
H84    N106    1.030   .     S
H88    N107    1.010   .     S
H92    N285    1.032   .     S
H95    C252    1.111   .     S
H96    C252    1.108   .     S
H98    C128    1.080   .     S
H103   C241    1.089   .     S
N104   N105    1.292   .     D
N104   N106    1.374   .     S
N104   Zn118   2.039   .     S
N105   N107    1.381   .     S
N105   Zn117   2.039   .     S
N108   C416    1.428   1_545 S
N108   H446    1.032   1_545 S
O109   Zn117   1.964   .     S
O109   C119    1.285   .     S
O110   Zn118   1.977   .     S
O111   Zn117   1.959   .     S
O111   C122    1.303   .     S
O112   Zn118   1.912   .     S
O113   Zn117   1.977   .     S
O114   Zn118   1.964   .     S
O115   Zn117   1.912   .     S
O116   Zn118   1.959   .     S
C119   O169    1.296   .     A
C119   C121    1.410   .     S
C120   C122    1.458   .     S
C120   C135    1.410   .     A
C120   C128    1.401   .     A
C121   C241    1.342   .     S
C121   N344    1.428   .     S
C122   O171    1.305   .     A
C123   C124    1.404   .     S
C123   C357    1.342   1_645 S
C123   H516    1.089   1_545 S
C124   O172    1.297   .     A
C124   O55     1.284   1_655 S
C125   O174    1.304   .     A
C125   C127    1.445   .     S
C125   O57     1.298   1_655 S
C126   C137    1.404   .     A
C126   H153    1.084   .     S
C126   C672    1.392   .     S
C127   C140    1.385   .     A
C127   C141    1.399   .     A
C128   C660    1.386   .     S
C129   C131    1.390   .     A
C129   H159    1.083   .     S
C129   C659    1.386   1_554 S
C130   C135    1.408   .     A
C130   C662    1.420   .     S
C130   C667    1.415   .     S
C131   H158    1.076   .     S
C131   C661    1.420   1_554 S
C132   N165    1.440   .     S
C132   H146    1.108   .     S
C132   H144    1.111   .     S
C132   H145    1.110   .     S
C133   H149    1.107   .     S
C133   H150    1.111   .     S
C133   N166    1.438   .     S
C133   H148    1.111   .     S
C134   N167    1.447   .     S
C134   H152    1.108   .     S
C134   H508    1.111   1_545 S
C134   H509    1.108   1_545 S
C135   C139    1.412   .     A
C136   C140    1.389   .     A
C136   C661    1.415   1_554 S
C136   C668    1.422   1_554 S
C137   C138    1.390   .     A
C137   C667    1.422   .     S
C138   C139    1.385   .     A
C138   H142    1.084   .     S
C139   H160    1.078   .     S
C140   H156    1.078   .     S
C141   C657    1.392   1_554 S
C141   H43     1.083   1_655 S
H143   N165    1.030   .     S
H147   N166    1.010   .     S
H151   N344    1.032   .     S
H154   C311    1.111   .     S
H155   C311    1.108   .     S
H157   C10     1.080   1_655 S
H162   C300    1.089   .     S
N163   N164    1.292   .     D
N163   N165    1.374   .     S
N163   Zn177   2.039   .     S
N164   N166    1.381   .     S
N164   Zn176   2.039   .     S
N167   C475    1.428   1_545 S
N167   H505    1.032   1_545 S
O168   Zn176   1.964   .     S
O168   C1      1.285   1_655 S
O169   Zn177   1.977   .     S
O170   Zn176   1.959   .     S
O170   C4      1.303   1_655 S
O171   Zn177   1.912   .     S
O172   Zn176   1.977   .     S
O173   Zn177   1.964   .     S
O174   Zn176   1.912   .     S
O175   Zn177   1.959   .     S
C178   O228    1.296   .     A
C178   C180    1.410   .     S
C178   O345    1.285   1_455 S
C179   C181    1.458   .     S
C179   C194    1.410   .     A
C179   C187    1.401   .     A
C180   C477    1.342   1_455 S
C180   N403    1.428   .     S
C181   O230    1.305   .     A
C181   O347    1.303   1_455 S
C182   C183    1.404   .     S
C183   O231    1.297   .     A
C183   O291    1.284   .     S
C184   O233    1.304   .     A
C184   C186    1.445   .     S
C184   O293    1.298   .     S
C185   C196    1.404   .     A
C185   H212    1.084   .     S
C185   C731    1.392   .     S
C186   C199    1.385   .     A
C186   C200    1.399   .     A
C187   C719    1.386   .     S
C187   H334    1.080   1_455 S
C188   C190    1.390   .     A
C188   H218    1.083   .     S
C188   C718    1.386   1_554 S
C189   C194    1.408   .     A
C189   C721    1.420   .     S
C189   C726    1.415   .     S
C190   H217    1.076   .     S
C190   C720    1.420   1_554 S
C191   N224    1.440   .     S
C191   H205    1.108   .     S
C191   H203    1.111   .     S
C191   H204    1.110   .     S
C192   H208    1.107   .     S
C192   H209    1.111   .     S
C192   N225    1.438   .     S
C192   H207    1.111   .     S
C193   N226    1.447   .     S
C193   H211    1.108   .     S
C194   C198    1.412   .     A
C195   C199    1.389   .     A
C195   C720    1.415   1_554 S
C195   C727    1.422   1_554 S
C196   C197    1.390   .     A
C196   C726    1.422   .     S
C197   C198    1.385   .     A
C197   H201    1.084   .     S
C198   H219    1.078   .     S
C199   H215    1.078   .     S
C200   C716    1.392   1_554 S
C200   H279    1.083   .     S
H202   N224    1.030   .     S
H206   N225    1.010   .     S
H210   N403    1.032   .     S
H213   C370    1.111   .     S
H214   C370    1.108   .     S
H216   C246    1.080   .     S
H220   C318    1.083   1_455 S
H221   C359    1.089   .     S
N222   N223    1.292   .     D
N222   N224    1.374   .     S
N222   Zn236   2.039   .     S
N223   N225    1.381   .     S
N223   Zn235   2.039   .     S
O227   Zn235   1.964   .     S
O227   C237    1.285   .     S
O228   Zn236   1.977   .     S
O229   Zn235   1.959   .     S
O229   C240    1.303   .     S
O230   Zn236   1.912   .     S
O231   Zn235   1.977   .     S
O232   Zn236   1.964   .     S
O232   C301    1.284   1_455 S
O233   Zn235   1.912   .     S
O234   Zn236   1.959   .     S
O234   C302    1.298   1_455 S
C237   O287    1.296   .     A
C237   C239    1.410   .     S
C238   C240    1.458   .     S
C238   C253    1.410   .     A
C238   C246    1.401   .     A
C239   C359    1.342   .     S
C239   N462    1.428   .     S
C240   O289    1.305   .     A
C241   C242    1.404   .     S
C242   O290    1.297   .     A
C242   O350    1.284   .     S
C243   O292    1.304   .     A
C243   C245    1.445   .     S
C243   O352    1.298   .     S
C244   C255    1.404   .     A
C244   H271    1.084   .     S
C244   C790    1.392   .     S
C245   C258    1.385   .     A
C245   C259    1.399   .     A
C246   C778    1.386   .     S
C247   C249    1.390   .     A
C247   H277    1.083   .     S
C247   C777    1.386   1_554 S
C248   C253    1.408   .     A
C248   C780    1.420   .     S
C248   C785    1.415   .     S
C249   H276    1.076   .     S
C249   C779    1.420   1_554 S
C250   N283    1.440   .     S
C250   H264    1.108   .     S
C250   H262    1.111   .     S
C250   H263    1.110   .     S
C251   H267    1.107   .     S
C251   H268    1.111   .     S
C251   N284    1.438   .     S
C251   H266    1.111   .     S
C252   N285    1.447   .     S
C252   H270    1.108   .     S
C253   C257    1.412   .     A
C254   C258    1.389   .     A
C254   C779    1.415   1_554 S
C254   C786    1.422   1_554 S
C255   C256    1.390   .     A
C255   C785    1.422   .     S
C256   C257    1.385   .     A
C256   H260    1.084   .     S
C257   H278    1.078   .     S
C258   H274    1.078   .     S
C259   C775    1.392   1_554 S
C259   H338    1.083   .     S
H261   N283    1.030   .     S
H265   N284    1.010   .     S
H269   N462    1.032   .     S
H272   C429    1.111   .     S
H273   C429    1.108   .     S
H275   C305    1.080   .     S
H280   C418    1.089   .     S
N281   N282    1.292   .     D
N281   N283    1.374   .     S
N281   Zn295   2.039   .     S
N282   N284    1.381   .     S
N282   Zn294   2.039   .     S
O286   Zn294   1.964   .     S
O286   C296    1.285   .     S
O287   Zn295   1.977   .     S
O288   Zn294   1.959   .     S
O288   C299    1.303   .     S
O289   Zn295   1.912   .     S
O290   Zn294   1.977   .     S
O291   Zn295   1.964   .     S
O292   Zn294   1.912   .     S
O293   Zn295   1.959   .     S
C296   O346    1.296   .     A
C296   C298    1.410   .     S
C297   C299    1.458   .     S
C297   C312    1.410   .     A
C297   C305    1.401   .     A
C298   C418    1.342   .     S
C298   N521    1.428   .     S
C299   O348    1.305   .     A
C300   C301    1.404   .     S
C300   C3      1.342   1_655 S
C301   O349    1.297   .     A
C301   O232    1.284   1_655 S
C302   O351    1.304   .     A
C302   C304    1.445   .     S
C302   O234    1.298   1_655 S
C303   C314    1.404   .     A
C303   H330    1.084   .     S
C303   C849    1.392   .     S
C304   C317    1.385   .     A
C304   C318    1.399   .     A
C305   C837    1.386   .     S
C306   C308    1.390   .     A
C306   H336    1.083   .     S
C306   C836    1.386   1_554 S
C307   C312    1.408   .     A
C307   C839    1.420   .     S
C307   C844    1.415   .     S
C308   H335    1.076   .     S
C308   C838    1.420   1_554 S
C309   N342    1.440   .     S
C309   H323    1.108   .     S
C309   H321    1.111   .     S
C309   H322    1.110   .     S
C310   H326    1.107   .     S
C310   H327    1.111   .     S
C310   N343    1.438   .     S
C310   H325    1.111   .     S
C311   N344    1.447   .     S
C311   H329    1.108   .     S
C312   C316    1.412   .     A
C313   C317    1.389   .     A
C313   C838    1.415   1_554 S
C313   C845    1.422   1_554 S
C314   C315    1.390   .     A
C314   C844    1.422   .     S
C315   C316    1.385   .     A
C315   H319    1.084   .     S
C316   H337    1.078   .     S
C317   H333    1.078   .     S
C318   C834    1.392   1_554 S
C318   H220    1.083   1_655 S
H320   N342    1.030   .     S
H324   N343    1.010   .     S
H328   N521    1.032   .     S
H331   C488    1.111   .     S
H332   C488    1.108   .     S
H334   C187    1.080   1_655 S
H339   C477    1.089   .     S
N340   N341    1.292   .     D
N340   N342    1.374   .     S
N340   Zn354   2.039   .     S
N341   N343    1.381   .     S
N341   Zn353   2.039   .     S
O345   Zn353   1.964   .     S
O345   C178    1.285   1_655 S
O346   Zn354   1.977   .     S
O347   Zn353   1.959   .     S
O347   C181    1.303   1_655 S
O348   Zn354   1.912   .     S
O349   Zn353   1.977   .     S
O350   Zn354   1.964   .     S
O351   Zn353   1.912   .     S
O352   Zn354   1.959   .     S
C355   O405    1.296   .     A
C355   C357    1.410   .     S
C355   O522    1.285   1_455 S
C356   C358    1.458   .     S
C356   C371    1.410   .     A
C356   C364    1.401   .     A
C357   C123    1.342   1_465 S
C357   N49     1.428   1_565 S
C358   O407    1.305   .     A
C358   O524    1.303   1_455 S
C359   C360    1.404   .     S
C360   O408    1.297   .     A
C360   O468    1.284   .     S
C361   O410    1.304   .     A
C361   C363    1.445   .     S
C361   O470    1.298   .     S
C362   C373    1.404   .     A
C362   H389    1.084   .     S
C362   C908    1.392   .     S
C363   C376    1.385   .     A
C363   C377    1.399   .     A
C364   C896    1.386   .     S
C364   H511    1.080   1_455 S
C365   C367    1.390   .     A
C365   H395    1.083   .     S
C365   C895    1.386   1_554 S
C366   C371    1.408   .     A
C366   C898    1.420   .     S
C366   C903    1.415   .     S
C367   H394    1.076   .     S
C367   C897    1.420   1_554 S
C368   N401    1.440   .     S
C368   H382    1.108   .     S
C368   H380    1.111   .     S
C368   H381    1.110   .     S
C369   H385    1.107   .     S
C369   H386    1.111   .     S
C369   N402    1.438   .     S
C369   H384    1.111   .     S
C370   N403    1.447   .     S
C370   H388    1.108   .     S
C371   C375    1.412   .     A
C372   C376    1.389   .     A
C372   C897    1.415   1_554 S
C372   C904    1.422   1_554 S
C373   C374    1.390   .     A
C373   C903    1.422   .     S
C374   C375    1.385   .     A
C374   H378    1.084   .     S
C375   H396    1.078   .     S
C376   H392    1.078   .     S
C377   C893    1.392   1_554 S
C377   H456    1.083   .     S
H379   N401    1.030   .     S
H383   N402    1.010   .     S
H387   N49     1.032   1_565 S
H390   C16     1.111   1_565 S
H391   C16     1.108   1_565 S
H393   C423    1.080   .     S
H397   C495    1.083   1_455 S
H398   C5      1.089   1_565 S
N399   N400    1.292   .     D
N399   N401    1.374   .     S
N399   Zn413   2.039   .     S
N400   N402    1.381   .     S
N400   Zn412   2.039   .     S
O404   Zn412   1.964   .     S
O404   C414    1.285   .     S
O405   Zn413   1.977   .     S
O406   Zn412   1.959   .     S
O406   C417    1.303   .     S
O407   Zn413   1.912   .     S
O408   Zn412   1.977   .     S
O409   Zn413   1.964   .     S
O409   C478    1.284   1_455 S
O410   Zn412   1.912   .     S
O411   Zn413   1.959   .     S
O411   C479    1.298   1_455 S
C414   O464    1.296   .     A
C414   C416    1.410   .     S
C415   C417    1.458   .     S
C415   C430    1.410   .     A
C415   C423    1.401   .     A
C416   C5      1.342   1_565 S
C416   N108    1.428   1_565 S
C417   O466    1.305   .     A
C418   C419    1.404   .     S
C419   O467    1.297   .     A
C419   O527    1.284   .     S
C420   O469    1.304   .     A
C420   C422    1.445   .     S
C420   O529    1.298   .     S
C421   C432    1.404   .     A
C421   H448    1.084   .     S
C421   C967    1.392   .     S
C422   C435    1.385   .     A
C422   C436    1.399   .     A
C423   C955    1.386   .     S
C424   C426    1.390   .     A
C424   H454    1.083   .     S
C424   C954    1.386   1_554 S
C425   C430    1.408   .     A
C425   C957    1.420   .     S
C425   C962    1.415   .     S
C426   H453    1.076   .     S
C426   C956    1.420   1_554 S
C427   N460    1.440   .     S
C427   H441    1.108   .     S
C427   H439    1.111   .     S
C427   H440    1.110   .     S
C428   H444    1.107   .     S
C428   H445    1.111   .     S
C428   N461    1.438   .     S
C428   H443    1.111   .     S
C429   N462    1.447   .     S
C429   H447    1.108   .     S
C430   C434    1.412   .     A
C431   C435    1.389   .     A
C431   C956    1.415   1_554 S
C431   C963    1.422   1_554 S
C432   C433    1.390   .     A
C432   C962    1.422   .     S
C433   C434    1.385   .     A
C433   H437    1.084   .     S
C434   H455    1.078   .     S
C435   H451    1.078   .     S
C436   C952    1.392   1_554 S
C436   H515    1.083   .     S
H438   N460    1.030   .     S
H442   N461    1.010   .     S
H446   N108    1.032   1_565 S
H449   C75     1.111   1_565 S
H450   C75     1.108   1_565 S
H452   C482    1.080   .     S
H457   C64     1.089   1_565 S
N458   N459    1.292   .     D
N458   N460    1.374   .     S
N458   Zn472   2.039   .     S
N459   N461    1.381   .     S
N459   Zn471   2.039   .     S
O463   Zn471   1.964   .     S
O463   C473    1.285   .     S
O464   Zn472   1.977   .     S
O465   Zn471   1.959   .     S
O465   C476    1.303   .     S
O466   Zn472   1.912   .     S
O467   Zn471   1.977   .     S
O468   Zn472   1.964   .     S
O469   Zn471   1.912   .     S
O470   Zn472   1.959   .     S
C473   O523    1.296   .     A
C473   C475    1.410   .     S
C474   C476    1.458   .     S
C474   C489    1.410   .     A
C474   C482    1.401   .     A
C475   C64     1.342   1_565 S
C475   N167    1.428   1_565 S
C476   O525    1.305   .     A
C477   C478    1.404   .     S
C477   C180    1.342   1_655 S
C478   O526    1.297   .     A
C478   O409    1.284   1_655 S
C479   O528    1.304   .     A
C479   C481    1.445   .     S
C479   O411    1.298   1_655 S
C480   C491    1.404   .     A
C480   H507    1.084   .     S
C480   C1026   1.392   .     S
C481   C494    1.385   .     A
C481   C495    1.399   .     A
C482   C1014   1.386   .     S
C483   C485    1.390   .     A
C483   H513    1.083   .     S
C483   C1013   1.386   1_554 S
C484   C489    1.408   .     A
C484   C1016   1.420   .     S
C484   C1021   1.415   .     S
C485   H512    1.076   .     S
C485   C1015   1.420   1_554 S
C486   N519    1.440   .     S
C486   H500    1.108   .     S
C486   H498    1.111   .     S
C486   H499    1.110   .     S
C487   H503    1.107   .     S
C487   H504    1.111   .     S
C487   N520    1.438   .     S
C487   H502    1.111   .     S
C488   N521    1.447   .     S
C488   H506    1.108   .     S
C489   C493    1.412   .     A
C490   C494    1.389   .     A
C490   C1015   1.415   1_554 S
C490   C1022   1.422   1_554 S
C491   C492    1.390   .     A
C491   C1021   1.422   .     S
C492   C493    1.385   .     A
C492   H496    1.084   .     S
C493   H514    1.078   .     S
C494   H510    1.078   .     S
C495   C1011   1.392   1_554 S
C495   H397    1.083   1_655 S
H497   N519    1.030   .     S
H501   N520    1.010   .     S
H505   N167    1.032   1_565 S
H508   C134    1.111   1_565 S
H509   C134    1.108   1_565 S
H511   C364    1.080   1_655 S
H516   C123    1.089   1_565 S
N517   N518    1.292   .     D
N517   N519    1.374   .     S
N517   Zn531   2.039   .     S
N518   N520    1.381   .     S
N518   Zn530   2.039   .     S
O522   Zn530   1.964   .     S
O522   C355    1.285   1_655 S
O523   Zn531   1.977   .     S
O524   Zn530   1.959   .     S
O524   C358    1.303   1_655 S
O525   Zn531   1.912   .     S
O526   Zn530   1.977   .     S
O527   Zn531   1.964   .     S
O528   Zn530   1.912   .     S
O529   Zn531   1.959   .     S
C532   O582    1.296   .     A
C532   C534    1.410   .     S
C532   O699    1.285   1_455 S
C533   C535    1.458   .     S
C533   C548    1.410   .     A
C533   C541    1.401   .     A
C534   C831    1.342   1_455 S
C534   N757    1.428   .     S
C535   O584    1.305   .     A
C535   O701    1.303   1_455 S
C536   C537    1.404   .     S
C536   C947    1.342   1_545 S
C536   H929    1.089   1_545 S
C537   O585    1.297   .     A
C537   O645    1.284   .     S
C538   O587    1.304   .     A
C538   C540    1.445   .     S
C538   O647    1.298   .     S
C539   C550    1.404   .     A
C539   H566    1.084   .     S
C539   C23     1.392   1_556 S
C540   C553    1.385   .     A
C540   C554    1.399   .     A
C541   C11     1.386   1_556 S
C541   H688    1.080   1_455 S
C542   C544    1.390   .     A
C542   H572    1.083   .     S
C543   C548    1.408   .     A
C543   C13     1.420   1_556 S
C543   C18     1.415   1_556 S
C544   H571    1.076   .     S
C545   N578    1.440   .     S
C545   H559    1.108   .     S
C545   H557    1.111   .     S
C545   H558    1.110   .     S
C546   H562    1.107   .     S
C546   H563    1.111   .     S
C546   N579    1.438   .     S
C546   H561    1.111   .     S
C547   N580    1.447   .     S
C547   H565    1.108   .     S
C547   H921    1.111   1_545 S
C547   H922    1.108   1_545 S
C548   C552    1.412   .     A
C549   C553    1.389   .     A
C550   C551    1.390   .     A
C550   C18     1.422   1_556 S
C551   C552    1.385   .     A
C551   H555    1.084   .     S
C552   H573    1.078   .     S
C553   H569    1.078   .     S
C554   H633    1.083   .     S
H556   N578    1.030   .     S
H560   N579    1.010   .     S
H564   N757    1.032   .     S
H567   C724    1.111   .     S
H568   C724    1.108   .     S
H570   C600    1.080   .     S
H574   C672    1.083   1_455 S
H575   C713    1.089   .     S
N576   N577    1.292   .     D
N576   N578    1.374   .     S
N576   Zn590   2.039   .     S
N577   N579    1.381   .     S
N577   Zn589   2.039   .     S
N580   C888    1.428   1_545 S
N580   H918    1.032   1_545 S
O581   Zn589   1.964   .     S
O581   C591    1.285   .     S
O582   Zn590   1.977   .     S
O583   Zn589   1.959   .     S
O583   C594    1.303   .     S
O584   Zn590   1.912   .     S
O585   Zn589   1.977   .     S
O586   Zn590   1.964   .     S
O586   C655    1.284   1_455 S
O587   Zn589   1.912   .     S
O588   Zn590   1.959   .     S
O588   C656    1.298   1_455 S
C591   O641    1.296   .     A
C591   C593    1.410   .     S
C592   C594    1.458   .     S
C592   C607    1.410   .     A
C592   C600    1.401   .     A
C593   C713    1.342   .     S
C593   N816    1.428   .     S
C594   O643    1.305   .     A
C595   C596    1.404   .     S
C595   C1006   1.342   1_545 S
C595   H988    1.089   1_545 S
C596   O644    1.297   .     A
C596   O704    1.284   .     S
C597   O646    1.304   .     A
C597   C599    1.445   .     S
C597   O706    1.298   .     S
C598   C609    1.404   .     A
C598   H625    1.084   .     S
C598   C82     1.392   1_556 S
C599   C612    1.385   .     A
C599   C613    1.399   .     A
C600   C70     1.386   1_556 S
C601   C603    1.390   .     A
C601   H631    1.083   .     S
C602   C607    1.408   .     A
C602   C72     1.420   1_556 S
C602   C77     1.415   1_556 S
C603   H630    1.076   .     S
C604   N637    1.440   .     S
C604   H618    1.108   .     S
C604   H616    1.111   .     S
C604   H617    1.110   .     S
C605   H621    1.107   .     S
C605   H622    1.111   .     S
C605   N638    1.438   .     S
C605   H620    1.111   .     S
C606   N639    1.447   .     S
C606   H624    1.108   .     S
C606   H980    1.111   1_545 S
C606   H981    1.108   1_545 S
C607   C611    1.412   .     A
C608   C612    1.389   .     A
C609   C610    1.390   .     A
C609   C77     1.422   1_556 S
C610   C611    1.385   .     A
C610   H614    1.084   .     S
C611   H632    1.078   .     S
C612   H628    1.078   .     S
C613   H692    1.083   .     S
H615   N637    1.030   .     S
H619   N638    1.010   .     S
H623   N816    1.032   .     S
H626   C783    1.111   .     S
H627   C783    1.108   .     S
H629   C659    1.080   .     S
H634   C772    1.089   .     S
N635   N636    1.292   .     D
N635   N637    1.374   .     S
N635   Zn649   2.039   .     S
N636   N638    1.381   .     S
N636   Zn648   2.039   .     S
N639   C947    1.428   1_545 S
N639   H977    1.032   1_545 S
O640   Zn648   1.964   .     S
O640   C650    1.285   .     S
O641   Zn649   1.977   .     S
O642   Zn648   1.959   .     S
O642   C653    1.303   .     S
O643   Zn649   1.912   .     S
O644   Zn648   1.977   .     S
O645   Zn649   1.964   .     S
O646   Zn648   1.912   .     S
O647   Zn649   1.959   .     S
C650   O700    1.296   .     A
C650   C652    1.410   .     S
C651   C653    1.458   .     S
C651   C666    1.410   .     A
C651   C659    1.401   .     A
C652   C772    1.342   .     S
C652   N875    1.428   .     S
C653   O702    1.305   .     A
C654   C655    1.404   .     S
C654   C888    1.342   1_645 S
C654   H1047   1.089   1_545 S
C655   O703    1.297   .     A
C655   O586    1.284   1_655 S
C656   O705    1.304   .     A
C656   C658    1.445   .     S
C656   O588    1.298   1_655 S
C657   C668    1.404   .     A
C657   H684    1.084   .     S
C657   C141    1.392   1_556 S
C658   C671    1.385   .     A
C658   C672    1.399   .     A
C659   C129    1.386   1_556 S
C660   C662    1.390   .     A
C660   H690    1.083   .     S
C661   C666    1.408   .     A
C661   C131    1.420   1_556 S
C661   C136    1.415   1_556 S
C662   H689    1.076   .     S
C663   N696    1.440   .     S
C663   H677    1.108   .     S
C663   H675    1.111   .     S
C663   H676    1.110   .     S
C664   H680    1.107   .     S
C664   H681    1.111   .     S
C664   N697    1.438   .     S
C664   H679    1.111   .     S
C665   N698    1.447   .     S
C665   H683    1.108   .     S
C665   H1039   1.111   1_545 S
C665   H1040   1.108   1_545 S
C666   C670    1.412   .     A
C667   C671    1.389   .     A
C668   C669    1.390   .     A
C668   C136    1.422   1_556 S
C669   C670    1.385   .     A
C669   H673    1.084   .     S
C670   H691    1.078   .     S
C671   H687    1.078   .     S
C672   H574    1.083   1_655 S
H674   N696    1.030   .     S
H678   N697    1.010   .     S
H682   N875    1.032   .     S
H685   C842    1.111   .     S
H686   C842    1.108   .     S
H688   C541    1.080   1_655 S
H693   C831    1.089   .     S
N694   N695    1.292   .     D
N694   N696    1.374   .     S
N694   Zn708   2.039   .     S
N695   N697    1.381   .     S
N695   Zn707   2.039   .     S
N698   C1006   1.428   1_545 S
N698   H1036   1.032   1_545 S
O699   Zn707   1.964   .     S
O699   C532    1.285   1_655 S
O700   Zn708   1.977   .     S
O701   Zn707   1.959   .     S
O701   C535    1.303   1_655 S
O702   Zn708   1.912   .     S
O703   Zn707   1.977   .     S
O704   Zn708   1.964   .     S
O705   Zn707   1.912   .     S
O706   Zn708   1.959   .     S
C709   O759    1.296   .     A
C709   C711    1.410   .     S
C709   O876    1.285   1_455 S
C710   C712    1.458   .     S
C710   C725    1.410   .     A
C710   C718    1.401   .     A
C711   C1008   1.342   1_455 S
C711   N934    1.428   .     S
C712   O761    1.305   .     A
C712   O878    1.303   1_455 S
C713   C714    1.404   .     S
C714   O762    1.297   .     A
C714   O822    1.284   .     S
C715   O764    1.304   .     A
C715   C717    1.445   .     S
C715   O824    1.298   .     S
C716   C727    1.404   .     A
C716   H743    1.084   .     S
C716   C200    1.392   1_556 S
C717   C730    1.385   .     A
C717   C731    1.399   .     A
C718   C188    1.386   1_556 S
C718   H865    1.080   1_455 S
C719   C721    1.390   .     A
C719   H749    1.083   .     S
C720   C725    1.408   .     A
C720   C190    1.420   1_556 S
C720   C195    1.415   1_556 S
C721   H748    1.076   .     S
C722   N755    1.440   .     S
C722   H736    1.108   .     S
C722   H734    1.111   .     S
C722   H735    1.110   .     S
C723   H739    1.107   .     S
C723   H740    1.111   .     S
C723   N756    1.438   .     S
C723   H738    1.111   .     S
C724   N757    1.447   .     S
C724   H742    1.108   .     S
C725   C729    1.412   .     A
C726   C730    1.389   .     A
C727   C728    1.390   .     A
C727   C195    1.422   1_556 S
C728   C729    1.385   .     A
C728   H732    1.084   .     S
C729   H750    1.078   .     S
C730   H746    1.078   .     S
C731   H810    1.083   .     S
H733   N755    1.030   .     S
H737   N756    1.010   .     S
H741   N934    1.032   .     S
H744   C901    1.111   .     S
H745   C901    1.108   .     S
H747   C777    1.080   .     S
H751   C849    1.083   1_455 S
H752   C890    1.089   .     S
N753   N754    1.292   .     D
N753   N755    1.374   .     S
N753   Zn767   2.039   .     S
N754   N756    1.381   .     S
N754   Zn766   2.039   .     S
O758   Zn766   1.964   .     S
O758   C768    1.285   .     S
O759   Zn767   1.977   .     S
O760   Zn766   1.959   .     S
O760   C771    1.303   .     S
O761   Zn767   1.912   .     S
O762   Zn766   1.977   .     S
O763   Zn767   1.964   .     S
O763   C832    1.284   1_455 S
O764   Zn766   1.912   .     S
O765   Zn767   1.959   .     S
O765   C833    1.298   1_455 S
C768   O818    1.296   .     A
C768   C770    1.410   .     S
C769   C771    1.458   .     S
C769   C784    1.410   .     A
C769   C777    1.401   .     A
C770   C890    1.342   .     S
C770   N993    1.428   .     S
C771   O820    1.305   .     A
C772   C773    1.404   .     S
C773   O821    1.297   .     A
C773   O881    1.284   .     S
C774   O823    1.304   .     A
C774   C776    1.445   .     S
C774   O883    1.298   .     S
C775   C786    1.404   .     A
C775   H802    1.084   .     S
C775   C259    1.392   1_556 S
C776   C789    1.385   .     A
C776   C790    1.399   .     A
C777   C247    1.386   1_556 S
C778   C780    1.390   .     A
C778   H808    1.083   .     S
C779   C784    1.408   .     A
C779   C249    1.420   1_556 S
C779   C254    1.415   1_556 S
C780   H807    1.076   .     S
C781   N814    1.440   .     S
C781   H795    1.108   .     S
C781   H793    1.111   .     S
C781   H794    1.110   .     S
C782   H798    1.107   .     S
C782   H799    1.111   .     S
C782   N815    1.438   .     S
C782   H797    1.111   .     S
C783   N816    1.447   .     S
C783   H801    1.108   .     S
C784   C788    1.412   .     A
C785   C789    1.389   .     A
C786   C787    1.390   .     A
C786   C254    1.422   1_556 S
C787   C788    1.385   .     A
C787   H791    1.084   .     S
C788   H809    1.078   .     S
C789   H805    1.078   .     S
C790   H869    1.083   .     S
H792   N814    1.030   .     S
H796   N815    1.010   .     S
H800   N993    1.032   .     S
H803   C960    1.111   .     S
H804   C960    1.108   .     S
H806   C836    1.080   .     S
H811   C949    1.089   .     S
N812   N813    1.292   .     D
N812   N814    1.374   .     S
N812   Zn826   2.039   .     S
N813   N815    1.381   .     S
N813   Zn825   2.039   .     S
O817   Zn825   1.964   .     S
O817   C827    1.285   .     S
O818   Zn826   1.977   .     S
O819   Zn825   1.959   .     S
O819   C830    1.303   .     S
O820   Zn826   1.912   .     S
O821   Zn825   1.977   .     S
O822   Zn826   1.964   .     S
O823   Zn825   1.912   .     S
O824   Zn826   1.959   .     S
C827   O877    1.296   .     A
C827   C829    1.410   .     S
C828   C830    1.458   .     S
C828   C843    1.410   .     A
C828   C836    1.401   .     A
C829   C949    1.342   .     S
C829   N1052   1.428   .     S
C830   O879    1.305   .     A
C831   C832    1.404   .     S
C831   C534    1.342   1_655 S
C832   O880    1.297   .     A
C832   O763    1.284   1_655 S
C833   O882    1.304   .     A
C833   C835    1.445   .     S
C833   O765    1.298   1_655 S
C834   C845    1.404   .     A
C834   H861    1.084   .     S
C834   C318    1.392   1_556 S
C835   C848    1.385   .     A
C835   C849    1.399   .     A
C836   C306    1.386   1_556 S
C837   C839    1.390   .     A
C837   H867    1.083   .     S
C838   C843    1.408   .     A
C838   C308    1.420   1_556 S
C838   C313    1.415   1_556 S
C839   H866    1.076   .     S
C840   N873    1.440   .     S
C840   H854    1.108   .     S
C840   H852    1.111   .     S
C840   H853    1.110   .     S
C841   H857    1.107   .     S
C841   H858    1.111   .     S
C841   N874    1.438   .     S
C841   H856    1.111   .     S
C842   N875    1.447   .     S
C842   H860    1.108   .     S
C843   C847    1.412   .     A
C844   C848    1.389   .     A
C845   C846    1.390   .     A
C845   C313    1.422   1_556 S
C846   C847    1.385   .     A
C846   H850    1.084   .     S
C847   H868    1.078   .     S
C848   H864    1.078   .     S
C849   H751    1.083   1_655 S
H851   N873    1.030   .     S
H855   N874    1.010   .     S
H859   N1052   1.032   .     S
H862   C1019   1.111   .     S
H863   C1019   1.108   .     S
H865   C718    1.080   1_655 S
H870   C1008   1.089   .     S
N871   N872    1.292   .     D
N871   N873    1.374   .     S
N871   Zn885   2.039   .     S
N872   N874    1.381   .     S
N872   Zn884   2.039   .     S
O876   Zn884   1.964   .     S
O876   C709    1.285   1_655 S
O877   Zn885   1.977   .     S
O878   Zn884   1.959   .     S
O878   C712    1.303   1_655 S
O879   Zn885   1.912   .     S
O880   Zn884   1.977   .     S
O881   Zn885   1.964   .     S
O882   Zn884   1.912   .     S
O883   Zn885   1.959   .     S
C886   O936    1.296   .     A
C886   C888    1.410   .     S
C886   O1053   1.285   1_455 S
C887   C889    1.458   .     S
C887   C902    1.410   .     A
C887   C895    1.401   .     A
C888   C654    1.342   1_465 S
C888   N580    1.428   1_565 S
C889   O938    1.305   .     A
C889   O1055   1.303   1_455 S
C890   C891    1.404   .     S
C891   O939    1.297   .     A
C891   O999    1.284   .     S
C892   O941    1.304   .     A
C892   C894    1.445   .     S
C892   O1001   1.298   .     S
C893   C904    1.404   .     A
C893   H920    1.084   .     S
C893   C377    1.392   1_556 S
C894   C907    1.385   .     A
C894   C908    1.399   .     A
C895   C365    1.386   1_556 S
C895   H1042   1.080   1_455 S
C896   C898    1.390   .     A
C896   H926    1.083   .     S
C897   C902    1.408   .     A
C897   C367    1.420   1_556 S
C897   C372    1.415   1_556 S
C898   H925    1.076   .     S
C899   N932    1.440   .     S
C899   H913    1.108   .     S
C899   H911    1.111   .     S
C899   H912    1.110   .     S
C900   H916    1.107   .     S
C900   H917    1.111   .     S
C900   N933    1.438   .     S
C900   H915    1.111   .     S
C901   N934    1.447   .     S
C901   H919    1.108   .     S
C902   C906    1.412   .     A
C903   C907    1.389   .     A
C904   C905    1.390   .     A
C904   C372    1.422   1_556 S
C905   C906    1.385   .     A
C905   H909    1.084   .     S
C906   H927    1.078   .     S
C907   H923    1.078   .     S
C908   H987    1.083   .     S
H910   N932    1.030   .     S
H914   N933    1.010   .     S
H918   N580    1.032   1_565 S
H921   C547    1.111   1_565 S
H922   C547    1.108   1_565 S
H924   C954    1.080   .     S
H928   C1026   1.083   1_455 S
H929   C536    1.089   1_565 S
N930   N931    1.292   .     D
N930   N932    1.374   .     S
N930   Zn944   2.039   .     S
N931   N933    1.381   .     S
N931   Zn943   2.039   .     S
O935   Zn943   1.964   .     S
O935   C945    1.285   .     S
O936   Zn944   1.977   .     S
O937   Zn943   1.959   .     S
O937   C948    1.303   .     S
O938   Zn944   1.912   .     S
O939   Zn943   1.977   .     S
O940   Zn944   1.964   .     S
O940   C1009   1.284   1_455 S
O941   Zn943   1.912   .     S
O942   Zn944   1.959   .     S
O942   C1010   1.298   1_455 S
C945   O995    1.296   .     A
C945   C947    1.410   .     S
C946   C948    1.458   .     S
C946   C961    1.410   .     A
C946   C954    1.401   .     A
C947   C536    1.342   1_565 S
C947   N639    1.428   1_565 S
C948   O997    1.305   .     A
C949   C950    1.404   .     S
C950   O998    1.297   .     A
C950   O1058   1.284   .     S
C951   O1000   1.304   .     A
C951   C953    1.445   .     S
C951   O1060   1.298   .     S
C952   C963    1.404   .     A
C952   H979    1.084   .     S
C952   C436    1.392   1_556 S
C953   C966    1.385   .     A
C953   C967    1.399   .     A
C954   C424    1.386   1_556 S
C955   C957    1.390   .     A
C955   H985    1.083   .     S
C956   C961    1.408   .     A
C956   C426    1.420   1_556 S
C956   C431    1.415   1_556 S
C957   H984    1.076   .     S
C958   N991    1.440   .     S
C958   H972    1.108   .     S
C958   H970    1.111   .     S
C958   H971    1.110   .     S
C959   H975    1.107   .     S
C959   H976    1.111   .     S
C959   N992    1.438   .     S
C959   H974    1.111   .     S
C960   N993    1.447   .     S
C960   H978    1.108   .     S
C961   C965    1.412   .     A
C962   C966    1.389   .     A
C963   C964    1.390   .     A
C963   C431    1.422   1_556 S
C964   C965    1.385   .     A
C964   H968    1.084   .     S
C965   H986    1.078   .     S
C966   H982    1.078   .     S
C967   H1046   1.083   .     S
H969   N991    1.030   .     S
H973   N992    1.010   .     S
H977   N639    1.032   1_565 S
H980   C606    1.111   1_565 S
H981   C606    1.108   1_565 S
H983   C1013   1.080   .     S
H988   C595    1.089   1_565 S
N989   N990    1.292   .     D
N989   N991    1.374   .     S
N989   Zn1003  2.039   .     S
N990   N992    1.381   .     S
N990   Zn1002  2.039   .     S
O994   Zn1002  1.964   .     S
O994   C1004   1.285   .     S
O995   Zn1003  1.977   .     S
O996   Zn1002  1.959   .     S
O996   C1007   1.303   .     S
O997   Zn1003  1.912   .     S
O998   Zn1002  1.977   .     S
O999   Zn1003  1.964   .     S
O1000  Zn1002  1.912   .     S
O1001  Zn1003  1.959   .     S
C1004  O1054   1.296   .     A
C1004  C1006   1.410   .     S
C1005  C1007   1.458   .     S
C1005  C1020   1.410   .     A
C1005  C1013   1.401   .     A
C1006  C595    1.342   1_565 S
C1006  N698    1.428   1_565 S
C1007  O1056   1.305   .     A
C1008  C1009   1.404   .     S
C1008  C711    1.342   1_655 S
C1009  O1057   1.297   .     A
C1009  O940    1.284   1_655 S
C1010  O1059   1.304   .     A
C1010  C1012   1.445   .     S
C1010  O942    1.298   1_655 S
C1011  C1022   1.404   .     A
C1011  H1038   1.084   .     S
C1011  C495    1.392   1_556 S
C1012  C1025   1.385   .     A
C1012  C1026   1.399   .     A
C1013  C483    1.386   1_556 S
C1014  C1016   1.390   .     A
C1014  H1044   1.083   .     S
C1015  C1020   1.408   .     A
C1015  C485    1.420   1_556 S
C1015  C490    1.415   1_556 S
C1016  H1043   1.076   .     S
C1017  N1050   1.440   .     S
C1017  H1031   1.108   .     S
C1017  H1029   1.111   .     S
C1017  H1030   1.110   .     S
C1018  H1034   1.107   .     S
C1018  H1035   1.111   .     S
C1018  N1051   1.438   .     S
C1018  H1033   1.111   .     S
C1019  N1052   1.447   .     S
C1019  H1037   1.108   .     S
C1020  C1024   1.412   .     A
C1021  C1025   1.389   .     A
C1022  C1023   1.390   .     A
C1022  C490    1.422   1_556 S
C1023  C1024   1.385   .     A
C1023  H1027   1.084   .     S
C1024  H1045   1.078   .     S
C1025  H1041   1.078   .     S
C1026  H928    1.083   1_655 S
H1028  N1050   1.030   .     S
H1032  N1051   1.010   .     S
H1036  N698    1.032   1_565 S
H1039  C665    1.111   1_565 S
H1040  C665    1.108   1_565 S
H1042  C895    1.080   1_655 S
H1047  C654    1.089   1_565 S
N1048  N1049   1.292   .     D
N1048  N1050   1.374   .     S
N1048  Zn1062  2.039   .     S
N1049  N1051   1.381   .     S
N1049  Zn1061  2.039   .     S
O1053  Zn1061  1.964   .     S
O1053  C886    1.285   1_655 S
O1054  Zn1062  1.977   .     S
O1055  Zn1061  1.959   .     S
O1055  C889    1.303   1_655 S
O1056  Zn1062  1.912   .     S
O1057  Zn1061  1.977   .     S
O1058  Zn1062  1.964   .     S
O1059  Zn1061  1.912   .     S
O1060  Zn1062  1.959   .     S
