data_str_m3_o10_o16_pcu_sym.126
_audit_creation_date              2020-01-03
_audit_creation_method            'Materials Studio'
_symmetry_space_group_name_H-M    'P1'
_symmetry_Int_Tables_number       1
_symmetry_cell_setting            triclinic
loop_
_symmetry_equiv_pos_as_xyz
  x,y,z
_cell_length_a                    23.5930
_cell_length_b                    25.8131
_cell_length_c                    24.3882
_cell_angle_alpha                 92.5555
_cell_angle_beta                  101.3214
_cell_angle_gamma                 94.3132
loop_
_atom_site_label
_atom_site_type_symbol
_atom_site_fract_x
_atom_site_fract_y
_atom_site_fract_z
_atom_site_U_iso_or_equiv
_atom_site_adp_type
_atom_site_occupancy
C1     C     0.01492   0.26488   0.24882   0.00000  Uiso   1.00
C2     C     0.05387   0.16918   0.41553   0.00000  Uiso   1.00
C3     C     0.02280   0.31954   0.24865   0.00000  Uiso   1.00
C4     C     0.03541   0.16800   0.35494   0.00000  Uiso   1.00
C5     C     0.31088   0.01388   0.25189   0.00000  Uiso   1.00
C6     C     0.31853   0.06849   0.25144   0.00000  Uiso   1.00
C7     C     0.29763   0.16347   0.14514   0.00000  Uiso   1.00
C8     C     0.27522   0.10731   0.49843   0.00000  Uiso   1.00
C9     C     0.27764   0.15620   0.08533   0.00000  Uiso   1.00
C10    C     0.02410   0.19774   0.44913   0.00000  Uiso   1.00
C11    C     0.04902   0.21096   0.00479   0.00000  Uiso   1.00
C12    C     0.13499   0.16763   0.49346   0.00000  Uiso   1.00
C13    C     0.10436   0.19706   0.02680   0.00000  Uiso   1.00
C14    C     0.21151   0.24896   0.32788   0.00000  Uiso   1.00
C15    C     0.19877   0.27126   0.38284   0.00000  Uiso   1.00
C16    C     0.24715   0.31159   0.41193   0.00000  Uiso   1.00
C17    C     0.10636   0.14922   0.43915   0.00000  Uiso   1.00
C18    C     0.19278   0.15535   0.01212   0.00000  Uiso   1.00
C19    C     0.21899   0.12157   0.47871   0.00000  Uiso   1.00
C20    C     0.18780   0.10069   0.42728   0.00000  Uiso   1.00
C21    C     0.13141   0.11236   0.40890   0.00000  Uiso   1.00
C22    C     0.22527   0.17542   0.06338   0.00000  Uiso   1.00
C23    C     0.30388   0.12329   0.05259   0.00000  Uiso   1.00
H24    H     0.01175   0.10848   0.06948   0.00000  Uiso   1.00
H25    H     0.10770   0.09216   0.37046   0.00000  Uiso   1.00
H26    H     0.06557   0.00350   0.24597   0.00000  Uiso   1.00
H27    H     0.20433   0.27841   0.29591   0.00000  Uiso   1.00
H28    H     0.25703   0.24013   0.33620   0.00000  Uiso   1.00
H29    H     0.15694   0.28949   0.37424   0.00000  Uiso   1.00
H30    H     0.19477   0.23943   0.41149   0.00000  Uiso   1.00
H31    H     0.25629   0.00788   0.38249   0.00000  Uiso   1.00
H32    H     0.28768   0.29302   0.42695   0.00000  Uiso   1.00
H33    H     0.23412   0.33045   0.44877   0.00000  Uiso   1.00
H34    H     0.26813   0.32998   0.25432   0.00000  Uiso   1.00
H35    H     0.15542   0.12978   0.20352   0.00000  Uiso   1.00
H36    H     0.20664   0.07513   0.40105   0.00000  Uiso   1.00
H37    H     0.29567   0.08177   0.47321   0.00000  Uiso   1.00
H38    H     0.20951   0.20400   0.08890   0.00000  Uiso   1.00
H39    H     0.31561   0.21093   0.43189   0.00000  Uiso   1.00
H40    H     0.12107   0.20886   0.07025   0.00000  Uiso   1.00
H41    H     0.02594   0.23316   0.03066   0.00000  Uiso   1.00
N42    N     0.14493   0.15223   0.23542   0.00000  Uiso   1.00
N43    N     0.18840   0.18110   0.26457   0.00000  Uiso   1.00
O44    O     0.29769   0.24629   0.25357   0.00000  Uiso   1.00
O45    O     0.05742   0.23704   0.24423   0.00000  Uiso   1.00
O46    O     0.31490   0.17358   0.33380   0.00000  Uiso   1.00
O47    O     0.07463   0.16433   0.32446   0.00000  Uiso   1.00
O48    O     0.27592   0.09629   0.25576   0.00000  Uiso   1.00
O49    O     0.03565   0.08704   0.24642   0.00000  Uiso   1.00
O50    O     0.25870   0.16901   0.17554   0.00000  Uiso   1.00
O51    O     0.01843   0.15976   0.16620   0.00000  Uiso   1.00
O52    O     0.17400   0.20416   0.31001   0.00000  Uiso   1.00
Zn53   Zn    0.27119   0.17284   0.25623   0.00000  Uiso   1.00
Zn54   Zn    0.06214   0.16049   0.24376   0.00000  Uiso   1.00
C55    C     0.34826   0.26488   0.24882   0.00000  Uiso   1.00
C56    C     0.38720   0.16918   0.41553   0.00000  Uiso   1.00
C57    C     0.35613   0.31954   0.24865   0.00000  Uiso   1.00
C58    C     0.36874   0.16800   0.35494   0.00000  Uiso   1.00
C59    C     0.64421   0.01388   0.25189   0.00000  Uiso   1.00
C60    C     0.65186   0.06849   0.25144   0.00000  Uiso   1.00
C61    C     0.63096   0.16347   0.14514   0.00000  Uiso   1.00
C62    C     0.60855   0.10731   0.49843   0.00000  Uiso   1.00
C63    C     0.61098   0.15620   0.08533   0.00000  Uiso   1.00
C64    C     0.35744   0.19774   0.44913   0.00000  Uiso   1.00
C65    C     0.38236   0.21096   0.00479   0.00000  Uiso   1.00
C66    C     0.46832   0.16763   0.49346   0.00000  Uiso   1.00
C67    C     0.43769   0.19706   0.02680   0.00000  Uiso   1.00
C68    C     0.54484   0.24896   0.32788   0.00000  Uiso   1.00
C69    C     0.53210   0.27126   0.38284   0.00000  Uiso   1.00
C70    C     0.58048   0.31159   0.41193   0.00000  Uiso   1.00
C71    C     0.43969   0.14922   0.43915   0.00000  Uiso   1.00
C72    C     0.52611   0.15535   0.01212   0.00000  Uiso   1.00
C73    C     0.55232   0.12157   0.47871   0.00000  Uiso   1.00
C74    C     0.52113   0.10069   0.42728   0.00000  Uiso   1.00
C75    C     0.46475   0.11236   0.40890   0.00000  Uiso   1.00
C76    C     0.55860   0.17542   0.06338   0.00000  Uiso   1.00
C77    C     0.63721   0.12329   0.05259   0.00000  Uiso   1.00
H78    H     0.34508   0.10848   0.06948   0.00000  Uiso   1.00
H79    H     0.44103   0.09216   0.37046   0.00000  Uiso   1.00
H80    H     0.39890   0.00350   0.24597   0.00000  Uiso   1.00
H81    H     0.53766   0.27841   0.29591   0.00000  Uiso   1.00
H82    H     0.59036   0.24013   0.33620   0.00000  Uiso   1.00
H83    H     0.49027   0.28949   0.37424   0.00000  Uiso   1.00
H84    H     0.52811   0.23943   0.41149   0.00000  Uiso   1.00
H85    H     0.58962   0.00788   0.38249   0.00000  Uiso   1.00
H86    H     0.62102   0.29302   0.42695   0.00000  Uiso   1.00
H87    H     0.56746   0.33045   0.44877   0.00000  Uiso   1.00
H88    H     0.60146   0.32998   0.25432   0.00000  Uiso   1.00
H89    H     0.48876   0.12978   0.20352   0.00000  Uiso   1.00
H90    H     0.53997   0.07513   0.40105   0.00000  Uiso   1.00
H91    H     0.62901   0.08177   0.47321   0.00000  Uiso   1.00
H92    H     0.54285   0.20400   0.08890   0.00000  Uiso   1.00
H93    H     0.64895   0.21093   0.43189   0.00000  Uiso   1.00
H94    H     0.45440   0.20886   0.07025   0.00000  Uiso   1.00
H95    H     0.35928   0.23316   0.03066   0.00000  Uiso   1.00
N96    N     0.47827   0.15223   0.23542   0.00000  Uiso   1.00
N97    N     0.52173   0.18110   0.26457   0.00000  Uiso   1.00
O98    O     0.63102   0.24629   0.25357   0.00000  Uiso   1.00
O99    O     0.39075   0.23704   0.24423   0.00000  Uiso   1.00
O100   O     0.64823   0.17358   0.33380   0.00000  Uiso   1.00
O101   O     0.40796   0.16433   0.32446   0.00000  Uiso   1.00
O102   O     0.60925   0.09629   0.25576   0.00000  Uiso   1.00
O103   O     0.36898   0.08704   0.24642   0.00000  Uiso   1.00
O104   O     0.59204   0.16901   0.17554   0.00000  Uiso   1.00
O105   O     0.35177   0.15976   0.16620   0.00000  Uiso   1.00
O106   O     0.50733   0.20416   0.31001   0.00000  Uiso   1.00
Zn107  Zn    0.60453   0.17284   0.25623   0.00000  Uiso   1.00
Zn108  Zn    0.39547   0.16049   0.24376   0.00000  Uiso   1.00
C109   C     0.68159   0.26488   0.24882   0.00000  Uiso   1.00
C110   C     0.72053   0.16918   0.41553   0.00000  Uiso   1.00
C111   C     0.68946   0.31954   0.24865   0.00000  Uiso   1.00
C112   C     0.70207   0.16800   0.35494   0.00000  Uiso   1.00
C113   C     0.97755   0.01388   0.25189   0.00000  Uiso   1.00
C114   C     0.98519   0.06849   0.25144   0.00000  Uiso   1.00
C115   C     0.96430   0.16347   0.14514   0.00000  Uiso   1.00
C116   C     0.94189   0.10731   0.49843   0.00000  Uiso   1.00
C117   C     0.94431   0.15620   0.08533   0.00000  Uiso   1.00
C118   C     0.69077   0.19774   0.44913   0.00000  Uiso   1.00
C119   C     0.71569   0.21096   0.00479   0.00000  Uiso   1.00
C120   C     0.80166   0.16763   0.49346   0.00000  Uiso   1.00
C121   C     0.77103   0.19706   0.02680   0.00000  Uiso   1.00
C122   C     0.87817   0.24896   0.32788   0.00000  Uiso   1.00
C123   C     0.86543   0.27126   0.38284   0.00000  Uiso   1.00
C124   C     0.91382   0.31159   0.41193   0.00000  Uiso   1.00
C125   C     0.77303   0.14922   0.43915   0.00000  Uiso   1.00
C126   C     0.85944   0.15535   0.01212   0.00000  Uiso   1.00
C127   C     0.88565   0.12157   0.47871   0.00000  Uiso   1.00
C128   C     0.85447   0.10069   0.42728   0.00000  Uiso   1.00
C129   C     0.79808   0.11236   0.40890   0.00000  Uiso   1.00
C130   C     0.89194   0.17542   0.06338   0.00000  Uiso   1.00
C131   C     0.97055   0.12329   0.05259   0.00000  Uiso   1.00
H132   H     0.67842   0.10848   0.06948   0.00000  Uiso   1.00
H133   H     0.77436   0.09216   0.37046   0.00000  Uiso   1.00
H134   H     0.73224   0.00350   0.24597   0.00000  Uiso   1.00
H135   H     0.87099   0.27841   0.29591   0.00000  Uiso   1.00
H136   H     0.92369   0.24013   0.33620   0.00000  Uiso   1.00
H137   H     0.82360   0.28949   0.37424   0.00000  Uiso   1.00
H138   H     0.86144   0.23943   0.41149   0.00000  Uiso   1.00
H139   H     0.92295   0.00788   0.38249   0.00000  Uiso   1.00
H140   H     0.95435   0.29302   0.42695   0.00000  Uiso   1.00
H141   H     0.90079   0.33045   0.44877   0.00000  Uiso   1.00
H142   H     0.93479   0.32998   0.25432   0.00000  Uiso   1.00
H143   H     0.82209   0.12978   0.20352   0.00000  Uiso   1.00
H144   H     0.87331   0.07513   0.40105   0.00000  Uiso   1.00
H145   H     0.96234   0.08177   0.47321   0.00000  Uiso   1.00
H146   H     0.87618   0.20400   0.08890   0.00000  Uiso   1.00
H147   H     0.98228   0.21093   0.43189   0.00000  Uiso   1.00
H148   H     0.78774   0.20886   0.07025   0.00000  Uiso   1.00
H149   H     0.69261   0.23316   0.03066   0.00000  Uiso   1.00
N150   N     0.81160   0.15223   0.23542   0.00000  Uiso   1.00
N151   N     0.85507   0.18110   0.26457   0.00000  Uiso   1.00
O152   O     0.96435   0.24629   0.25357   0.00000  Uiso   1.00
O153   O     0.72408   0.23704   0.24423   0.00000  Uiso   1.00
O154   O     0.98157   0.17358   0.33380   0.00000  Uiso   1.00
O155   O     0.74130   0.16433   0.32446   0.00000  Uiso   1.00
O156   O     0.94258   0.09629   0.25576   0.00000  Uiso   1.00
O157   O     0.70231   0.08704   0.24642   0.00000  Uiso   1.00
O158   O     0.92537   0.16901   0.17554   0.00000  Uiso   1.00
O159   O     0.68510   0.15976   0.16620   0.00000  Uiso   1.00
O160   O     0.84066   0.20416   0.31001   0.00000  Uiso   1.00
Zn161  Zn    0.93786   0.17284   0.25623   0.00000  Uiso   1.00
Zn162  Zn    0.72881   0.16049   0.24376   0.00000  Uiso   1.00
C163   C     0.01492   0.59821   0.24882   0.00000  Uiso   1.00
C164   C     0.05387   0.50251   0.41553   0.00000  Uiso   1.00
C165   C     0.02280   0.65287   0.24865   0.00000  Uiso   1.00
C166   C     0.03541   0.50133   0.35494   0.00000  Uiso   1.00
C167   C     0.31088   0.34721   0.25189   0.00000  Uiso   1.00
C168   C     0.31853   0.40182   0.25144   0.00000  Uiso   1.00
C169   C     0.29763   0.49680   0.14514   0.00000  Uiso   1.00
C170   C     0.27522   0.44064   0.49843   0.00000  Uiso   1.00
C171   C     0.27764   0.48953   0.08533   0.00000  Uiso   1.00
C172   C     0.02410   0.53107   0.44913   0.00000  Uiso   1.00
C173   C     0.04902   0.54429   0.00479   0.00000  Uiso   1.00
C174   C     0.13499   0.50096   0.49346   0.00000  Uiso   1.00
C175   C     0.10436   0.53039   0.02680   0.00000  Uiso   1.00
C176   C     0.21151   0.58229   0.32788   0.00000  Uiso   1.00
C177   C     0.19877   0.60460   0.38284   0.00000  Uiso   1.00
C178   C     0.24715   0.64492   0.41193   0.00000  Uiso   1.00
C179   C     0.10636   0.48256   0.43915   0.00000  Uiso   1.00
C180   C     0.19278   0.48868   0.01212   0.00000  Uiso   1.00
C181   C     0.21899   0.45491   0.47871   0.00000  Uiso   1.00
C182   C     0.18780   0.43402   0.42728   0.00000  Uiso   1.00
C183   C     0.13141   0.44569   0.40890   0.00000  Uiso   1.00
C184   C     0.22527   0.50875   0.06338   0.00000  Uiso   1.00
C185   C     0.30388   0.45662   0.05259   0.00000  Uiso   1.00
H186   H     0.01175   0.44182   0.06948   0.00000  Uiso   1.00
H187   H     0.10770   0.42549   0.37046   0.00000  Uiso   1.00
H188   H     0.06557   0.33683   0.24597   0.00000  Uiso   1.00
H189   H     0.20433   0.61174   0.29591   0.00000  Uiso   1.00
H190   H     0.25703   0.57346   0.33620   0.00000  Uiso   1.00
H191   H     0.15694   0.62282   0.37424   0.00000  Uiso   1.00
H192   H     0.19477   0.57276   0.41149   0.00000  Uiso   1.00
H193   H     0.25629   0.34122   0.38249   0.00000  Uiso   1.00
H194   H     0.28768   0.62635   0.42695   0.00000  Uiso   1.00
H195   H     0.23412   0.66379   0.44877   0.00000  Uiso   1.00
H196   H     0.26813   0.66331   0.25432   0.00000  Uiso   1.00
H197   H     0.15542   0.46311   0.20352   0.00000  Uiso   1.00
H198   H     0.20664   0.40846   0.40105   0.00000  Uiso   1.00
H199   H     0.29567   0.41511   0.47321   0.00000  Uiso   1.00
H200   H     0.20951   0.53734   0.08890   0.00000  Uiso   1.00
H201   H     0.31561   0.54427   0.43189   0.00000  Uiso   1.00
H202   H     0.12107   0.54220   0.07025   0.00000  Uiso   1.00
H203   H     0.02594   0.56649   0.03066   0.00000  Uiso   1.00
N204   N     0.14493   0.48556   0.23542   0.00000  Uiso   1.00
N205   N     0.18840   0.51444   0.26457   0.00000  Uiso   1.00
O206   O     0.29769   0.57963   0.25357   0.00000  Uiso   1.00
O207   O     0.05742   0.57038   0.24423   0.00000  Uiso   1.00
O208   O     0.31490   0.50691   0.33380   0.00000  Uiso   1.00
O209   O     0.07463   0.49766   0.32446   0.00000  Uiso   1.00
O210   O     0.27592   0.42962   0.25576   0.00000  Uiso   1.00
O211   O     0.03565   0.42037   0.24642   0.00000  Uiso   1.00
O212   O     0.25870   0.50234   0.17554   0.00000  Uiso   1.00
O213   O     0.01843   0.49309   0.16620   0.00000  Uiso   1.00
O214   O     0.17400   0.53750   0.31001   0.00000  Uiso   1.00
Zn215  Zn    0.27119   0.50618   0.25623   0.00000  Uiso   1.00
Zn216  Zn    0.06214   0.49382   0.24376   0.00000  Uiso   1.00
C217   C     0.34826   0.59821   0.24882   0.00000  Uiso   1.00
C218   C     0.38720   0.50251   0.41553   0.00000  Uiso   1.00
C219   C     0.35613   0.65287   0.24865   0.00000  Uiso   1.00
C220   C     0.36874   0.50133   0.35494   0.00000  Uiso   1.00
C221   C     0.64421   0.34721   0.25189   0.00000  Uiso   1.00
C222   C     0.65186   0.40182   0.25144   0.00000  Uiso   1.00
C223   C     0.63096   0.49680   0.14514   0.00000  Uiso   1.00
C224   C     0.60855   0.44064   0.49843   0.00000  Uiso   1.00
C225   C     0.61098   0.48953   0.08533   0.00000  Uiso   1.00
C226   C     0.35744   0.53107   0.44913   0.00000  Uiso   1.00
C227   C     0.38236   0.54429   0.00479   0.00000  Uiso   1.00
C228   C     0.46832   0.50096   0.49346   0.00000  Uiso   1.00
C229   C     0.43769   0.53039   0.02680   0.00000  Uiso   1.00
C230   C     0.54484   0.58229   0.32788   0.00000  Uiso   1.00
C231   C     0.53210   0.60460   0.38284   0.00000  Uiso   1.00
C232   C     0.58048   0.64492   0.41193   0.00000  Uiso   1.00
C233   C     0.43969   0.48256   0.43915   0.00000  Uiso   1.00
C234   C     0.52611   0.48868   0.01212   0.00000  Uiso   1.00
C235   C     0.55232   0.45491   0.47871   0.00000  Uiso   1.00
C236   C     0.52113   0.43402   0.42728   0.00000  Uiso   1.00
C237   C     0.46475   0.44569   0.40890   0.00000  Uiso   1.00
C238   C     0.55860   0.50875   0.06338   0.00000  Uiso   1.00
C239   C     0.63721   0.45662   0.05259   0.00000  Uiso   1.00
H240   H     0.34508   0.44182   0.06948   0.00000  Uiso   1.00
H241   H     0.44103   0.42549   0.37046   0.00000  Uiso   1.00
H242   H     0.39890   0.33683   0.24597   0.00000  Uiso   1.00
H243   H     0.53766   0.61174   0.29591   0.00000  Uiso   1.00
H244   H     0.59036   0.57346   0.33620   0.00000  Uiso   1.00
H245   H     0.49027   0.62282   0.37424   0.00000  Uiso   1.00
H246   H     0.52811   0.57276   0.41149   0.00000  Uiso   1.00
H247   H     0.58962   0.34122   0.38249   0.00000  Uiso   1.00
H248   H     0.62102   0.62635   0.42695   0.00000  Uiso   1.00
H249   H     0.56746   0.66379   0.44877   0.00000  Uiso   1.00
H250   H     0.60146   0.66331   0.25432   0.00000  Uiso   1.00
H251   H     0.48876   0.46311   0.20352   0.00000  Uiso   1.00
H252   H     0.53997   0.40846   0.40105   0.00000  Uiso   1.00
H253   H     0.62901   0.41511   0.47321   0.00000  Uiso   1.00
H254   H     0.54285   0.53734   0.08890   0.00000  Uiso   1.00
H255   H     0.64895   0.54427   0.43189   0.00000  Uiso   1.00
H256   H     0.45440   0.54220   0.07025   0.00000  Uiso   1.00
H257   H     0.35928   0.56649   0.03066   0.00000  Uiso   1.00
N258   N     0.47827   0.48556   0.23542   0.00000  Uiso   1.00
N259   N     0.52173   0.51444   0.26457   0.00000  Uiso   1.00
O260   O     0.63102   0.57963   0.25357   0.00000  Uiso   1.00
O261   O     0.39075   0.57038   0.24423   0.00000  Uiso   1.00
O262   O     0.64823   0.50691   0.33380   0.00000  Uiso   1.00
O263   O     0.40796   0.49766   0.32446   0.00000  Uiso   1.00
O264   O     0.60925   0.42962   0.25576   0.00000  Uiso   1.00
O265   O     0.36898   0.42037   0.24642   0.00000  Uiso   1.00
O266   O     0.59204   0.50234   0.17554   0.00000  Uiso   1.00
O267   O     0.35177   0.49309   0.16620   0.00000  Uiso   1.00
O268   O     0.50733   0.53750   0.31001   0.00000  Uiso   1.00
Zn269  Zn    0.60453   0.50618   0.25623   0.00000  Uiso   1.00
Zn270  Zn    0.39547   0.49382   0.24376   0.00000  Uiso   1.00
C271   C     0.68159   0.59821   0.24882   0.00000  Uiso   1.00
C272   C     0.72053   0.50251   0.41553   0.00000  Uiso   1.00
C273   C     0.68946   0.65287   0.24865   0.00000  Uiso   1.00
C274   C     0.70207   0.50133   0.35494   0.00000  Uiso   1.00
C275   C     0.97755   0.34721   0.25189   0.00000  Uiso   1.00
C276   C     0.98519   0.40182   0.25144   0.00000  Uiso   1.00
C277   C     0.96430   0.49680   0.14514   0.00000  Uiso   1.00
C278   C     0.94189   0.44064   0.49843   0.00000  Uiso   1.00
C279   C     0.94431   0.48953   0.08533   0.00000  Uiso   1.00
C280   C     0.69077   0.53107   0.44913   0.00000  Uiso   1.00
C281   C     0.71569   0.54429   0.00479   0.00000  Uiso   1.00
C282   C     0.80166   0.50096   0.49346   0.00000  Uiso   1.00
C283   C     0.77103   0.53039   0.02680   0.00000  Uiso   1.00
C284   C     0.87817   0.58229   0.32788   0.00000  Uiso   1.00
C285   C     0.86543   0.60460   0.38284   0.00000  Uiso   1.00
C286   C     0.91382   0.64492   0.41193   0.00000  Uiso   1.00
C287   C     0.77303   0.48256   0.43915   0.00000  Uiso   1.00
C288   C     0.85944   0.48868   0.01212   0.00000  Uiso   1.00
C289   C     0.88565   0.45491   0.47871   0.00000  Uiso   1.00
C290   C     0.85447   0.43402   0.42728   0.00000  Uiso   1.00
C291   C     0.79808   0.44569   0.40890   0.00000  Uiso   1.00
C292   C     0.89194   0.50875   0.06338   0.00000  Uiso   1.00
C293   C     0.97055   0.45662   0.05259   0.00000  Uiso   1.00
H294   H     0.67842   0.44182   0.06948   0.00000  Uiso   1.00
H295   H     0.77436   0.42549   0.37046   0.00000  Uiso   1.00
H296   H     0.73224   0.33683   0.24597   0.00000  Uiso   1.00
H297   H     0.87099   0.61174   0.29591   0.00000  Uiso   1.00
H298   H     0.92369   0.57346   0.33620   0.00000  Uiso   1.00
H299   H     0.82360   0.62282   0.37424   0.00000  Uiso   1.00
H300   H     0.86144   0.57276   0.41149   0.00000  Uiso   1.00
H301   H     0.92295   0.34122   0.38249   0.00000  Uiso   1.00
H302   H     0.95435   0.62635   0.42695   0.00000  Uiso   1.00
H303   H     0.90079   0.66379   0.44877   0.00000  Uiso   1.00
H304   H     0.93479   0.66331   0.25432   0.00000  Uiso   1.00
H305   H     0.82209   0.46311   0.20352   0.00000  Uiso   1.00
H306   H     0.87331   0.40846   0.40105   0.00000  Uiso   1.00
H307   H     0.96234   0.41511   0.47321   0.00000  Uiso   1.00
H308   H     0.87618   0.53734   0.08890   0.00000  Uiso   1.00
H309   H     0.98228   0.54427   0.43189   0.00000  Uiso   1.00
H310   H     0.78774   0.54220   0.07025   0.00000  Uiso   1.00
H311   H     0.69261   0.56649   0.03066   0.00000  Uiso   1.00
N312   N     0.81160   0.48556   0.23542   0.00000  Uiso   1.00
N313   N     0.85507   0.51444   0.26457   0.00000  Uiso   1.00
O314   O     0.96435   0.57963   0.25357   0.00000  Uiso   1.00
O315   O     0.72408   0.57038   0.24423   0.00000  Uiso   1.00
O316   O     0.98157   0.50691   0.33380   0.00000  Uiso   1.00
O317   O     0.74130   0.49766   0.32446   0.00000  Uiso   1.00
O318   O     0.94258   0.42962   0.25576   0.00000  Uiso   1.00
O319   O     0.70231   0.42037   0.24642   0.00000  Uiso   1.00
O320   O     0.92537   0.50234   0.17554   0.00000  Uiso   1.00
O321   O     0.68510   0.49309   0.16620   0.00000  Uiso   1.00
O322   O     0.84066   0.53750   0.31001   0.00000  Uiso   1.00
Zn323  Zn    0.93786   0.50618   0.25623   0.00000  Uiso   1.00
Zn324  Zn    0.72881   0.49382   0.24376   0.00000  Uiso   1.00
C325   C     0.01492   0.93154   0.24882   0.00000  Uiso   1.00
C326   C     0.05387   0.83585   0.41553   0.00000  Uiso   1.00
C327   C     0.02280   0.98620   0.24865   0.00000  Uiso   1.00
C328   C     0.03541   0.83466   0.35494   0.00000  Uiso   1.00
C329   C     0.31088   0.68055   0.25189   0.00000  Uiso   1.00
C330   C     0.31853   0.73515   0.25144   0.00000  Uiso   1.00
C331   C     0.29763   0.83013   0.14514   0.00000  Uiso   1.00
C332   C     0.27522   0.77397   0.49843   0.00000  Uiso   1.00
C333   C     0.27764   0.82286   0.08533   0.00000  Uiso   1.00
C334   C     0.02410   0.86440   0.44913   0.00000  Uiso   1.00
C335   C     0.04902   0.87763   0.00479   0.00000  Uiso   1.00
C336   C     0.13499   0.83430   0.49346   0.00000  Uiso   1.00
C337   C     0.10436   0.86373   0.02680   0.00000  Uiso   1.00
C338   C     0.21151   0.91562   0.32788   0.00000  Uiso   1.00
C339   C     0.19877   0.93793   0.38284   0.00000  Uiso   1.00
C340   C     0.24715   0.97825   0.41193   0.00000  Uiso   1.00
C341   C     0.10636   0.81589   0.43915   0.00000  Uiso   1.00
C342   C     0.19278   0.82201   0.01212   0.00000  Uiso   1.00
C343   C     0.21899   0.78824   0.47871   0.00000  Uiso   1.00
C344   C     0.18780   0.76735   0.42728   0.00000  Uiso   1.00
C345   C     0.13141   0.77903   0.40890   0.00000  Uiso   1.00
C346   C     0.22527   0.84209   0.06338   0.00000  Uiso   1.00
C347   C     0.30388   0.78996   0.05259   0.00000  Uiso   1.00
H348   H     0.01175   0.77515   0.06948   0.00000  Uiso   1.00
H349   H     0.10770   0.75883   0.37046   0.00000  Uiso   1.00
H350   H     0.06557   0.67017   0.24597   0.00000  Uiso   1.00
H351   H     0.20433   0.94508   0.29591   0.00000  Uiso   1.00
H352   H     0.25703   0.90679   0.33620   0.00000  Uiso   1.00
H353   H     0.15694   0.95615   0.37424   0.00000  Uiso   1.00
H354   H     0.19477   0.90610   0.41149   0.00000  Uiso   1.00
H355   H     0.25629   0.67455   0.38249   0.00000  Uiso   1.00
H356   H     0.28768   0.95969   0.42695   0.00000  Uiso   1.00
H357   H     0.23412   0.99712   0.44877   0.00000  Uiso   1.00
H358   H     0.26813   0.99664   0.25432   0.00000  Uiso   1.00
H359   H     0.15542   0.79644   0.20352   0.00000  Uiso   1.00
H360   H     0.20664   0.74180   0.40105   0.00000  Uiso   1.00
H361   H     0.29567   0.74844   0.47321   0.00000  Uiso   1.00
H362   H     0.20951   0.87067   0.08890   0.00000  Uiso   1.00
H363   H     0.31561   0.87760   0.43189   0.00000  Uiso   1.00
H364   H     0.12107   0.87553   0.07025   0.00000  Uiso   1.00
H365   H     0.02594   0.89983   0.03066   0.00000  Uiso   1.00
N366   N     0.14493   0.81890   0.23542   0.00000  Uiso   1.00
N367   N     0.18840   0.84777   0.26457   0.00000  Uiso   1.00
O368   O     0.29769   0.91296   0.25357   0.00000  Uiso   1.00
O369   O     0.05742   0.90371   0.24423   0.00000  Uiso   1.00
O370   O     0.31490   0.84024   0.33380   0.00000  Uiso   1.00
O371   O     0.07463   0.83099   0.32446   0.00000  Uiso   1.00
O372   O     0.27592   0.76296   0.25576   0.00000  Uiso   1.00
O373   O     0.03565   0.75371   0.24642   0.00000  Uiso   1.00
O374   O     0.25870   0.83567   0.17554   0.00000  Uiso   1.00
O375   O     0.01843   0.82642   0.16620   0.00000  Uiso   1.00
O376   O     0.17400   0.87083   0.31001   0.00000  Uiso   1.00
Zn377  Zn    0.27119   0.83951   0.25623   0.00000  Uiso   1.00
Zn378  Zn    0.06214   0.82716   0.24376   0.00000  Uiso   1.00
C379   C     0.34826   0.93154   0.24882   0.00000  Uiso   1.00
C380   C     0.38720   0.83585   0.41553   0.00000  Uiso   1.00
C381   C     0.35613   0.98620   0.24865   0.00000  Uiso   1.00
C382   C     0.36874   0.83466   0.35494   0.00000  Uiso   1.00
C383   C     0.64421   0.68055   0.25189   0.00000  Uiso   1.00
C384   C     0.65186   0.73515   0.25144   0.00000  Uiso   1.00
C385   C     0.63096   0.83013   0.14514   0.00000  Uiso   1.00
C386   C     0.60855   0.77397   0.49843   0.00000  Uiso   1.00
C387   C     0.61098   0.82286   0.08533   0.00000  Uiso   1.00
C388   C     0.35744   0.86440   0.44913   0.00000  Uiso   1.00
C389   C     0.38236   0.87763   0.00479   0.00000  Uiso   1.00
C390   C     0.46832   0.83430   0.49346   0.00000  Uiso   1.00
C391   C     0.43769   0.86373   0.02680   0.00000  Uiso   1.00
C392   C     0.54484   0.91562   0.32788   0.00000  Uiso   1.00
C393   C     0.53210   0.93793   0.38284   0.00000  Uiso   1.00
C394   C     0.58048   0.97825   0.41193   0.00000  Uiso   1.00
C395   C     0.43969   0.81589   0.43915   0.00000  Uiso   1.00
C396   C     0.52611   0.82201   0.01212   0.00000  Uiso   1.00
C397   C     0.55232   0.78824   0.47871   0.00000  Uiso   1.00
C398   C     0.52113   0.76735   0.42728   0.00000  Uiso   1.00
C399   C     0.46475   0.77903   0.40890   0.00000  Uiso   1.00
C400   C     0.55860   0.84209   0.06338   0.00000  Uiso   1.00
C401   C     0.63721   0.78996   0.05259   0.00000  Uiso   1.00
H402   H     0.34508   0.77515   0.06948   0.00000  Uiso   1.00
H403   H     0.44103   0.75883   0.37046   0.00000  Uiso   1.00
H404   H     0.39890   0.67017   0.24597   0.00000  Uiso   1.00
H405   H     0.53766   0.94508   0.29591   0.00000  Uiso   1.00
H406   H     0.59036   0.90679   0.33620   0.00000  Uiso   1.00
H407   H     0.49027   0.95615   0.37424   0.00000  Uiso   1.00
H408   H     0.52811   0.90610   0.41149   0.00000  Uiso   1.00
H409   H     0.58962   0.67455   0.38249   0.00000  Uiso   1.00
H410   H     0.62102   0.95969   0.42695   0.00000  Uiso   1.00
H411   H     0.56746   0.99712   0.44877   0.00000  Uiso   1.00
H412   H     0.60146   0.99664   0.25432   0.00000  Uiso   1.00
H413   H     0.48876   0.79644   0.20352   0.00000  Uiso   1.00
H414   H     0.53997   0.74180   0.40105   0.00000  Uiso   1.00
H415   H     0.62901   0.74844   0.47321   0.00000  Uiso   1.00
H416   H     0.54285   0.87067   0.08890   0.00000  Uiso   1.00
H417   H     0.64895   0.87760   0.43189   0.00000  Uiso   1.00
H418   H     0.45440   0.87553   0.07025   0.00000  Uiso   1.00
H419   H     0.35928   0.89983   0.03066   0.00000  Uiso   1.00
N420   N     0.47827   0.81890   0.23542   0.00000  Uiso   1.00
N421   N     0.52173   0.84777   0.26457   0.00000  Uiso   1.00
O422   O     0.63102   0.91296   0.25357   0.00000  Uiso   1.00
O423   O     0.39075   0.90371   0.24423   0.00000  Uiso   1.00
O424   O     0.64823   0.84024   0.33380   0.00000  Uiso   1.00
O425   O     0.40796   0.83099   0.32446   0.00000  Uiso   1.00
O426   O     0.60925   0.76296   0.25576   0.00000  Uiso   1.00
O427   O     0.36898   0.75371   0.24642   0.00000  Uiso   1.00
O428   O     0.59204   0.83567   0.17554   0.00000  Uiso   1.00
O429   O     0.35177   0.82642   0.16620   0.00000  Uiso   1.00
O430   O     0.50733   0.87083   0.31001   0.00000  Uiso   1.00
Zn431  Zn    0.60453   0.83951   0.25623   0.00000  Uiso   1.00
Zn432  Zn    0.39547   0.82716   0.24376   0.00000  Uiso   1.00
C433   C     0.68159   0.93154   0.24882   0.00000  Uiso   1.00
C434   C     0.72053   0.83585   0.41553   0.00000  Uiso   1.00
C435   C     0.68946   0.98620   0.24865   0.00000  Uiso   1.00
C436   C     0.70207   0.83466   0.35494   0.00000  Uiso   1.00
C437   C     0.97755   0.68055   0.25189   0.00000  Uiso   1.00
C438   C     0.98519   0.73515   0.25144   0.00000  Uiso   1.00
C439   C     0.96430   0.83013   0.14514   0.00000  Uiso   1.00
C440   C     0.94189   0.77397   0.49843   0.00000  Uiso   1.00
C441   C     0.94431   0.82286   0.08533   0.00000  Uiso   1.00
C442   C     0.69077   0.86440   0.44913   0.00000  Uiso   1.00
C443   C     0.71569   0.87763   0.00479   0.00000  Uiso   1.00
C444   C     0.80166   0.83430   0.49346   0.00000  Uiso   1.00
C445   C     0.77103   0.86373   0.02680   0.00000  Uiso   1.00
C446   C     0.87817   0.91562   0.32788   0.00000  Uiso   1.00
C447   C     0.86543   0.93793   0.38284   0.00000  Uiso   1.00
C448   C     0.91382   0.97825   0.41193   0.00000  Uiso   1.00
C449   C     0.77303   0.81589   0.43915   0.00000  Uiso   1.00
C450   C     0.85944   0.82201   0.01212   0.00000  Uiso   1.00
C451   C     0.88565   0.78824   0.47871   0.00000  Uiso   1.00
C452   C     0.85447   0.76735   0.42728   0.00000  Uiso   1.00
C453   C     0.79808   0.77903   0.40890   0.00000  Uiso   1.00
C454   C     0.89194   0.84209   0.06338   0.00000  Uiso   1.00
C455   C     0.97055   0.78996   0.05259   0.00000  Uiso   1.00
H456   H     0.67842   0.77515   0.06948   0.00000  Uiso   1.00
H457   H     0.77436   0.75883   0.37046   0.00000  Uiso   1.00
H458   H     0.73224   0.67017   0.24597   0.00000  Uiso   1.00
H459   H     0.87099   0.94508   0.29591   0.00000  Uiso   1.00
H460   H     0.92369   0.90679   0.33620   0.00000  Uiso   1.00
H461   H     0.82360   0.95615   0.37424   0.00000  Uiso   1.00
H462   H     0.86144   0.90610   0.41149   0.00000  Uiso   1.00
H463   H     0.92295   0.67455   0.38249   0.00000  Uiso   1.00
H464   H     0.95435   0.95969   0.42695   0.00000  Uiso   1.00
H465   H     0.90079   0.99712   0.44877   0.00000  Uiso   1.00
H466   H     0.93479   0.99664   0.25432   0.00000  Uiso   1.00
H467   H     0.82209   0.79644   0.20352   0.00000  Uiso   1.00
H468   H     0.87331   0.74180   0.40105   0.00000  Uiso   1.00
H469   H     0.96234   0.74844   0.47321   0.00000  Uiso   1.00
H470   H     0.87618   0.87067   0.08890   0.00000  Uiso   1.00
H471   H     0.98228   0.87760   0.43189   0.00000  Uiso   1.00
H472   H     0.78774   0.87553   0.07025   0.00000  Uiso   1.00
H473   H     0.69261   0.89983   0.03066   0.00000  Uiso   1.00
N474   N     0.81160   0.81890   0.23542   0.00000  Uiso   1.00
N475   N     0.85507   0.84777   0.26457   0.00000  Uiso   1.00
O476   O     0.96435   0.91296   0.25357   0.00000  Uiso   1.00
O477   O     0.72408   0.90371   0.24423   0.00000  Uiso   1.00
O478   O     0.98157   0.84024   0.33380   0.00000  Uiso   1.00
O479   O     0.74130   0.83099   0.32446   0.00000  Uiso   1.00
O480   O     0.94258   0.76296   0.25576   0.00000  Uiso   1.00
O481   O     0.70231   0.75371   0.24642   0.00000  Uiso   1.00
O482   O     0.92537   0.83567   0.17554   0.00000  Uiso   1.00
O483   O     0.68510   0.82642   0.16620   0.00000  Uiso   1.00
O484   O     0.84066   0.87083   0.31001   0.00000  Uiso   1.00
Zn485  Zn    0.93786   0.83951   0.25623   0.00000  Uiso   1.00
Zn486  Zn    0.72881   0.82716   0.24376   0.00000  Uiso   1.00
C487   C     0.01492   0.26488   0.74882   0.00000  Uiso   1.00
C488   C     0.05387   0.16918   0.91553   0.00000  Uiso   1.00
C489   C     0.02280   0.31954   0.74865   0.00000  Uiso   1.00
C490   C     0.03541   0.16800   0.85494   0.00000  Uiso   1.00
C491   C     0.31088   0.01388   0.75189   0.00000  Uiso   1.00
C492   C     0.31853   0.06849   0.75144   0.00000  Uiso   1.00
C493   C     0.29763   0.16347   0.64514   0.00000  Uiso   1.00
C494   C     0.27522   0.10731   0.99843   0.00000  Uiso   1.00
C495   C     0.27764   0.15620   0.58533   0.00000  Uiso   1.00
C496   C     0.02410   0.19774   0.94913   0.00000  Uiso   1.00
C497   C     0.04902   0.21096   0.50479   0.00000  Uiso   1.00
C498   C     0.13499   0.16763   0.99346   0.00000  Uiso   1.00
C499   C     0.10436   0.19706   0.52680   0.00000  Uiso   1.00
C500   C     0.21151   0.24896   0.82788   0.00000  Uiso   1.00
C501   C     0.19877   0.27126   0.88284   0.00000  Uiso   1.00
C502   C     0.24715   0.31159   0.91193   0.00000  Uiso   1.00
C503   C     0.10636   0.14922   0.93915   0.00000  Uiso   1.00
C504   C     0.19278   0.15535   0.51212   0.00000  Uiso   1.00
C505   C     0.21899   0.12157   0.97871   0.00000  Uiso   1.00
C506   C     0.18780   0.10069   0.92728   0.00000  Uiso   1.00
C507   C     0.13141   0.11236   0.90890   0.00000  Uiso   1.00
C508   C     0.22527   0.17542   0.56338   0.00000  Uiso   1.00
C509   C     0.30388   0.12329   0.55259   0.00000  Uiso   1.00
H510   H     0.01175   0.10848   0.56948   0.00000  Uiso   1.00
H511   H     0.10770   0.09216   0.87046   0.00000  Uiso   1.00
H512   H     0.06557   0.00350   0.74597   0.00000  Uiso   1.00
H513   H     0.20433   0.27841   0.79591   0.00000  Uiso   1.00
H514   H     0.25703   0.24013   0.83620   0.00000  Uiso   1.00
H515   H     0.15694   0.28949   0.87424   0.00000  Uiso   1.00
H516   H     0.19477   0.23943   0.91149   0.00000  Uiso   1.00
H517   H     0.25629   0.00788   0.88249   0.00000  Uiso   1.00
H518   H     0.28768   0.29302   0.92695   0.00000  Uiso   1.00
H519   H     0.23412   0.33045   0.94877   0.00000  Uiso   1.00
H520   H     0.26813   0.32998   0.75432   0.00000  Uiso   1.00
H521   H     0.15542   0.12978   0.70352   0.00000  Uiso   1.00
H522   H     0.20664   0.07513   0.90105   0.00000  Uiso   1.00
H523   H     0.29567   0.08177   0.97321   0.00000  Uiso   1.00
H524   H     0.20951   0.20400   0.58890   0.00000  Uiso   1.00
H525   H     0.31561   0.21093   0.93189   0.00000  Uiso   1.00
H526   H     0.12107   0.20886   0.57025   0.00000  Uiso   1.00
H527   H     0.02594   0.23316   0.53066   0.00000  Uiso   1.00
N528   N     0.14493   0.15223   0.73542   0.00000  Uiso   1.00
N529   N     0.18840   0.18110   0.76457   0.00000  Uiso   1.00
O530   O     0.29769   0.24629   0.75357   0.00000  Uiso   1.00
O531   O     0.05742   0.23704   0.74423   0.00000  Uiso   1.00
O532   O     0.31490   0.17358   0.83380   0.00000  Uiso   1.00
O533   O     0.07463   0.16433   0.82446   0.00000  Uiso   1.00
O534   O     0.27592   0.09629   0.75576   0.00000  Uiso   1.00
O535   O     0.03565   0.08704   0.74642   0.00000  Uiso   1.00
O536   O     0.25870   0.16901   0.67554   0.00000  Uiso   1.00
O537   O     0.01843   0.15976   0.66620   0.00000  Uiso   1.00
O538   O     0.17400   0.20416   0.81001   0.00000  Uiso   1.00
Zn539  Zn    0.27119   0.17284   0.75623   0.00000  Uiso   1.00
Zn540  Zn    0.06214   0.16049   0.74376   0.00000  Uiso   1.00
C541   C     0.34826   0.26488   0.74882   0.00000  Uiso   1.00
C542   C     0.38720   0.16918   0.91553   0.00000  Uiso   1.00
C543   C     0.35613   0.31954   0.74865   0.00000  Uiso   1.00
C544   C     0.36874   0.16800   0.85494   0.00000  Uiso   1.00
C545   C     0.64421   0.01388   0.75189   0.00000  Uiso   1.00
C546   C     0.65186   0.06849   0.75144   0.00000  Uiso   1.00
C547   C     0.63096   0.16347   0.64514   0.00000  Uiso   1.00
C548   C     0.60855   0.10731   0.99843   0.00000  Uiso   1.00
C549   C     0.61098   0.15620   0.58533   0.00000  Uiso   1.00
C550   C     0.35744   0.19774   0.94913   0.00000  Uiso   1.00
C551   C     0.38236   0.21096   0.50479   0.00000  Uiso   1.00
C552   C     0.46832   0.16763   0.99346   0.00000  Uiso   1.00
C553   C     0.43769   0.19706   0.52680   0.00000  Uiso   1.00
C554   C     0.54484   0.24896   0.82788   0.00000  Uiso   1.00
C555   C     0.53210   0.27126   0.88284   0.00000  Uiso   1.00
C556   C     0.58048   0.31159   0.91193   0.00000  Uiso   1.00
C557   C     0.43969   0.14922   0.93915   0.00000  Uiso   1.00
C558   C     0.52611   0.15535   0.51212   0.00000  Uiso   1.00
C559   C     0.55232   0.12157   0.97871   0.00000  Uiso   1.00
C560   C     0.52113   0.10069   0.92728   0.00000  Uiso   1.00
C561   C     0.46475   0.11236   0.90890   0.00000  Uiso   1.00
C562   C     0.55860   0.17542   0.56338   0.00000  Uiso   1.00
C563   C     0.63721   0.12329   0.55259   0.00000  Uiso   1.00
H564   H     0.34508   0.10848   0.56948   0.00000  Uiso   1.00
H565   H     0.44103   0.09216   0.87046   0.00000  Uiso   1.00
H566   H     0.39890   0.00350   0.74597   0.00000  Uiso   1.00
H567   H     0.53766   0.27841   0.79591   0.00000  Uiso   1.00
H568   H     0.59036   0.24013   0.83620   0.00000  Uiso   1.00
H569   H     0.49027   0.28949   0.87424   0.00000  Uiso   1.00
H570   H     0.52811   0.23943   0.91149   0.00000  Uiso   1.00
H571   H     0.58962   0.00788   0.88249   0.00000  Uiso   1.00
H572   H     0.62102   0.29302   0.92695   0.00000  Uiso   1.00
H573   H     0.56746   0.33045   0.94877   0.00000  Uiso   1.00
H574   H     0.60146   0.32998   0.75432   0.00000  Uiso   1.00
H575   H     0.48876   0.12978   0.70352   0.00000  Uiso   1.00
H576   H     0.53997   0.07513   0.90105   0.00000  Uiso   1.00
H577   H     0.62901   0.08177   0.97321   0.00000  Uiso   1.00
H578   H     0.54285   0.20400   0.58890   0.00000  Uiso   1.00
H579   H     0.64895   0.21093   0.93189   0.00000  Uiso   1.00
H580   H     0.45440   0.20886   0.57025   0.00000  Uiso   1.00
H581   H     0.35928   0.23316   0.53066   0.00000  Uiso   1.00
N582   N     0.47827   0.15223   0.73542   0.00000  Uiso   1.00
N583   N     0.52173   0.18110   0.76457   0.00000  Uiso   1.00
O584   O     0.63102   0.24629   0.75357   0.00000  Uiso   1.00
O585   O     0.39075   0.23704   0.74423   0.00000  Uiso   1.00
O586   O     0.64823   0.17358   0.83380   0.00000  Uiso   1.00
O587   O     0.40796   0.16433   0.82446   0.00000  Uiso   1.00
O588   O     0.60925   0.09629   0.75576   0.00000  Uiso   1.00
O589   O     0.36898   0.08704   0.74642   0.00000  Uiso   1.00
O590   O     0.59204   0.16901   0.67554   0.00000  Uiso   1.00
O591   O     0.35177   0.15976   0.66620   0.00000  Uiso   1.00
O592   O     0.50733   0.20416   0.81001   0.00000  Uiso   1.00
Zn593  Zn    0.60453   0.17284   0.75623   0.00000  Uiso   1.00
Zn594  Zn    0.39547   0.16049   0.74376   0.00000  Uiso   1.00
C595   C     0.68159   0.26488   0.74882   0.00000  Uiso   1.00
C596   C     0.72053   0.16918   0.91553   0.00000  Uiso   1.00
C597   C     0.68946   0.31954   0.74865   0.00000  Uiso   1.00
C598   C     0.70207   0.16800   0.85494   0.00000  Uiso   1.00
C599   C     0.97755   0.01388   0.75189   0.00000  Uiso   1.00
C600   C     0.98519   0.06849   0.75144   0.00000  Uiso   1.00
C601   C     0.96430   0.16347   0.64514   0.00000  Uiso   1.00
C602   C     0.94189   0.10731   0.99843   0.00000  Uiso   1.00
C603   C     0.94431   0.15620   0.58533   0.00000  Uiso   1.00
C604   C     0.69077   0.19774   0.94913   0.00000  Uiso   1.00
C605   C     0.71569   0.21096   0.50479   0.00000  Uiso   1.00
C606   C     0.80166   0.16763   0.99346   0.00000  Uiso   1.00
C607   C     0.77103   0.19706   0.52680   0.00000  Uiso   1.00
C608   C     0.87817   0.24896   0.82788   0.00000  Uiso   1.00
C609   C     0.86543   0.27126   0.88284   0.00000  Uiso   1.00
C610   C     0.91382   0.31159   0.91193   0.00000  Uiso   1.00
C611   C     0.77303   0.14922   0.93915   0.00000  Uiso   1.00
C612   C     0.85944   0.15535   0.51212   0.00000  Uiso   1.00
C613   C     0.88565   0.12157   0.97871   0.00000  Uiso   1.00
C614   C     0.85447   0.10069   0.92728   0.00000  Uiso   1.00
C615   C     0.79808   0.11236   0.90890   0.00000  Uiso   1.00
C616   C     0.89194   0.17542   0.56338   0.00000  Uiso   1.00
C617   C     0.97055   0.12329   0.55259   0.00000  Uiso   1.00
H618   H     0.67842   0.10848   0.56948   0.00000  Uiso   1.00
H619   H     0.77436   0.09216   0.87046   0.00000  Uiso   1.00
H620   H     0.73224   0.00350   0.74597   0.00000  Uiso   1.00
H621   H     0.87099   0.27841   0.79591   0.00000  Uiso   1.00
H622   H     0.92369   0.24013   0.83620   0.00000  Uiso   1.00
H623   H     0.82360   0.28949   0.87424   0.00000  Uiso   1.00
H624   H     0.86144   0.23943   0.91149   0.00000  Uiso   1.00
H625   H     0.92295   0.00788   0.88249   0.00000  Uiso   1.00
H626   H     0.95435   0.29302   0.92695   0.00000  Uiso   1.00
H627   H     0.90079   0.33045   0.94877   0.00000  Uiso   1.00
H628   H     0.93479   0.32998   0.75432   0.00000  Uiso   1.00
H629   H     0.82209   0.12978   0.70352   0.00000  Uiso   1.00
H630   H     0.87331   0.07513   0.90105   0.00000  Uiso   1.00
H631   H     0.96234   0.08177   0.97321   0.00000  Uiso   1.00
H632   H     0.87618   0.20400   0.58890   0.00000  Uiso   1.00
H633   H     0.98228   0.21093   0.93189   0.00000  Uiso   1.00
H634   H     0.78774   0.20886   0.57025   0.00000  Uiso   1.00
H635   H     0.69261   0.23316   0.53066   0.00000  Uiso   1.00
N636   N     0.81160   0.15223   0.73542   0.00000  Uiso   1.00
N637   N     0.85507   0.18110   0.76457   0.00000  Uiso   1.00
O638   O     0.96435   0.24629   0.75357   0.00000  Uiso   1.00
O639   O     0.72408   0.23704   0.74423   0.00000  Uiso   1.00
O640   O     0.98157   0.17358   0.83380   0.00000  Uiso   1.00
O641   O     0.74130   0.16433   0.82446   0.00000  Uiso   1.00
O642   O     0.94258   0.09629   0.75576   0.00000  Uiso   1.00
O643   O     0.70231   0.08704   0.74642   0.00000  Uiso   1.00
O644   O     0.92537   0.16901   0.67554   0.00000  Uiso   1.00
O645   O     0.68510   0.15976   0.66620   0.00000  Uiso   1.00
O646   O     0.84066   0.20416   0.81001   0.00000  Uiso   1.00
Zn647  Zn    0.93786   0.17284   0.75623   0.00000  Uiso   1.00
Zn648  Zn    0.72881   0.16049   0.74376   0.00000  Uiso   1.00
C649   C     0.01492   0.59821   0.74882   0.00000  Uiso   1.00
C650   C     0.05387   0.50251   0.91553   0.00000  Uiso   1.00
C651   C     0.02280   0.65287   0.74865   0.00000  Uiso   1.00
C652   C     0.03541   0.50133   0.85494   0.00000  Uiso   1.00
C653   C     0.31088   0.34721   0.75189   0.00000  Uiso   1.00
C654   C     0.31853   0.40182   0.75144   0.00000  Uiso   1.00
C655   C     0.29763   0.49680   0.64514   0.00000  Uiso   1.00
C656   C     0.27522   0.44064   0.99843   0.00000  Uiso   1.00
C657   C     0.27764   0.48953   0.58533   0.00000  Uiso   1.00
C658   C     0.02410   0.53107   0.94913   0.00000  Uiso   1.00
C659   C     0.04902   0.54429   0.50479   0.00000  Uiso   1.00
C660   C     0.13499   0.50096   0.99346   0.00000  Uiso   1.00
C661   C     0.10436   0.53039   0.52680   0.00000  Uiso   1.00
C662   C     0.21151   0.58229   0.82788   0.00000  Uiso   1.00
C663   C     0.19877   0.60460   0.88284   0.00000  Uiso   1.00
C664   C     0.24715   0.64492   0.91193   0.00000  Uiso   1.00
C665   C     0.10636   0.48256   0.93915   0.00000  Uiso   1.00
C666   C     0.19278   0.48868   0.51212   0.00000  Uiso   1.00
C667   C     0.21899   0.45491   0.97871   0.00000  Uiso   1.00
C668   C     0.18780   0.43402   0.92728   0.00000  Uiso   1.00
C669   C     0.13141   0.44569   0.90890   0.00000  Uiso   1.00
C670   C     0.22527   0.50875   0.56338   0.00000  Uiso   1.00
C671   C     0.30388   0.45662   0.55259   0.00000  Uiso   1.00
H672   H     0.01175   0.44182   0.56948   0.00000  Uiso   1.00
H673   H     0.10770   0.42549   0.87046   0.00000  Uiso   1.00
H674   H     0.06557   0.33683   0.74597   0.00000  Uiso   1.00
H675   H     0.20433   0.61174   0.79591   0.00000  Uiso   1.00
H676   H     0.25703   0.57346   0.83620   0.00000  Uiso   1.00
H677   H     0.15694   0.62282   0.87424   0.00000  Uiso   1.00
H678   H     0.19477   0.57276   0.91149   0.00000  Uiso   1.00
H679   H     0.25629   0.34122   0.88249   0.00000  Uiso   1.00
H680   H     0.28768   0.62635   0.92695   0.00000  Uiso   1.00
H681   H     0.23412   0.66379   0.94877   0.00000  Uiso   1.00
H682   H     0.26813   0.66331   0.75432   0.00000  Uiso   1.00
H683   H     0.15542   0.46311   0.70352   0.00000  Uiso   1.00
H684   H     0.20664   0.40846   0.90105   0.00000  Uiso   1.00
H685   H     0.29567   0.41511   0.97321   0.00000  Uiso   1.00
H686   H     0.20951   0.53734   0.58890   0.00000  Uiso   1.00
H687   H     0.31561   0.54427   0.93189   0.00000  Uiso   1.00
H688   H     0.12107   0.54220   0.57025   0.00000  Uiso   1.00
H689   H     0.02594   0.56649   0.53066   0.00000  Uiso   1.00
N690   N     0.14493   0.48556   0.73542   0.00000  Uiso   1.00
N691   N     0.18840   0.51444   0.76457   0.00000  Uiso   1.00
O692   O     0.29769   0.57963   0.75357   0.00000  Uiso   1.00
O693   O     0.05742   0.57038   0.74423   0.00000  Uiso   1.00
O694   O     0.31490   0.50691   0.83380   0.00000  Uiso   1.00
O695   O     0.07463   0.49766   0.82446   0.00000  Uiso   1.00
O696   O     0.27592   0.42962   0.75576   0.00000  Uiso   1.00
O697   O     0.03565   0.42037   0.74642   0.00000  Uiso   1.00
O698   O     0.25870   0.50234   0.67554   0.00000  Uiso   1.00
O699   O     0.01843   0.49309   0.66620   0.00000  Uiso   1.00
O700   O     0.17400   0.53750   0.81001   0.00000  Uiso   1.00
Zn701  Zn    0.27119   0.50618   0.75623   0.00000  Uiso   1.00
Zn702  Zn    0.06214   0.49382   0.74376   0.00000  Uiso   1.00
C703   C     0.34826   0.59821   0.74882   0.00000  Uiso   1.00
C704   C     0.38720   0.50251   0.91553   0.00000  Uiso   1.00
C705   C     0.35613   0.65287   0.74865   0.00000  Uiso   1.00
C706   C     0.36874   0.50133   0.85494   0.00000  Uiso   1.00
C707   C     0.64421   0.34721   0.75189   0.00000  Uiso   1.00
C708   C     0.65186   0.40182   0.75144   0.00000  Uiso   1.00
C709   C     0.63096   0.49680   0.64514   0.00000  Uiso   1.00
C710   C     0.60855   0.44064   0.99843   0.00000  Uiso   1.00
C711   C     0.61098   0.48953   0.58533   0.00000  Uiso   1.00
C712   C     0.35744   0.53107   0.94913   0.00000  Uiso   1.00
C713   C     0.38236   0.54429   0.50479   0.00000  Uiso   1.00
C714   C     0.46832   0.50096   0.99346   0.00000  Uiso   1.00
C715   C     0.43769   0.53039   0.52680   0.00000  Uiso   1.00
C716   C     0.54484   0.58229   0.82788   0.00000  Uiso   1.00
C717   C     0.53210   0.60460   0.88284   0.00000  Uiso   1.00
C718   C     0.58048   0.64492   0.91193   0.00000  Uiso   1.00
C719   C     0.43969   0.48256   0.93915   0.00000  Uiso   1.00
C720   C     0.52611   0.48868   0.51212   0.00000  Uiso   1.00
C721   C     0.55232   0.45491   0.97871   0.00000  Uiso   1.00
C722   C     0.52113   0.43402   0.92728   0.00000  Uiso   1.00
C723   C     0.46475   0.44569   0.90890   0.00000  Uiso   1.00
C724   C     0.55860   0.50875   0.56338   0.00000  Uiso   1.00
C725   C     0.63721   0.45662   0.55259   0.00000  Uiso   1.00
H726   H     0.34508   0.44182   0.56948   0.00000  Uiso   1.00
H727   H     0.44103   0.42549   0.87046   0.00000  Uiso   1.00
H728   H     0.39890   0.33683   0.74597   0.00000  Uiso   1.00
H729   H     0.53766   0.61174   0.79591   0.00000  Uiso   1.00
H730   H     0.59036   0.57346   0.83620   0.00000  Uiso   1.00
H731   H     0.49027   0.62282   0.87424   0.00000  Uiso   1.00
H732   H     0.52811   0.57276   0.91149   0.00000  Uiso   1.00
H733   H     0.58962   0.34122   0.88249   0.00000  Uiso   1.00
H734   H     0.62102   0.62635   0.92695   0.00000  Uiso   1.00
H735   H     0.56746   0.66379   0.94877   0.00000  Uiso   1.00
H736   H     0.60146   0.66331   0.75432   0.00000  Uiso   1.00
H737   H     0.48876   0.46311   0.70352   0.00000  Uiso   1.00
H738   H     0.53997   0.40846   0.90105   0.00000  Uiso   1.00
H739   H     0.62901   0.41511   0.97321   0.00000  Uiso   1.00
H740   H     0.54285   0.53734   0.58890   0.00000  Uiso   1.00
H741   H     0.64895   0.54427   0.93189   0.00000  Uiso   1.00
H742   H     0.45440   0.54220   0.57025   0.00000  Uiso   1.00
H743   H     0.35928   0.56649   0.53066   0.00000  Uiso   1.00
N744   N     0.47827   0.48556   0.73542   0.00000  Uiso   1.00
N745   N     0.52173   0.51444   0.76457   0.00000  Uiso   1.00
O746   O     0.63102   0.57963   0.75357   0.00000  Uiso   1.00
O747   O     0.39075   0.57038   0.74423   0.00000  Uiso   1.00
O748   O     0.64823   0.50691   0.83380   0.00000  Uiso   1.00
O749   O     0.40796   0.49766   0.82446   0.00000  Uiso   1.00
O750   O     0.60925   0.42962   0.75576   0.00000  Uiso   1.00
O751   O     0.36898   0.42037   0.74642   0.00000  Uiso   1.00
O752   O     0.59204   0.50234   0.67554   0.00000  Uiso   1.00
O753   O     0.35177   0.49309   0.66620   0.00000  Uiso   1.00
O754   O     0.50733   0.53750   0.81001   0.00000  Uiso   1.00
Zn755  Zn    0.60453   0.50618   0.75623   0.00000  Uiso   1.00
Zn756  Zn    0.39547   0.49382   0.74376   0.00000  Uiso   1.00
C757   C     0.68159   0.59821   0.74882   0.00000  Uiso   1.00
C758   C     0.72053   0.50251   0.91553   0.00000  Uiso   1.00
C759   C     0.68946   0.65287   0.74865   0.00000  Uiso   1.00
C760   C     0.70207   0.50133   0.85494   0.00000  Uiso   1.00
C761   C     0.97755   0.34721   0.75189   0.00000  Uiso   1.00
C762   C     0.98519   0.40182   0.75144   0.00000  Uiso   1.00
C763   C     0.96430   0.49680   0.64514   0.00000  Uiso   1.00
C764   C     0.94189   0.44064   0.99843   0.00000  Uiso   1.00
C765   C     0.94431   0.48953   0.58533   0.00000  Uiso   1.00
C766   C     0.69077   0.53107   0.94913   0.00000  Uiso   1.00
C767   C     0.71569   0.54429   0.50479   0.00000  Uiso   1.00
C768   C     0.80166   0.50096   0.99346   0.00000  Uiso   1.00
C769   C     0.77103   0.53039   0.52680   0.00000  Uiso   1.00
C770   C     0.87817   0.58229   0.82788   0.00000  Uiso   1.00
C771   C     0.86543   0.60460   0.88284   0.00000  Uiso   1.00
C772   C     0.91382   0.64492   0.91193   0.00000  Uiso   1.00
C773   C     0.77303   0.48256   0.93915   0.00000  Uiso   1.00
C774   C     0.85944   0.48868   0.51212   0.00000  Uiso   1.00
C775   C     0.88565   0.45491   0.97871   0.00000  Uiso   1.00
C776   C     0.85447   0.43402   0.92728   0.00000  Uiso   1.00
C777   C     0.79808   0.44569   0.90890   0.00000  Uiso   1.00
C778   C     0.89194   0.50875   0.56338   0.00000  Uiso   1.00
C779   C     0.97055   0.45662   0.55259   0.00000  Uiso   1.00
H780   H     0.67842   0.44182   0.56948   0.00000  Uiso   1.00
H781   H     0.77436   0.42549   0.87046   0.00000  Uiso   1.00
H782   H     0.73224   0.33683   0.74597   0.00000  Uiso   1.00
H783   H     0.87099   0.61174   0.79591   0.00000  Uiso   1.00
H784   H     0.92369   0.57346   0.83620   0.00000  Uiso   1.00
H785   H     0.82360   0.62282   0.87424   0.00000  Uiso   1.00
H786   H     0.86144   0.57276   0.91149   0.00000  Uiso   1.00
H787   H     0.92295   0.34122   0.88249   0.00000  Uiso   1.00
H788   H     0.95435   0.62635   0.92695   0.00000  Uiso   1.00
H789   H     0.90079   0.66379   0.94877   0.00000  Uiso   1.00
H790   H     0.93479   0.66331   0.75432   0.00000  Uiso   1.00
H791   H     0.82209   0.46311   0.70352   0.00000  Uiso   1.00
H792   H     0.87331   0.40846   0.90105   0.00000  Uiso   1.00
H793   H     0.96234   0.41511   0.97321   0.00000  Uiso   1.00
H794   H     0.87618   0.53734   0.58890   0.00000  Uiso   1.00
H795   H     0.98228   0.54427   0.93189   0.00000  Uiso   1.00
H796   H     0.78774   0.54220   0.57025   0.00000  Uiso   1.00
H797   H     0.69261   0.56649   0.53066   0.00000  Uiso   1.00
N798   N     0.81160   0.48556   0.73542   0.00000  Uiso   1.00
N799   N     0.85507   0.51444   0.76457   0.00000  Uiso   1.00
O800   O     0.96435   0.57963   0.75357   0.00000  Uiso   1.00
O801   O     0.72408   0.57038   0.74423   0.00000  Uiso   1.00
O802   O     0.98157   0.50691   0.83380   0.00000  Uiso   1.00
O803   O     0.74130   0.49766   0.82446   0.00000  Uiso   1.00
O804   O     0.94258   0.42962   0.75576   0.00000  Uiso   1.00
O805   O     0.70231   0.42037   0.74642   0.00000  Uiso   1.00
O806   O     0.92537   0.50234   0.67554   0.00000  Uiso   1.00
O807   O     0.68510   0.49309   0.66620   0.00000  Uiso   1.00
O808   O     0.84066   0.53750   0.81001   0.00000  Uiso   1.00
Zn809  Zn    0.93786   0.50618   0.75623   0.00000  Uiso   1.00
Zn810  Zn    0.72881   0.49382   0.74376   0.00000  Uiso   1.00
C811   C     0.01492   0.93154   0.74882   0.00000  Uiso   1.00
C812   C     0.05387   0.83585   0.91553   0.00000  Uiso   1.00
C813   C     0.02280   0.98620   0.74865   0.00000  Uiso   1.00
C814   C     0.03541   0.83466   0.85494   0.00000  Uiso   1.00
C815   C     0.31088   0.68055   0.75189   0.00000  Uiso   1.00
C816   C     0.31853   0.73515   0.75144   0.00000  Uiso   1.00
C817   C     0.29763   0.83013   0.64514   0.00000  Uiso   1.00
C818   C     0.27522   0.77397   0.99843   0.00000  Uiso   1.00
C819   C     0.27764   0.82286   0.58533   0.00000  Uiso   1.00
C820   C     0.02410   0.86440   0.94913   0.00000  Uiso   1.00
C821   C     0.04902   0.87763   0.50479   0.00000  Uiso   1.00
C822   C     0.13499   0.83430   0.99346   0.00000  Uiso   1.00
C823   C     0.10436   0.86373   0.52680   0.00000  Uiso   1.00
C824   C     0.21151   0.91562   0.82788   0.00000  Uiso   1.00
C825   C     0.19877   0.93793   0.88284   0.00000  Uiso   1.00
C826   C     0.24715   0.97825   0.91193   0.00000  Uiso   1.00
C827   C     0.10636   0.81589   0.93915   0.00000  Uiso   1.00
C828   C     0.19278   0.82201   0.51212   0.00000  Uiso   1.00
C829   C     0.21899   0.78824   0.97871   0.00000  Uiso   1.00
C830   C     0.18780   0.76735   0.92728   0.00000  Uiso   1.00
C831   C     0.13141   0.77903   0.90890   0.00000  Uiso   1.00
C832   C     0.22527   0.84209   0.56338   0.00000  Uiso   1.00
C833   C     0.30388   0.78996   0.55259   0.00000  Uiso   1.00
H834   H     0.01175   0.77515   0.56948   0.00000  Uiso   1.00
H835   H     0.10770   0.75883   0.87046   0.00000  Uiso   1.00
H836   H     0.06557   0.67017   0.74597   0.00000  Uiso   1.00
H837   H     0.20433   0.94508   0.79591   0.00000  Uiso   1.00
H838   H     0.25703   0.90679   0.83620   0.00000  Uiso   1.00
H839   H     0.15694   0.95615   0.87424   0.00000  Uiso   1.00
H840   H     0.19477   0.90610   0.91149   0.00000  Uiso   1.00
H841   H     0.25629   0.67455   0.88249   0.00000  Uiso   1.00
H842   H     0.28768   0.95969   0.92695   0.00000  Uiso   1.00
H843   H     0.23412   0.99712   0.94877   0.00000  Uiso   1.00
H844   H     0.26813   0.99664   0.75432   0.00000  Uiso   1.00
H845   H     0.15542   0.79644   0.70352   0.00000  Uiso   1.00
H846   H     0.20664   0.74180   0.90105   0.00000  Uiso   1.00
H847   H     0.29567   0.74844   0.97321   0.00000  Uiso   1.00
H848   H     0.20951   0.87067   0.58890   0.00000  Uiso   1.00
H849   H     0.31561   0.87760   0.93189   0.00000  Uiso   1.00
H850   H     0.12107   0.87553   0.57025   0.00000  Uiso   1.00
H851   H     0.02594   0.89983   0.53066   0.00000  Uiso   1.00
N852   N     0.14493   0.81890   0.73542   0.00000  Uiso   1.00
N853   N     0.18840   0.84777   0.76457   0.00000  Uiso   1.00
O854   O     0.29769   0.91296   0.75357   0.00000  Uiso   1.00
O855   O     0.05742   0.90371   0.74423   0.00000  Uiso   1.00
O856   O     0.31490   0.84024   0.83380   0.00000  Uiso   1.00
O857   O     0.07463   0.83099   0.82446   0.00000  Uiso   1.00
O858   O     0.27592   0.76296   0.75576   0.00000  Uiso   1.00
O859   O     0.03565   0.75371   0.74642   0.00000  Uiso   1.00
O860   O     0.25870   0.83567   0.67554   0.00000  Uiso   1.00
O861   O     0.01843   0.82642   0.66620   0.00000  Uiso   1.00
O862   O     0.17400   0.87083   0.81001   0.00000  Uiso   1.00
Zn863  Zn    0.27119   0.83951   0.75623   0.00000  Uiso   1.00
Zn864  Zn    0.06214   0.82716   0.74376   0.00000  Uiso   1.00
C865   C     0.34826   0.93154   0.74882   0.00000  Uiso   1.00
C866   C     0.38720   0.83585   0.91553   0.00000  Uiso   1.00
C867   C     0.35613   0.98620   0.74865   0.00000  Uiso   1.00
C868   C     0.36874   0.83466   0.85494   0.00000  Uiso   1.00
C869   C     0.64421   0.68055   0.75189   0.00000  Uiso   1.00
C870   C     0.65186   0.73515   0.75144   0.00000  Uiso   1.00
C871   C     0.63096   0.83013   0.64514   0.00000  Uiso   1.00
C872   C     0.60855   0.77397   0.99843   0.00000  Uiso   1.00
C873   C     0.61098   0.82286   0.58533   0.00000  Uiso   1.00
C874   C     0.35744   0.86440   0.94913   0.00000  Uiso   1.00
C875   C     0.38236   0.87763   0.50479   0.00000  Uiso   1.00
C876   C     0.46832   0.83430   0.99346   0.00000  Uiso   1.00
C877   C     0.43769   0.86373   0.52680   0.00000  Uiso   1.00
C878   C     0.54484   0.91562   0.82788   0.00000  Uiso   1.00
C879   C     0.53210   0.93793   0.88284   0.00000  Uiso   1.00
C880   C     0.58048   0.97825   0.91193   0.00000  Uiso   1.00
C881   C     0.43969   0.81589   0.93915   0.00000  Uiso   1.00
C882   C     0.52611   0.82201   0.51212   0.00000  Uiso   1.00
C883   C     0.55232   0.78824   0.97871   0.00000  Uiso   1.00
C884   C     0.52113   0.76735   0.92728   0.00000  Uiso   1.00
C885   C     0.46475   0.77903   0.90890   0.00000  Uiso   1.00
C886   C     0.55860   0.84209   0.56338   0.00000  Uiso   1.00
C887   C     0.63721   0.78996   0.55259   0.00000  Uiso   1.00
H888   H     0.34508   0.77515   0.56948   0.00000  Uiso   1.00
H889   H     0.44103   0.75883   0.87046   0.00000  Uiso   1.00
H890   H     0.39890   0.67017   0.74597   0.00000  Uiso   1.00
H891   H     0.53766   0.94508   0.79591   0.00000  Uiso   1.00
H892   H     0.59036   0.90679   0.83620   0.00000  Uiso   1.00
H893   H     0.49027   0.95615   0.87424   0.00000  Uiso   1.00
H894   H     0.52811   0.90610   0.91149   0.00000  Uiso   1.00
H895   H     0.58962   0.67455   0.88249   0.00000  Uiso   1.00
H896   H     0.62102   0.95969   0.92695   0.00000  Uiso   1.00
H897   H     0.56746   0.99712   0.94877   0.00000  Uiso   1.00
H898   H     0.60146   0.99664   0.75432   0.00000  Uiso   1.00
H899   H     0.48876   0.79644   0.70352   0.00000  Uiso   1.00
H900   H     0.53997   0.74180   0.90105   0.00000  Uiso   1.00
H901   H     0.62901   0.74844   0.97321   0.00000  Uiso   1.00
H902   H     0.54285   0.87067   0.58890   0.00000  Uiso   1.00
H903   H     0.64895   0.87760   0.93189   0.00000  Uiso   1.00
H904   H     0.45440   0.87553   0.57025   0.00000  Uiso   1.00
H905   H     0.35928   0.89983   0.53066   0.00000  Uiso   1.00
N906   N     0.47827   0.81890   0.73542   0.00000  Uiso   1.00
N907   N     0.52173   0.84777   0.76457   0.00000  Uiso   1.00
O908   O     0.63102   0.91296   0.75357   0.00000  Uiso   1.00
O909   O     0.39075   0.90371   0.74423   0.00000  Uiso   1.00
O910   O     0.64823   0.84024   0.83380   0.00000  Uiso   1.00
O911   O     0.40796   0.83099   0.82446   0.00000  Uiso   1.00
O912   O     0.60925   0.76296   0.75576   0.00000  Uiso   1.00
O913   O     0.36898   0.75371   0.74642   0.00000  Uiso   1.00
O914   O     0.59204   0.83567   0.67554   0.00000  Uiso   1.00
O915   O     0.35177   0.82642   0.66620   0.00000  Uiso   1.00
O916   O     0.50733   0.87083   0.81001   0.00000  Uiso   1.00
Zn917  Zn    0.60453   0.83951   0.75623   0.00000  Uiso   1.00
Zn918  Zn    0.39547   0.82716   0.74376   0.00000  Uiso   1.00
C919   C     0.68159   0.93154   0.74882   0.00000  Uiso   1.00
C920   C     0.72053   0.83585   0.91553   0.00000  Uiso   1.00
C921   C     0.68946   0.98620   0.74865   0.00000  Uiso   1.00
C922   C     0.70207   0.83466   0.85494   0.00000  Uiso   1.00
C923   C     0.97755   0.68055   0.75189   0.00000  Uiso   1.00
C924   C     0.98519   0.73515   0.75144   0.00000  Uiso   1.00
C925   C     0.96430   0.83013   0.64514   0.00000  Uiso   1.00
C926   C     0.94189   0.77397   0.99843   0.00000  Uiso   1.00
C927   C     0.94431   0.82286   0.58533   0.00000  Uiso   1.00
C928   C     0.69077   0.86440   0.94913   0.00000  Uiso   1.00
C929   C     0.71569   0.87763   0.50479   0.00000  Uiso   1.00
C930   C     0.80166   0.83430   0.99346   0.00000  Uiso   1.00
C931   C     0.77103   0.86373   0.52680   0.00000  Uiso   1.00
C932   C     0.87817   0.91562   0.82788   0.00000  Uiso   1.00
C933   C     0.86543   0.93793   0.88284   0.00000  Uiso   1.00
C934   C     0.91382   0.97825   0.91193   0.00000  Uiso   1.00
C935   C     0.77303   0.81589   0.93915   0.00000  Uiso   1.00
C936   C     0.85944   0.82201   0.51212   0.00000  Uiso   1.00
C937   C     0.88565   0.78824   0.97871   0.00000  Uiso   1.00
C938   C     0.85447   0.76735   0.92728   0.00000  Uiso   1.00
C939   C     0.79808   0.77903   0.90890   0.00000  Uiso   1.00
C940   C     0.89194   0.84209   0.56338   0.00000  Uiso   1.00
C941   C     0.97055   0.78996   0.55259   0.00000  Uiso   1.00
H942   H     0.67842   0.77515   0.56948   0.00000  Uiso   1.00
H943   H     0.77436   0.75883   0.87046   0.00000  Uiso   1.00
H944   H     0.73224   0.67017   0.74597   0.00000  Uiso   1.00
H945   H     0.87099   0.94508   0.79591   0.00000  Uiso   1.00
H946   H     0.92369   0.90679   0.83620   0.00000  Uiso   1.00
H947   H     0.82360   0.95615   0.87424   0.00000  Uiso   1.00
H948   H     0.86144   0.90610   0.91149   0.00000  Uiso   1.00
H949   H     0.92295   0.67455   0.88249   0.00000  Uiso   1.00
H950   H     0.95435   0.95969   0.92695   0.00000  Uiso   1.00
H951   H     0.90079   0.99712   0.94877   0.00000  Uiso   1.00
H952   H     0.93479   0.99664   0.75432   0.00000  Uiso   1.00
H953   H     0.82209   0.79644   0.70352   0.00000  Uiso   1.00
H954   H     0.87331   0.74180   0.90105   0.00000  Uiso   1.00
H955   H     0.96234   0.74844   0.97321   0.00000  Uiso   1.00
H956   H     0.87618   0.87067   0.58890   0.00000  Uiso   1.00
H957   H     0.98228   0.87760   0.93189   0.00000  Uiso   1.00
H958   H     0.78774   0.87553   0.57025   0.00000  Uiso   1.00
H959   H     0.69261   0.89983   0.53066   0.00000  Uiso   1.00
N960   N     0.81160   0.81890   0.73542   0.00000  Uiso   1.00
N961   N     0.85507   0.84777   0.76457   0.00000  Uiso   1.00
O962   O     0.96435   0.91296   0.75357   0.00000  Uiso   1.00
O963   O     0.72408   0.90371   0.74423   0.00000  Uiso   1.00
O964   O     0.98157   0.84024   0.83380   0.00000  Uiso   1.00
O965   O     0.74130   0.83099   0.82446   0.00000  Uiso   1.00
O966   O     0.94258   0.76296   0.75576   0.00000  Uiso   1.00
O967   O     0.70231   0.75371   0.74642   0.00000  Uiso   1.00
O968   O     0.92537   0.83567   0.67554   0.00000  Uiso   1.00
O969   O     0.68510   0.82642   0.66620   0.00000  Uiso   1.00
O970   O     0.84066   0.87083   0.81001   0.00000  Uiso   1.00
Zn971  Zn    0.93786   0.83951   0.75623   0.00000  Uiso   1.00
Zn972  Zn    0.72881   0.82716   0.74376   0.00000  Uiso   1.00
loop_
_geom_bond_atom_site_label_1
_geom_bond_atom_site_label_2
_geom_bond_distance
_geom_bond_site_symmetry_2
_ccdc_geom_bond_type
C1     O45     1.296   .     A
C1     C3      1.409   .     S
C1     O152    1.281   1_455 S
C2     C10     1.399   .     A
C2     C4      1.454   .     S
C2     C17     1.405   .     A
C3     C275    1.341   1_455 S
C3     H188    1.088   .     S
C4     O47     1.302   .     A
C4     O154    1.295   1_455 S
C5     C6      1.408   .     S
C5     C381    1.341   1_545 S
C5     H358    1.085   1_545 S
C6     O48     1.296   .     A
C6     O103    1.280   .     S
C7     C9      1.441   .     S
C7     O50     1.300   .     A
C7     O105    1.292   .     S
C8     C19     1.402   .     A
C8     H37     1.083   .     S
C8     C509    1.390   .     S
C9     C22     1.384   .     A
C9     C23     1.398   .     A
C10    C497    1.386   .     S
C10    H147    1.080   1_455 S
C11    H41     1.083   .     S
C11    C13     1.391   .     A
C11    C496    1.386   1_554 S
C12    C17     1.407   .     A
C12    C499    1.421   .     S
C12    C504    1.414   .     S
C13    H40     1.077   .     S
C13    C498    1.421   1_554 S
C14    H28     1.096   .     S
C14    H27     1.111   .     S
C14    O52     1.400   .     S
C14    C15     1.528   .     S
C15    H29     1.112   .     S
C15    H30     1.113   .     S
C15    C16     1.525   .     S
C16    H33     1.109   .     S
C16    H32     1.107   .     S
C16    H193    1.110   .     S
C17    C21     1.411   .     A
C18    C22     1.388   .     A
C18    C498    1.414   1_554 S
C18    C505    1.422   1_554 S
C19    C20     1.387   .     A
C19    C504    1.422   .     S
C20    C21     1.378   .     A
C20    H36     1.077   .     S
C21    H25     1.082   .     S
C22    H38     1.077   .     S
C23    C494    1.390   1_554 S
C23    H78     1.083   .     S
H24    C131    1.083   1_455 S
H26    C327    1.088   1_545 S
H31    C340    1.110   1_545 S
H34    C167    1.085   .     S
H35    N42     1.029   .     S
H39    C64     1.080   .     S
N42    N43     1.290   .     D
N42    Zn54    2.029   .     S
N43    Zn53    2.029   .     S
N43    O52     1.348   .     S
O44    Zn53    1.959   .     S
O44    C55     1.281   .     S
O45    Zn54    1.987   .     S
O46    Zn53    1.967   .     S
O46    C58     1.295   .     S
O47    Zn54    1.929   .     S
O48    Zn53    1.987   .     S
O49    Zn54    1.959   .     S
O49    C114    1.280   1_455 S
O50    Zn53    1.929   .     S
O51    Zn54    1.967   .     S
O51    C115    1.292   1_455 S
C55    O99     1.296   .     A
C55    C57     1.409   .     S
C56    C64     1.399   .     A
C56    C58     1.454   .     S
C56    C71     1.405   .     A
C57    C167    1.341   .     S
C57    H242    1.088   .     S
C58    O101    1.302   .     A
C59    C60     1.408   .     S
C59    C435    1.341   1_545 S
C59    H412    1.085   1_545 S
C60    O102    1.296   .     A
C60    O157    1.280   .     S
C61    C63     1.441   .     S
C61    O104    1.300   .     A
C61    O159    1.292   .     S
C62    C73     1.402   .     A
C62    H91     1.083   .     S
C62    C563    1.390   .     S
C63    C76     1.384   .     A
C63    C77     1.398   .     A
C64    C551    1.386   .     S
C65    H95     1.083   .     S
C65    C67     1.391   .     A
C65    C550    1.386   1_554 S
C66    C71     1.407   .     A
C66    C553    1.421   .     S
C66    C558    1.414   .     S
C67    H94     1.077   .     S
C67    C552    1.421   1_554 S
C68    H82     1.096   .     S
C68    H81     1.111   .     S
C68    O106    1.400   .     S
C68    C69     1.528   .     S
C69    H83     1.112   .     S
C69    H84     1.113   .     S
C69    C70     1.525   .     S
C70    H87     1.109   .     S
C70    H86     1.107   .     S
C70    H247    1.110   .     S
C71    C75     1.411   .     A
C72    C76     1.388   .     A
C72    C552    1.414   1_554 S
C72    C559    1.422   1_554 S
C73    C74     1.387   .     A
C73    C558    1.422   .     S
C74    C75     1.378   .     A
C74    H90     1.077   .     S
C75    H79     1.082   .     S
C76    H92     1.077   .     S
C77    C548    1.390   1_554 S
C77    H132    1.083   .     S
H80    C381    1.088   1_545 S
H85    C394    1.110   1_545 S
H88    C221    1.085   .     S
H89    N96     1.029   .     S
H93    C118    1.080   .     S
N96    N97     1.290   .     D
N96    Zn108   2.029   .     S
N97    Zn107   2.029   .     S
N97    O106    1.348   .     S
O98    Zn107   1.959   .     S
O98    C109    1.281   .     S
O99    Zn108   1.987   .     S
O100   Zn107   1.967   .     S
O100   C112    1.295   .     S
O101   Zn108   1.929   .     S
O102   Zn107   1.987   .     S
O103   Zn108   1.959   .     S
O104   Zn107   1.929   .     S
O105   Zn108   1.967   .     S
C109   O153    1.296   .     A
C109   C111    1.409   .     S
C110   C118    1.399   .     A
C110   C112    1.454   .     S
C110   C125    1.405   .     A
C111   C221    1.341   .     S
C111   H296    1.088   .     S
C112   O155    1.302   .     A
C113   C114    1.408   .     S
C113   C327    1.341   1_645 S
C113   H466    1.085   1_545 S
C114   O156    1.296   .     A
C114   O49     1.280   1_655 S
C115   C117    1.441   .     S
C115   O158    1.300   .     A
C115   O51     1.292   1_655 S
C116   C127    1.402   .     A
C116   H145    1.083   .     S
C116   C617    1.390   .     S
C117   C130    1.384   .     A
C117   C131    1.398   .     A
C118   C605    1.386   .     S
C119   H149    1.083   .     S
C119   C121    1.391   .     A
C119   C604    1.386   1_554 S
C120   C125    1.407   .     A
C120   C607    1.421   .     S
C120   C612    1.414   .     S
C121   H148    1.077   .     S
C121   C606    1.421   1_554 S
C122   H136    1.096   .     S
C122   H135    1.111   .     S
C122   O160    1.400   .     S
C122   C123    1.528   .     S
C123   H137    1.112   .     S
C123   H138    1.113   .     S
C123   C124    1.525   .     S
C124   H141    1.109   .     S
C124   H140    1.107   .     S
C124   H301    1.110   .     S
C125   C129    1.411   .     A
C126   C130    1.388   .     A
C126   C606    1.414   1_554 S
C126   C613    1.422   1_554 S
C127   C128    1.387   .     A
C127   C612    1.422   .     S
C128   C129    1.378   .     A
C128   H144    1.077   .     S
C129   H133    1.082   .     S
C130   H146    1.077   .     S
C131   C602    1.390   1_554 S
C131   H24     1.083   1_655 S
H134   C435    1.088   1_545 S
H139   C448    1.110   1_545 S
H142   C275    1.085   .     S
H143   N150    1.029   .     S
H147   C10     1.080   1_655 S
N150   N151    1.290   .     D
N150   Zn162   2.029   .     S
N151   Zn161   2.029   .     S
N151   O160    1.348   .     S
O152   Zn161   1.959   .     S
O152   C1      1.281   1_655 S
O153   Zn162   1.987   .     S
O154   Zn161   1.967   .     S
O154   C4      1.295   1_655 S
O155   Zn162   1.929   .     S
O156   Zn161   1.987   .     S
O157   Zn162   1.959   .     S
O158   Zn161   1.929   .     S
O159   Zn162   1.967   .     S
C163   O207    1.296   .     A
C163   C165    1.409   .     S
C163   O314    1.281   1_455 S
C164   C172    1.399   .     A
C164   C166    1.454   .     S
C164   C179    1.405   .     A
C165   C437    1.341   1_455 S
C165   H350    1.088   .     S
C166   O209    1.302   .     A
C166   O316    1.295   1_455 S
C167   C168    1.408   .     S
C168   O210    1.296   .     A
C168   O265    1.280   .     S
C169   C171    1.441   .     S
C169   O212    1.300   .     A
C169   O267    1.292   .     S
C170   C181    1.402   .     A
C170   H199    1.083   .     S
C170   C671    1.390   .     S
C171   C184    1.384   .     A
C171   C185    1.398   .     A
C172   C659    1.386   .     S
C172   H309    1.080   1_455 S
C173   H203    1.083   .     S
C173   C175    1.391   .     A
C173   C658    1.386   1_554 S
C174   C179    1.407   .     A
C174   C661    1.421   .     S
C174   C666    1.414   .     S
C175   H202    1.077   .     S
C175   C660    1.421   1_554 S
C176   H190    1.096   .     S
C176   H189    1.111   .     S
C176   O214    1.400   .     S
C176   C177    1.528   .     S
C177   H191    1.112   .     S
C177   H192    1.113   .     S
C177   C178    1.525   .     S
C178   H195    1.109   .     S
C178   H194    1.107   .     S
C178   H355    1.110   .     S
C179   C183    1.411   .     A
C180   C184    1.388   .     A
C180   C660    1.414   1_554 S
C180   C667    1.422   1_554 S
C181   C182    1.387   .     A
C181   C666    1.422   .     S
C182   C183    1.378   .     A
C182   H198    1.077   .     S
C183   H187    1.082   .     S
C184   H200    1.077   .     S
C185   C656    1.390   1_554 S
C185   H240    1.083   .     S
H186   C293    1.083   1_455 S
H196   C329    1.085   .     S
H197   N204    1.029   .     S
H201   C226    1.080   .     S
N204   N205    1.290   .     D
N204   Zn216   2.029   .     S
N205   Zn215   2.029   .     S
N205   O214    1.348   .     S
O206   Zn215   1.959   .     S
O206   C217    1.281   .     S
O207   Zn216   1.987   .     S
O208   Zn215   1.967   .     S
O208   C220    1.295   .     S
O209   Zn216   1.929   .     S
O210   Zn215   1.987   .     S
O211   Zn216   1.959   .     S
O211   C276    1.280   1_455 S
O212   Zn215   1.929   .     S
O213   Zn216   1.967   .     S
O213   C277    1.292   1_455 S
C217   O261    1.296   .     A
C217   C219    1.409   .     S
C218   C226    1.399   .     A
C218   C220    1.454   .     S
C218   C233    1.405   .     A
C219   C329    1.341   .     S
C219   H404    1.088   .     S
C220   O263    1.302   .     A
C221   C222    1.408   .     S
C222   O264    1.296   .     A
C222   O319    1.280   .     S
C223   C225    1.441   .     S
C223   O266    1.300   .     A
C223   O321    1.292   .     S
C224   C235    1.402   .     A
C224   H253    1.083   .     S
C224   C725    1.390   .     S
C225   C238    1.384   .     A
C225   C239    1.398   .     A
C226   C713    1.386   .     S
C227   H257    1.083   .     S
C227   C229    1.391   .     A
C227   C712    1.386   1_554 S
C228   C233    1.407   .     A
C228   C715    1.421   .     S
C228   C720    1.414   .     S
C229   H256    1.077   .     S
C229   C714    1.421   1_554 S
C230   H244    1.096   .     S
C230   H243    1.111   .     S
C230   O268    1.400   .     S
C230   C231    1.528   .     S
C231   H245    1.112   .     S
C231   H246    1.113   .     S
C231   C232    1.525   .     S
C232   H249    1.109   .     S
C232   H248    1.107   .     S
C232   H409    1.110   .     S
C233   C237    1.411   .     A
C234   C238    1.388   .     A
C234   C714    1.414   1_554 S
C234   C721    1.422   1_554 S
C235   C236    1.387   .     A
C235   C720    1.422   .     S
C236   C237    1.378   .     A
C236   H252    1.077   .     S
C237   H241    1.082   .     S
C238   H254    1.077   .     S
C239   C710    1.390   1_554 S
C239   H294    1.083   .     S
H250   C383    1.085   .     S
H251   N258    1.029   .     S
H255   C280    1.080   .     S
N258   N259    1.290   .     D
N258   Zn270   2.029   .     S
N259   Zn269   2.029   .     S
N259   O268    1.348   .     S
O260   Zn269   1.959   .     S
O260   C271    1.281   .     S
O261   Zn270   1.987   .     S
O262   Zn269   1.967   .     S
O262   C274    1.295   .     S
O263   Zn270   1.929   .     S
O264   Zn269   1.987   .     S
O265   Zn270   1.959   .     S
O266   Zn269   1.929   .     S
O267   Zn270   1.967   .     S
C271   O315    1.296   .     A
C271   C273    1.409   .     S
C272   C280    1.399   .     A
C272   C274    1.454   .     S
C272   C287    1.405   .     A
C273   C383    1.341   .     S
C273   H458    1.088   .     S
C274   O317    1.302   .     A
C275   C276    1.408   .     S
C275   C3      1.341   1_655 S
C276   O318    1.296   .     A
C276   O211    1.280   1_655 S
C277   C279    1.441   .     S
C277   O320    1.300   .     A
C277   O213    1.292   1_655 S
C278   C289    1.402   .     A
C278   H307    1.083   .     S
C278   C779    1.390   .     S
C279   C292    1.384   .     A
C279   C293    1.398   .     A
C280   C767    1.386   .     S
C281   H311    1.083   .     S
C281   C283    1.391   .     A
C281   C766    1.386   1_554 S
C282   C287    1.407   .     A
C282   C769    1.421   .     S
C282   C774    1.414   .     S
C283   H310    1.077   .     S
C283   C768    1.421   1_554 S
C284   H298    1.096   .     S
C284   H297    1.111   .     S
C284   O322    1.400   .     S
C284   C285    1.528   .     S
C285   H299    1.112   .     S
C285   H300    1.113   .     S
C285   C286    1.525   .     S
C286   H303    1.109   .     S
C286   H302    1.107   .     S
C286   H463    1.110   .     S
C287   C291    1.411   .     A
C288   C292    1.388   .     A
C288   C768    1.414   1_554 S
C288   C775    1.422   1_554 S
C289   C290    1.387   .     A
C289   C774    1.422   .     S
C290   C291    1.378   .     A
C290   H306    1.077   .     S
C291   H295    1.082   .     S
C292   H308    1.077   .     S
C293   C764    1.390   1_554 S
C293   H186    1.083   1_655 S
H304   C437    1.085   .     S
H305   N312    1.029   .     S
H309   C172    1.080   1_655 S
N312   N313    1.290   .     D
N312   Zn324   2.029   .     S
N313   Zn323   2.029   .     S
N313   O322    1.348   .     S
O314   Zn323   1.959   .     S
O314   C163    1.281   1_655 S
O315   Zn324   1.987   .     S
O316   Zn323   1.967   .     S
O316   C166    1.295   1_655 S
O317   Zn324   1.929   .     S
O318   Zn323   1.987   .     S
O319   Zn324   1.959   .     S
O320   Zn323   1.929   .     S
O321   Zn324   1.967   .     S
C325   O369    1.296   .     A
C325   C327    1.409   .     S
C325   O476    1.281   1_455 S
C326   C334    1.399   .     A
C326   C328    1.454   .     S
C326   C341    1.405   .     A
C327   C113    1.341   1_465 S
C327   H26     1.088   1_565 S
C328   O371    1.302   .     A
C328   O478    1.295   1_455 S
C329   C330    1.408   .     S
C330   O372    1.296   .     A
C330   O427    1.280   .     S
C331   C333    1.441   .     S
C331   O374    1.300   .     A
C331   O429    1.292   .     S
C332   C343    1.402   .     A
C332   H361    1.083   .     S
C332   C833    1.390   .     S
C333   C346    1.384   .     A
C333   C347    1.398   .     A
C334   C821    1.386   .     S
C334   H471    1.080   1_455 S
C335   H365    1.083   .     S
C335   C337    1.391   .     A
C335   C820    1.386   1_554 S
C336   C341    1.407   .     A
C336   C823    1.421   .     S
C336   C828    1.414   .     S
C337   H364    1.077   .     S
C337   C822    1.421   1_554 S
C338   H352    1.096   .     S
C338   H351    1.111   .     S
C338   O376    1.400   .     S
C338   C339    1.528   .     S
C339   H353    1.112   .     S
C339   H354    1.113   .     S
C339   C340    1.525   .     S
C340   H357    1.109   .     S
C340   H356    1.107   .     S
C340   H31     1.110   1_565 S
C341   C345    1.411   .     A
C342   C346    1.388   .     A
C342   C822    1.414   1_554 S
C342   C829    1.422   1_554 S
C343   C344    1.387   .     A
C343   C828    1.422   .     S
C344   C345    1.378   .     A
C344   H360    1.077   .     S
C345   H349    1.082   .     S
C346   H362    1.077   .     S
C347   C818    1.390   1_554 S
C347   H402    1.083   .     S
H348   C455    1.083   1_455 S
H358   C5      1.085   1_565 S
H359   N366    1.029   .     S
H363   C388    1.080   .     S
N366   N367    1.290   .     D
N366   Zn378   2.029   .     S
N367   Zn377   2.029   .     S
N367   O376    1.348   .     S
O368   Zn377   1.959   .     S
O368   C379    1.281   .     S
O369   Zn378   1.987   .     S
O370   Zn377   1.967   .     S
O370   C382    1.295   .     S
O371   Zn378   1.929   .     S
O372   Zn377   1.987   .     S
O373   Zn378   1.959   .     S
O373   C438    1.280   1_455 S
O374   Zn377   1.929   .     S
O375   Zn378   1.967   .     S
O375   C439    1.292   1_455 S
C379   O423    1.296   .     A
C379   C381    1.409   .     S
C380   C388    1.399   .     A
C380   C382    1.454   .     S
C380   C395    1.405   .     A
C381   C5      1.341   1_565 S
C381   H80     1.088   1_565 S
C382   O425    1.302   .     A
C383   C384    1.408   .     S
C384   O426    1.296   .     A
C384   O481    1.280   .     S
C385   C387    1.441   .     S
C385   O428    1.300   .     A
C385   O483    1.292   .     S
C386   C397    1.402   .     A
C386   H415    1.083   .     S
C386   C887    1.390   .     S
C387   C400    1.384   .     A
C387   C401    1.398   .     A
C388   C875    1.386   .     S
C389   H419    1.083   .     S
C389   C391    1.391   .     A
C389   C874    1.386   1_554 S
C390   C395    1.407   .     A
C390   C877    1.421   .     S
C390   C882    1.414   .     S
C391   H418    1.077   .     S
C391   C876    1.421   1_554 S
C392   H406    1.096   .     S
C392   H405    1.111   .     S
C392   O430    1.400   .     S
C392   C393    1.528   .     S
C393   H407    1.112   .     S
C393   H408    1.113   .     S
C393   C394    1.525   .     S
C394   H411    1.109   .     S
C394   H410    1.107   .     S
C394   H85     1.110   1_565 S
C395   C399    1.411   .     A
C396   C400    1.388   .     A
C396   C876    1.414   1_554 S
C396   C883    1.422   1_554 S
C397   C398    1.387   .     A
C397   C882    1.422   .     S
C398   C399    1.378   .     A
C398   H414    1.077   .     S
C399   H403    1.082   .     S
C400   H416    1.077   .     S
C401   C872    1.390   1_554 S
C401   H456    1.083   .     S
H412   C59     1.085   1_565 S
H413   N420    1.029   .     S
H417   C442    1.080   .     S
N420   N421    1.290   .     D
N420   Zn432   2.029   .     S
N421   Zn431   2.029   .     S
N421   O430    1.348   .     S
O422   Zn431   1.959   .     S
O422   C433    1.281   .     S
O423   Zn432   1.987   .     S
O424   Zn431   1.967   .     S
O424   C436    1.295   .     S
O425   Zn432   1.929   .     S
O426   Zn431   1.987   .     S
O427   Zn432   1.959   .     S
O428   Zn431   1.929   .     S
O429   Zn432   1.967   .     S
C433   O477    1.296   .     A
C433   C435    1.409   .     S
C434   C442    1.399   .     A
C434   C436    1.454   .     S
C434   C449    1.405   .     A
C435   C59     1.341   1_565 S
C435   H134    1.088   1_565 S
C436   O479    1.302   .     A
C437   C438    1.408   .     S
C437   C165    1.341   1_655 S
C438   O480    1.296   .     A
C438   O373    1.280   1_655 S
C439   C441    1.441   .     S
C439   O482    1.300   .     A
C439   O375    1.292   1_655 S
C440   C451    1.402   .     A
C440   H469    1.083   .     S
C440   C941    1.390   .     S
C441   C454    1.384   .     A
C441   C455    1.398   .     A
C442   C929    1.386   .     S
C443   H473    1.083   .     S
C443   C445    1.391   .     A
C443   C928    1.386   1_554 S
C444   C449    1.407   .     A
C444   C931    1.421   .     S
C444   C936    1.414   .     S
C445   H472    1.077   .     S
C445   C930    1.421   1_554 S
C446   H460    1.096   .     S
C446   H459    1.111   .     S
C446   O484    1.400   .     S
C446   C447    1.528   .     S
C447   H461    1.112   .     S
C447   H462    1.113   .     S
C447   C448    1.525   .     S
C448   H465    1.109   .     S
C448   H464    1.107   .     S
C448   H139    1.110   1_565 S
C449   C453    1.411   .     A
C450   C454    1.388   .     A
C450   C930    1.414   1_554 S
C450   C937    1.422   1_554 S
C451   C452    1.387   .     A
C451   C936    1.422   .     S
C452   C453    1.378   .     A
C452   H468    1.077   .     S
C453   H457    1.082   .     S
C454   H470    1.077   .     S
C455   C926    1.390   1_554 S
C455   H348    1.083   1_655 S
H466   C113    1.085   1_565 S
H467   N474    1.029   .     S
H471   C334    1.080   1_655 S
N474   N475    1.290   .     D
N474   Zn486   2.029   .     S
N475   Zn485   2.029   .     S
N475   O484    1.348   .     S
O476   Zn485   1.959   .     S
O476   C325    1.281   1_655 S
O477   Zn486   1.987   .     S
O478   Zn485   1.967   .     S
O478   C328    1.295   1_655 S
O479   Zn486   1.929   .     S
O480   Zn485   1.987   .     S
O481   Zn486   1.959   .     S
O482   Zn485   1.929   .     S
O483   Zn486   1.967   .     S
C487   O531    1.296   .     A
C487   C489    1.409   .     S
C487   O638    1.281   1_455 S
C488   C496    1.399   .     A
C488   C490    1.454   .     S
C488   C503    1.405   .     A
C489   C761    1.341   1_455 S
C489   H674    1.088   .     S
C490   O533    1.302   .     A
C490   O640    1.295   1_455 S
C491   C492    1.408   .     S
C491   C867    1.341   1_545 S
C491   H844    1.085   1_545 S
C492   O534    1.296   .     A
C492   O589    1.280   .     S
C493   C495    1.441   .     S
C493   O536    1.300   .     A
C493   O591    1.292   .     S
C494   C505    1.402   .     A
C494   H523    1.083   .     S
C494   C23     1.390   1_556 S
C495   C508    1.384   .     A
C495   C509    1.398   .     A
C496   C11     1.386   1_556 S
C496   H633    1.080   1_455 S
C497   H527    1.083   .     S
C497   C499    1.391   .     A
C498   C503    1.407   .     A
C498   C13     1.421   1_556 S
C498   C18     1.414   1_556 S
C499   H526    1.077   .     S
C500   H514    1.096   .     S
C500   H513    1.111   .     S
C500   O538    1.400   .     S
C500   C501    1.528   .     S
C501   H515    1.112   .     S
C501   H516    1.113   .     S
C501   C502    1.525   .     S
C502   H519    1.109   .     S
C502   H518    1.107   .     S
C502   H679    1.110   .     S
C503   C507    1.411   .     A
C504   C508    1.388   .     A
C505   C506    1.387   .     A
C505   C18     1.422   1_556 S
C506   C507    1.378   .     A
C506   H522    1.077   .     S
C507   H511    1.082   .     S
C508   H524    1.077   .     S
C509   H564    1.083   .     S
H510   C617    1.083   1_455 S
H512   C813    1.088   1_545 S
H517   C826    1.110   1_545 S
H520   C653    1.085   .     S
H521   N528    1.029   .     S
H525   C550    1.080   .     S
N528   N529    1.290   .     D
N528   Zn540   2.029   .     S
N529   Zn539   2.029   .     S
N529   O538    1.348   .     S
O530   Zn539   1.959   .     S
O530   C541    1.281   .     S
O531   Zn540   1.987   .     S
O532   Zn539   1.967   .     S
O532   C544    1.295   .     S
O533   Zn540   1.929   .     S
O534   Zn539   1.987   .     S
O535   Zn540   1.959   .     S
O535   C600    1.280   1_455 S
O536   Zn539   1.929   .     S
O537   Zn540   1.967   .     S
O537   C601    1.292   1_455 S
C541   O585    1.296   .     A
C541   C543    1.409   .     S
C542   C550    1.399   .     A
C542   C544    1.454   .     S
C542   C557    1.405   .     A
C543   C653    1.341   .     S
C543   H728    1.088   .     S
C544   O587    1.302   .     A
C545   C546    1.408   .     S
C545   C921    1.341   1_545 S
C545   H898    1.085   1_545 S
C546   O588    1.296   .     A
C546   O643    1.280   .     S
C547   C549    1.441   .     S
C547   O590    1.300   .     A
C547   O645    1.292   .     S
C548   C559    1.402   .     A
C548   H577    1.083   .     S
C548   C77     1.390   1_556 S
C549   C562    1.384   .     A
C549   C563    1.398   .     A
C550   C65     1.386   1_556 S
C551   H581    1.083   .     S
C551   C553    1.391   .     A
C552   C557    1.407   .     A
C552   C67     1.421   1_556 S
C552   C72     1.414   1_556 S
C553   H580    1.077   .     S
C554   H568    1.096   .     S
C554   H567    1.111   .     S
C554   O592    1.400   .     S
C554   C555    1.528   .     S
C555   H569    1.112   .     S
C555   H570    1.113   .     S
C555   C556    1.525   .     S
C556   H573    1.109   .     S
C556   H572    1.107   .     S
C556   H733    1.110   .     S
C557   C561    1.411   .     A
C558   C562    1.388   .     A
C559   C560    1.387   .     A
C559   C72     1.422   1_556 S
C560   C561    1.378   .     A
C560   H576    1.077   .     S
C561   H565    1.082   .     S
C562   H578    1.077   .     S
C563   H618    1.083   .     S
H566   C867    1.088   1_545 S
H571   C880    1.110   1_545 S
H574   C707    1.085   .     S
H575   N582    1.029   .     S
H579   C604    1.080   .     S
N582   N583    1.290   .     D
N582   Zn594   2.029   .     S
N583   Zn593   2.029   .     S
N583   O592    1.348   .     S
O584   Zn593   1.959   .     S
O584   C595    1.281   .     S
O585   Zn594   1.987   .     S
O586   Zn593   1.967   .     S
O586   C598    1.295   .     S
O587   Zn594   1.929   .     S
O588   Zn593   1.987   .     S
O589   Zn594   1.959   .     S
O590   Zn593   1.929   .     S
O591   Zn594   1.967   .     S
C595   O639    1.296   .     A
C595   C597    1.409   .     S
C596   C604    1.399   .     A
C596   C598    1.454   .     S
C596   C611    1.405   .     A
C597   C707    1.341   .     S
C597   H782    1.088   .     S
C598   O641    1.302   .     A
C599   C600    1.408   .     S
C599   C813    1.341   1_645 S
C599   H952    1.085   1_545 S
C600   O642    1.296   .     A
C600   O535    1.280   1_655 S
C601   C603    1.441   .     S
C601   O644    1.300   .     A
C601   O537    1.292   1_655 S
C602   C613    1.402   .     A
C602   H631    1.083   .     S
C602   C131    1.390   1_556 S
C603   C616    1.384   .     A
C603   C617    1.398   .     A
C604   C119    1.386   1_556 S
C605   H635    1.083   .     S
C605   C607    1.391   .     A
C606   C611    1.407   .     A
C606   C121    1.421   1_556 S
C606   C126    1.414   1_556 S
C607   H634    1.077   .     S
C608   H622    1.096   .     S
C608   H621    1.111   .     S
C608   O646    1.400   .     S
C608   C609    1.528   .     S
C609   H623    1.112   .     S
C609   H624    1.113   .     S
C609   C610    1.525   .     S
C610   H627    1.109   .     S
C610   H626    1.107   .     S
C610   H787    1.110   .     S
C611   C615    1.411   .     A
C612   C616    1.388   .     A
C613   C614    1.387   .     A
C613   C126    1.422   1_556 S
C614   C615    1.378   .     A
C614   H630    1.077   .     S
C615   H619    1.082   .     S
C616   H632    1.077   .     S
C617   H510    1.083   1_655 S
H620   C921    1.088   1_545 S
H625   C934    1.110   1_545 S
H628   C761    1.085   .     S
H629   N636    1.029   .     S
H633   C496    1.080   1_655 S
N636   N637    1.290   .     D
N636   Zn648   2.029   .     S
N637   Zn647   2.029   .     S
N637   O646    1.348   .     S
O638   Zn647   1.959   .     S
O638   C487    1.281   1_655 S
O639   Zn648   1.987   .     S
O640   Zn647   1.967   .     S
O640   C490    1.295   1_655 S
O641   Zn648   1.929   .     S
O642   Zn647   1.987   .     S
O643   Zn648   1.959   .     S
O644   Zn647   1.929   .     S
O645   Zn648   1.967   .     S
C649   O693    1.296   .     A
C649   C651    1.409   .     S
C649   O800    1.281   1_455 S
C650   C658    1.399   .     A
C650   C652    1.454   .     S
C650   C665    1.405   .     A
C651   C923    1.341   1_455 S
C651   H836    1.088   .     S
C652   O695    1.302   .     A
C652   O802    1.295   1_455 S
C653   C654    1.408   .     S
C654   O696    1.296   .     A
C654   O751    1.280   .     S
C655   C657    1.441   .     S
C655   O698    1.300   .     A
C655   O753    1.292   .     S
C656   C667    1.402   .     A
C656   H685    1.083   .     S
C656   C185    1.390   1_556 S
C657   C670    1.384   .     A
C657   C671    1.398   .     A
C658   C173    1.386   1_556 S
C658   H795    1.080   1_455 S
C659   H689    1.083   .     S
C659   C661    1.391   .     A
C660   C665    1.407   .     A
C660   C175    1.421   1_556 S
C660   C180    1.414   1_556 S
C661   H688    1.077   .     S
C662   H676    1.096   .     S
C662   H675    1.111   .     S
C662   O700    1.400   .     S
C662   C663    1.528   .     S
C663   H677    1.112   .     S
C663   H678    1.113   .     S
C663   C664    1.525   .     S
C664   H681    1.109   .     S
C664   H680    1.107   .     S
C664   H841    1.110   .     S
C665   C669    1.411   .     A
C666   C670    1.388   .     A
C667   C668    1.387   .     A
C667   C180    1.422   1_556 S
C668   C669    1.378   .     A
C668   H684    1.077   .     S
C669   H673    1.082   .     S
C670   H686    1.077   .     S
C671   H726    1.083   .     S
H672   C779    1.083   1_455 S
H682   C815    1.085   .     S
H683   N690    1.029   .     S
H687   C712    1.080   .     S
N690   N691    1.290   .     D
N690   Zn702   2.029   .     S
N691   Zn701   2.029   .     S
N691   O700    1.348   .     S
O692   Zn701   1.959   .     S
O692   C703    1.281   .     S
O693   Zn702   1.987   .     S
O694   Zn701   1.967   .     S
O694   C706    1.295   .     S
O695   Zn702   1.929   .     S
O696   Zn701   1.987   .     S
O697   Zn702   1.959   .     S
O697   C762    1.280   1_455 S
O698   Zn701   1.929   .     S
O699   Zn702   1.967   .     S
O699   C763    1.292   1_455 S
C703   O747    1.296   .     A
C703   C705    1.409   .     S
C704   C712    1.399   .     A
C704   C706    1.454   .     S
C704   C719    1.405   .     A
C705   C815    1.341   .     S
C705   H890    1.088   .     S
C706   O749    1.302   .     A
C707   C708    1.408   .     S
C708   O750    1.296   .     A
C708   O805    1.280   .     S
C709   C711    1.441   .     S
C709   O752    1.300   .     A
C709   O807    1.292   .     S
C710   C721    1.402   .     A
C710   H739    1.083   .     S
C710   C239    1.390   1_556 S
C711   C724    1.384   .     A
C711   C725    1.398   .     A
C712   C227    1.386   1_556 S
C713   H743    1.083   .     S
C713   C715    1.391   .     A
C714   C719    1.407   .     A
C714   C229    1.421   1_556 S
C714   C234    1.414   1_556 S
C715   H742    1.077   .     S
C716   H730    1.096   .     S
C716   H729    1.111   .     S
C716   O754    1.400   .     S
C716   C717    1.528   .     S
C717   H731    1.112   .     S
C717   H732    1.113   .     S
C717   C718    1.525   .     S
C718   H735    1.109   .     S
C718   H734    1.107   .     S
C718   H895    1.110   .     S
C719   C723    1.411   .     A
C720   C724    1.388   .     A
C721   C722    1.387   .     A
C721   C234    1.422   1_556 S
C722   C723    1.378   .     A
C722   H738    1.077   .     S
C723   H727    1.082   .     S
C724   H740    1.077   .     S
C725   H780    1.083   .     S
H736   C869    1.085   .     S
H737   N744    1.029   .     S
H741   C766    1.080   .     S
N744   N745    1.290   .     D
N744   Zn756   2.029   .     S
N745   Zn755   2.029   .     S
N745   O754    1.348   .     S
O746   Zn755   1.959   .     S
O746   C757    1.281   .     S
O747   Zn756   1.987   .     S
O748   Zn755   1.967   .     S
O748   C760    1.295   .     S
O749   Zn756   1.929   .     S
O750   Zn755   1.987   .     S
O751   Zn756   1.959   .     S
O752   Zn755   1.929   .     S
O753   Zn756   1.967   .     S
C757   O801    1.296   .     A
C757   C759    1.409   .     S
C758   C766    1.399   .     A
C758   C760    1.454   .     S
C758   C773    1.405   .     A
C759   C869    1.341   .     S
C759   H944    1.088   .     S
C760   O803    1.302   .     A
C761   C762    1.408   .     S
C761   C489    1.341   1_655 S
C762   O804    1.296   .     A
C762   O697    1.280   1_655 S
C763   C765    1.441   .     S
C763   O806    1.300   .     A
C763   O699    1.292   1_655 S
C764   C775    1.402   .     A
C764   H793    1.083   .     S
C764   C293    1.390   1_556 S
C765   C778    1.384   .     A
C765   C779    1.398   .     A
C766   C281    1.386   1_556 S
C767   H797    1.083   .     S
C767   C769    1.391   .     A
C768   C773    1.407   .     A
C768   C283    1.421   1_556 S
C768   C288    1.414   1_556 S
C769   H796    1.077   .     S
C770   H784    1.096   .     S
C770   H783    1.111   .     S
C770   O808    1.400   .     S
C770   C771    1.528   .     S
C771   H785    1.112   .     S
C771   H786    1.113   .     S
C771   C772    1.525   .     S
C772   H789    1.109   .     S
C772   H788    1.107   .     S
C772   H949    1.110   .     S
C773   C777    1.411   .     A
C774   C778    1.388   .     A
C775   C776    1.387   .     A
C775   C288    1.422   1_556 S
C776   C777    1.378   .     A
C776   H792    1.077   .     S
C777   H781    1.082   .     S
C778   H794    1.077   .     S
C779   H672    1.083   1_655 S
H790   C923    1.085   .     S
H791   N798    1.029   .     S
H795   C658    1.080   1_655 S
N798   N799    1.290   .     D
N798   Zn810   2.029   .     S
N799   Zn809   2.029   .     S
N799   O808    1.348   .     S
O800   Zn809   1.959   .     S
O800   C649    1.281   1_655 S
O801   Zn810   1.987   .     S
O802   Zn809   1.967   .     S
O802   C652    1.295   1_655 S
O803   Zn810   1.929   .     S
O804   Zn809   1.987   .     S
O805   Zn810   1.959   .     S
O806   Zn809   1.929   .     S
O807   Zn810   1.967   .     S
C811   O855    1.296   .     A
C811   C813    1.409   .     S
C811   O962    1.281   1_455 S
C812   C820    1.399   .     A
C812   C814    1.454   .     S
C812   C827    1.405   .     A
C813   C599    1.341   1_465 S
C813   H512    1.088   1_565 S
C814   O857    1.302   .     A
C814   O964    1.295   1_455 S
C815   C816    1.408   .     S
C816   O858    1.296   .     A
C816   O913    1.280   .     S
C817   C819    1.441   .     S
C817   O860    1.300   .     A
C817   O915    1.292   .     S
C818   C829    1.402   .     A
C818   H847    1.083   .     S
C818   C347    1.390   1_556 S
C819   C832    1.384   .     A
C819   C833    1.398   .     A
C820   C335    1.386   1_556 S
C820   H957    1.080   1_455 S
C821   H851    1.083   .     S
C821   C823    1.391   .     A
C822   C827    1.407   .     A
C822   C337    1.421   1_556 S
C822   C342    1.414   1_556 S
C823   H850    1.077   .     S
C824   H838    1.096   .     S
C824   H837    1.111   .     S
C824   O862    1.400   .     S
C824   C825    1.528   .     S
C825   H839    1.112   .     S
C825   H840    1.113   .     S
C825   C826    1.525   .     S
C826   H843    1.109   .     S
C826   H842    1.107   .     S
C826   H517    1.110   1_565 S
C827   C831    1.411   .     A
C828   C832    1.388   .     A
C829   C830    1.387   .     A
C829   C342    1.422   1_556 S
C830   C831    1.378   .     A
C830   H846    1.077   .     S
C831   H835    1.082   .     S
C832   H848    1.077   .     S
C833   H888    1.083   .     S
H834   C941    1.083   1_455 S
H844   C491    1.085   1_565 S
H845   N852    1.029   .     S
H849   C874    1.080   .     S
N852   N853    1.290   .     D
N852   Zn864   2.029   .     S
N853   Zn863   2.029   .     S
N853   O862    1.348   .     S
O854   Zn863   1.959   .     S
O854   C865    1.281   .     S
O855   Zn864   1.987   .     S
O856   Zn863   1.967   .     S
O856   C868    1.295   .     S
O857   Zn864   1.929   .     S
O858   Zn863   1.987   .     S
O859   Zn864   1.959   .     S
O859   C924    1.280   1_455 S
O860   Zn863   1.929   .     S
O861   Zn864   1.967   .     S
O861   C925    1.292   1_455 S
C865   O909    1.296   .     A
C865   C867    1.409   .     S
C866   C874    1.399   .     A
C866   C868    1.454   .     S
C866   C881    1.405   .     A
C867   C491    1.341   1_565 S
C867   H566    1.088   1_565 S
C868   O911    1.302   .     A
C869   C870    1.408   .     S
C870   O912    1.296   .     A
C870   O967    1.280   .     S
C871   C873    1.441   .     S
C871   O914    1.300   .     A
C871   O969    1.292   .     S
C872   C883    1.402   .     A
C872   H901    1.083   .     S
C872   C401    1.390   1_556 S
C873   C886    1.384   .     A
C873   C887    1.398   .     A
C874   C389    1.386   1_556 S
C875   H905    1.083   .     S
C875   C877    1.391   .     A
C876   C881    1.407   .     A
C876   C391    1.421   1_556 S
C876   C396    1.414   1_556 S
C877   H904    1.077   .     S
C878   H892    1.096   .     S
C878   H891    1.111   .     S
C878   O916    1.400   .     S
C878   C879    1.528   .     S
C879   H893    1.112   .     S
C879   H894    1.113   .     S
C879   C880    1.525   .     S
C880   H897    1.109   .     S
C880   H896    1.107   .     S
C880   H571    1.110   1_565 S
C881   C885    1.411   .     A
C882   C886    1.388   .     A
C883   C884    1.387   .     A
C883   C396    1.422   1_556 S
C884   C885    1.378   .     A
C884   H900    1.077   .     S
C885   H889    1.082   .     S
C886   H902    1.077   .     S
C887   H942    1.083   .     S
H898   C545    1.085   1_565 S
H899   N906    1.029   .     S
H903   C928    1.080   .     S
N906   N907    1.290   .     D
N906   Zn918   2.029   .     S
N907   Zn917   2.029   .     S
N907   O916    1.348   .     S
O908   Zn917   1.959   .     S
O908   C919    1.281   .     S
O909   Zn918   1.987   .     S
O910   Zn917   1.967   .     S
O910   C922    1.295   .     S
O911   Zn918   1.929   .     S
O912   Zn917   1.987   .     S
O913   Zn918   1.959   .     S
O914   Zn917   1.929   .     S
O915   Zn918   1.967   .     S
C919   O963    1.296   .     A
C919   C921    1.409   .     S
C920   C928    1.399   .     A
C920   C922    1.454   .     S
C920   C935    1.405   .     A
C921   C545    1.341   1_565 S
C921   H620    1.088   1_565 S
C922   O965    1.302   .     A
C923   C924    1.408   .     S
C923   C651    1.341   1_655 S
C924   O966    1.296   .     A
C924   O859    1.280   1_655 S
C925   C927    1.441   .     S
C925   O968    1.300   .     A
C925   O861    1.292   1_655 S
C926   C937    1.402   .     A
C926   H955    1.083   .     S
C926   C455    1.390   1_556 S
C927   C940    1.384   .     A
C927   C941    1.398   .     A
C928   C443    1.386   1_556 S
C929   H959    1.083   .     S
C929   C931    1.391   .     A
C930   C935    1.407   .     A
C930   C445    1.421   1_556 S
C930   C450    1.414   1_556 S
C931   H958    1.077   .     S
C932   H946    1.096   .     S
C932   H945    1.111   .     S
C932   O970    1.400   .     S
C932   C933    1.528   .     S
C933   H947    1.112   .     S
C933   H948    1.113   .     S
C933   C934    1.525   .     S
C934   H951    1.109   .     S
C934   H950    1.107   .     S
C934   H625    1.110   1_565 S
C935   C939    1.411   .     A
C936   C940    1.388   .     A
C937   C938    1.387   .     A
C937   C450    1.422   1_556 S
C938   C939    1.378   .     A
C938   H954    1.077   .     S
C939   H943    1.082   .     S
C940   H956    1.077   .     S
C941   H834    1.083   1_655 S
H952   C599    1.085   1_565 S
H953   N960    1.029   .     S
H957   C820    1.080   1_655 S
N960   N961    1.290   .     D
N960   Zn972   2.029   .     S
N961   Zn971   2.029   .     S
N961   O970    1.348   .     S
O962   Zn971   1.959   .     S
O962   C811    1.281   1_655 S
O963   Zn972   1.987   .     S
O964   Zn971   1.967   .     S
O964   C814    1.295   1_655 S
O965   Zn972   1.929   .     S
O966   Zn971   1.987   .     S
O967   Zn972   1.959   .     S
O968   Zn971   1.929   .     S
O969   Zn972   1.967   .     S
