data_str_m3_o1_o17_pcu_sym.100
_audit_creation_date              2020-01-03
_audit_creation_method            'Materials Studio'
_symmetry_space_group_name_H-M    'P1'
_symmetry_Int_Tables_number       1
_symmetry_cell_setting            triclinic
loop_
_symmetry_equiv_pos_as_xyz
  x,y,z
_cell_length_a                    31.8050
_cell_length_b                    29.7611
_cell_length_c                    29.9283
_cell_angle_alpha                 90.2149
_cell_angle_beta                  90.9632
_cell_angle_gamma                 90.0824
loop_
_atom_site_label
_atom_site_type_symbol
_atom_site_fract_x
_atom_site_fract_y
_atom_site_fract_z
_atom_site_U_iso_or_equiv
_atom_site_adp_type
_atom_site_occupancy
C1     C     0.08695   0.16665   0.24936   0.00000  Uiso   1.00
C2     C     0.24647   0.16670   0.25036   0.00000  Uiso   1.00
C3     C     0.12914   0.09405   0.02187   0.00000  Uiso   1.00
C4     C     0.20827   0.23712   0.47845   0.00000  Uiso   1.00
C5     C     0.02294   0.16181   0.28938   0.00000  Uiso   1.00
C6     C     0.31090   0.17040   0.20769   0.00000  Uiso   1.00
C7     C     0.31254   0.16422   0.28996   0.00000  Uiso   1.00
C8     C     0.02089   0.17132   0.20748   0.00000  Uiso   1.00
C9     C     0.29065   0.16676   0.24909   0.00000  Uiso   1.00
C10    C     0.04287   0.16673   0.24847   0.00000  Uiso   1.00
C11    C     0.18822   0.02431   0.28235   0.00000  Uiso   1.00
C12    C     0.14364   0.30891   0.21861   0.00000  Uiso   1.00
C13    C     0.14309   0.02396   0.21913   0.00000  Uiso   1.00
C14    C     0.18814   0.30958   0.28248   0.00000  Uiso   1.00
C15    C     0.16676   0.16659   0.16346   0.00000  Uiso   1.00
C16    C     0.16697   0.16668   0.33655   0.00000  Uiso   1.00
C17    C     0.18706   0.20180   0.40758   0.00000  Uiso   1.00
C18    C     0.14836   0.13091   0.09236   0.00000  Uiso   1.00
C19    C     0.16795   0.16640   0.38442   0.00000  Uiso   1.00
C20    C     0.16729   0.16637   0.11559   0.00000  Uiso   1.00
C21    C     0.15023   0.13028   0.40674   0.00000  Uiso   1.00
C22    C     0.18684   0.20143   0.09336   0.00000  Uiso   1.00
C23    C     0.15029   0.12988   0.45291   0.00000  Uiso   1.00
C24    C     0.18741   0.20145   0.04719   0.00000  Uiso   1.00
C25    C     0.16920   0.16574   0.47678   0.00000  Uiso   1.00
C26    C     0.16834   0.16564   0.02325   0.00000  Uiso   1.00
C27    C     0.18868   0.20179   0.45405   0.00000  Uiso   1.00
C28    C     0.14830   0.12994   0.04590   0.00000  Uiso   1.00
C29    C     0.13093   0.09444   0.47512   0.00000  Uiso   1.00
C30    C     0.20711   0.23662   0.02491   0.00000  Uiso   1.00
H31    H     0.20051   0.22899   0.38892   0.00000  Uiso   1.00
H32    H     0.13352   0.10447   0.11095   0.00000  Uiso   1.00
H33    H     0.13545   0.10301   0.38807   0.00000  Uiso   1.00
H34    H     0.20191   0.22846   0.11210   0.00000  Uiso   1.00
H35    H     0.11642   0.06782   0.45551   0.00000  Uiso   1.00
H36    H     0.22211   0.26366   0.04366   0.00000  Uiso   1.00
N37    N     0.16667   0.28573   0.25000   0.00000  Uiso   1.00
N38    N     0.16667   0.04760   0.25000   0.00000  Uiso   1.00
O39    O     0.10559   0.20487   0.24999   0.00000  Uiso   1.00
O40    O     0.22774   0.12846   0.25001   0.00000  Uiso   1.00
O41    O     0.22774   0.20487   0.25001   0.00000  Uiso   1.00
O42    O     0.10559   0.12846   0.24999   0.00000  Uiso   1.00
O43    O     0.16666   0.20489   0.18392   0.00000  Uiso   1.00
O44    O     0.16667   0.12844   0.31607   0.00000  Uiso   1.00
O45    O     0.16667   0.20489   0.31607   0.00000  Uiso   1.00
O46    O     0.16666   0.12844   0.18393   0.00000  Uiso   1.00
Zn47   Zn    0.16667   0.21771   0.25000   0.00000  Uiso   1.00
Zn48   Zn    0.16667   0.11563   0.25000   0.00000  Uiso   1.00
N49    N     0.10760   0.05904   0.04514   0.00000  Uiso   1.00
H50    H     0.08504   0.07027   0.06686   0.00000  Uiso   1.00
C51    C     0.09619   0.01783   0.02206   0.00000  Uiso   1.00
H52    H     0.08481   0.32624   0.04656   0.00000  Uiso   1.00
H53    H     0.12392   0.00330   0.00529   0.00000  Uiso   1.00
H54    H     0.07045   0.02419   0.49736   0.00000  Uiso   1.00
N55    N     0.23047   0.27264   0.45740   0.00000  Uiso   1.00
H56    H     0.24744   0.26382   0.42969   0.00000  Uiso   1.00
C57    C     0.20695   0.31389   0.45234   0.00000  Uiso   1.00
H58    H     0.17828   0.30807   0.43136   0.00000  Uiso   1.00
H59    H     0.22676   0.00624   0.43595   0.00000  Uiso   1.00
H60    H     0.19788   0.32704   0.48558   0.00000  Uiso   1.00
O61    O     0.04708   0.15469   0.32760   0.00000  Uiso   1.00
H62    H     0.03039   0.13715   0.34909   0.00000  Uiso   1.00
O63    O     0.28988   0.17356   0.16690   0.00000  Uiso   1.00
H64    H     0.25919   0.17083   0.17070   0.00000  Uiso   1.00
O65    O     0.29040   0.16499   0.32935   0.00000  Uiso   1.00
H66    H     0.30847   0.17792   0.35342   0.00000  Uiso   1.00
O67    O     0.04020   0.17588   0.16656   0.00000  Uiso   1.00
H68    H     0.07114   0.17548   0.17019   0.00000  Uiso   1.00
N69    N     0.20835   0.04863   0.31757   0.00000  Uiso   1.00
H70    H     0.19762   0.04171   0.34913   0.00000  Uiso   1.00
C71    C     0.25348   0.05365   0.31506   0.00000  Uiso   1.00
H72    H     0.26142   0.08955   0.31814   0.00000  Uiso   1.00
H73    H     0.26596   0.04067   0.28300   0.00000  Uiso   1.00
H74    H     0.26917   0.03638   0.34353   0.00000  Uiso   1.00
N75    N     0.11716   0.28393   0.18887   0.00000  Uiso   1.00
H76    H     0.08618   0.28132   0.19805   0.00000  Uiso   1.00
C77    C     0.12423   0.28742   0.14137   0.00000  Uiso   1.00
H78    H     0.10092   0.31049   0.12585   0.00000  Uiso   1.00
H79    H     0.11951   0.25397   0.12568   0.00000  Uiso   1.00
H80    H     0.15667   0.29919   0.13446   0.00000  Uiso   1.00
N81    N     0.11773   0.04849   0.18836   0.00000  Uiso   1.00
H82    H     0.12477   0.04304   0.15539   0.00000  Uiso   1.00
C83    C     0.07311   0.04907   0.19705   0.00000  Uiso   1.00
H84    H     0.05868   0.07852   0.18014   0.00000  Uiso   1.00
H85    H     0.06718   0.05176   0.23347   0.00000  Uiso   1.00
H86    H     0.05769   0.01834   0.18361   0.00000  Uiso   1.00
N87    N     0.20759   0.28614   0.31847   0.00000  Uiso   1.00
H88    H     0.20008   0.29784   0.34976   0.00000  Uiso   1.00
C89    C     0.25165   0.27533   0.31391   0.00000  Uiso   1.00
H90    H     0.27103   0.29469   0.33833   0.00000  Uiso   1.00
H91    H     0.26301   0.28185   0.27958   0.00000  Uiso   1.00
H92    H     0.25617   0.23954   0.32206   0.00000  Uiso   1.00
C93    C     0.42029   0.16665   0.24936   0.00000  Uiso   1.00
C94    C     0.57980   0.16670   0.25036   0.00000  Uiso   1.00
C95    C     0.46248   0.09405   0.02187   0.00000  Uiso   1.00
C96    C     0.54161   0.23712   0.47845   0.00000  Uiso   1.00
C97    C     0.35628   0.16181   0.28938   0.00000  Uiso   1.00
C98    C     0.64423   0.17040   0.20769   0.00000  Uiso   1.00
C99    C     0.64587   0.16422   0.28996   0.00000  Uiso   1.00
C100   C     0.35422   0.17132   0.20748   0.00000  Uiso   1.00
C101   C     0.62399   0.16676   0.24909   0.00000  Uiso   1.00
C102   C     0.37620   0.16673   0.24847   0.00000  Uiso   1.00
C103   C     0.52155   0.02431   0.28235   0.00000  Uiso   1.00
C104   C     0.47697   0.30891   0.21861   0.00000  Uiso   1.00
C105   C     0.47642   0.02396   0.21913   0.00000  Uiso   1.00
C106   C     0.52147   0.30958   0.28248   0.00000  Uiso   1.00
C107   C     0.50009   0.16659   0.16346   0.00000  Uiso   1.00
C108   C     0.50030   0.16668   0.33655   0.00000  Uiso   1.00
C109   C     0.52039   0.20180   0.40758   0.00000  Uiso   1.00
C110   C     0.48170   0.13091   0.09236   0.00000  Uiso   1.00
C111   C     0.50129   0.16640   0.38442   0.00000  Uiso   1.00
C112   C     0.50063   0.16637   0.11559   0.00000  Uiso   1.00
C113   C     0.48356   0.13028   0.40674   0.00000  Uiso   1.00
C114   C     0.52017   0.20143   0.09336   0.00000  Uiso   1.00
C115   C     0.48362   0.12988   0.45291   0.00000  Uiso   1.00
C116   C     0.52074   0.20145   0.04719   0.00000  Uiso   1.00
C117   C     0.50254   0.16574   0.47678   0.00000  Uiso   1.00
C118   C     0.50168   0.16564   0.02325   0.00000  Uiso   1.00
C119   C     0.52201   0.20179   0.45405   0.00000  Uiso   1.00
C120   C     0.48163   0.12994   0.04590   0.00000  Uiso   1.00
C121   C     0.46426   0.09444   0.47512   0.00000  Uiso   1.00
C122   C     0.54044   0.23662   0.02491   0.00000  Uiso   1.00
H123   H     0.53385   0.22899   0.38892   0.00000  Uiso   1.00
H124   H     0.46686   0.10447   0.11095   0.00000  Uiso   1.00
H125   H     0.46878   0.10301   0.38807   0.00000  Uiso   1.00
H126   H     0.53525   0.22846   0.11210   0.00000  Uiso   1.00
H127   H     0.44976   0.06782   0.45551   0.00000  Uiso   1.00
H128   H     0.55545   0.26366   0.04366   0.00000  Uiso   1.00
N129   N     0.50000   0.28573   0.25000   0.00000  Uiso   1.00
N130   N     0.50000   0.04760   0.25000   0.00000  Uiso   1.00
O131   O     0.43892   0.20487   0.24999   0.00000  Uiso   1.00
O132   O     0.56108   0.12846   0.25001   0.00000  Uiso   1.00
O133   O     0.56108   0.20487   0.25001   0.00000  Uiso   1.00
O134   O     0.43892   0.12846   0.24999   0.00000  Uiso   1.00
O135   O     0.49999   0.20489   0.18392   0.00000  Uiso   1.00
O136   O     0.50001   0.12844   0.31607   0.00000  Uiso   1.00
O137   O     0.50001   0.20489   0.31607   0.00000  Uiso   1.00
O138   O     0.49999   0.12844   0.18393   0.00000  Uiso   1.00
Zn139  Zn    0.50000   0.21771   0.25000   0.00000  Uiso   1.00
Zn140  Zn    0.50000   0.11563   0.25000   0.00000  Uiso   1.00
N141   N     0.44094   0.05904   0.04514   0.00000  Uiso   1.00
H142   H     0.41837   0.07027   0.06686   0.00000  Uiso   1.00
C143   C     0.42952   0.01783   0.02206   0.00000  Uiso   1.00
H144   H     0.41814   0.32624   0.04656   0.00000  Uiso   1.00
H145   H     0.45726   0.00330   0.00529   0.00000  Uiso   1.00
H146   H     0.40378   0.02419   0.49736   0.00000  Uiso   1.00
N147   N     0.56381   0.27264   0.45740   0.00000  Uiso   1.00
H148   H     0.58078   0.26382   0.42969   0.00000  Uiso   1.00
C149   C     0.54028   0.31389   0.45234   0.00000  Uiso   1.00
H150   H     0.51161   0.30807   0.43136   0.00000  Uiso   1.00
H151   H     0.56009   0.00624   0.43595   0.00000  Uiso   1.00
H152   H     0.53121   0.32704   0.48558   0.00000  Uiso   1.00
O153   O     0.38041   0.15469   0.32760   0.00000  Uiso   1.00
H154   H     0.36372   0.13715   0.34909   0.00000  Uiso   1.00
O155   O     0.62321   0.17356   0.16690   0.00000  Uiso   1.00
H156   H     0.59252   0.17083   0.17070   0.00000  Uiso   1.00
O157   O     0.62373   0.16499   0.32935   0.00000  Uiso   1.00
H158   H     0.64180   0.17792   0.35342   0.00000  Uiso   1.00
O159   O     0.37353   0.17588   0.16656   0.00000  Uiso   1.00
H160   H     0.40447   0.17548   0.17019   0.00000  Uiso   1.00
N161   N     0.54168   0.04863   0.31757   0.00000  Uiso   1.00
H162   H     0.53096   0.04171   0.34913   0.00000  Uiso   1.00
C163   C     0.58682   0.05365   0.31506   0.00000  Uiso   1.00
H164   H     0.59475   0.08955   0.31814   0.00000  Uiso   1.00
H165   H     0.59929   0.04067   0.28300   0.00000  Uiso   1.00
H166   H     0.60251   0.03638   0.34353   0.00000  Uiso   1.00
N167   N     0.45050   0.28393   0.18887   0.00000  Uiso   1.00
H168   H     0.41952   0.28132   0.19805   0.00000  Uiso   1.00
C169   C     0.45757   0.28742   0.14137   0.00000  Uiso   1.00
H170   H     0.43425   0.31049   0.12585   0.00000  Uiso   1.00
H171   H     0.45284   0.25397   0.12568   0.00000  Uiso   1.00
H172   H     0.49000   0.29919   0.13446   0.00000  Uiso   1.00
N173   N     0.45107   0.04849   0.18836   0.00000  Uiso   1.00
H174   H     0.45810   0.04304   0.15539   0.00000  Uiso   1.00
C175   C     0.40644   0.04907   0.19705   0.00000  Uiso   1.00
H176   H     0.39202   0.07852   0.18014   0.00000  Uiso   1.00
H177   H     0.40052   0.05176   0.23347   0.00000  Uiso   1.00
H178   H     0.39102   0.01834   0.18361   0.00000  Uiso   1.00
N179   N     0.54092   0.28614   0.31847   0.00000  Uiso   1.00
H180   H     0.53341   0.29784   0.34976   0.00000  Uiso   1.00
C181   C     0.58498   0.27533   0.31391   0.00000  Uiso   1.00
H182   H     0.60436   0.29469   0.33833   0.00000  Uiso   1.00
H183   H     0.59635   0.28185   0.27958   0.00000  Uiso   1.00
H184   H     0.58950   0.23954   0.32206   0.00000  Uiso   1.00
C185   C     0.75362   0.16665   0.24936   0.00000  Uiso   1.00
C186   C     0.91314   0.16670   0.25036   0.00000  Uiso   1.00
C187   C     0.79581   0.09405   0.02187   0.00000  Uiso   1.00
C188   C     0.87494   0.23712   0.47845   0.00000  Uiso   1.00
C189   C     0.68961   0.16181   0.28938   0.00000  Uiso   1.00
C190   C     0.97756   0.17040   0.20769   0.00000  Uiso   1.00
C191   C     0.97921   0.16422   0.28996   0.00000  Uiso   1.00
C192   C     0.68756   0.17132   0.20748   0.00000  Uiso   1.00
C193   C     0.95732   0.16676   0.24909   0.00000  Uiso   1.00
C194   C     0.70954   0.16673   0.24847   0.00000  Uiso   1.00
C195   C     0.85488   0.02431   0.28235   0.00000  Uiso   1.00
C196   C     0.81031   0.30891   0.21861   0.00000  Uiso   1.00
C197   C     0.80975   0.02396   0.21913   0.00000  Uiso   1.00
C198   C     0.85480   0.30958   0.28248   0.00000  Uiso   1.00
C199   C     0.83342   0.16659   0.16346   0.00000  Uiso   1.00
C200   C     0.83363   0.16668   0.33655   0.00000  Uiso   1.00
C201   C     0.85373   0.20180   0.40758   0.00000  Uiso   1.00
C202   C     0.81503   0.13091   0.09236   0.00000  Uiso   1.00
C203   C     0.83462   0.16640   0.38442   0.00000  Uiso   1.00
C204   C     0.83396   0.16637   0.11559   0.00000  Uiso   1.00
C205   C     0.81690   0.13028   0.40674   0.00000  Uiso   1.00
C206   C     0.85350   0.20143   0.09336   0.00000  Uiso   1.00
C207   C     0.81695   0.12988   0.45291   0.00000  Uiso   1.00
C208   C     0.85407   0.20145   0.04719   0.00000  Uiso   1.00
C209   C     0.83587   0.16574   0.47678   0.00000  Uiso   1.00
C210   C     0.83501   0.16564   0.02325   0.00000  Uiso   1.00
C211   C     0.85535   0.20179   0.45405   0.00000  Uiso   1.00
C212   C     0.81497   0.12994   0.04590   0.00000  Uiso   1.00
C213   C     0.79760   0.09444   0.47512   0.00000  Uiso   1.00
C214   C     0.87378   0.23662   0.02491   0.00000  Uiso   1.00
H215   H     0.86718   0.22899   0.38892   0.00000  Uiso   1.00
H216   H     0.80019   0.10447   0.11095   0.00000  Uiso   1.00
H217   H     0.80211   0.10301   0.38807   0.00000  Uiso   1.00
H218   H     0.86858   0.22846   0.11210   0.00000  Uiso   1.00
H219   H     0.78309   0.06782   0.45551   0.00000  Uiso   1.00
H220   H     0.88878   0.26366   0.04366   0.00000  Uiso   1.00
N221   N     0.83333   0.28573   0.25000   0.00000  Uiso   1.00
N222   N     0.83333   0.04760   0.25000   0.00000  Uiso   1.00
O223   O     0.77226   0.20487   0.24999   0.00000  Uiso   1.00
O224   O     0.89441   0.12846   0.25001   0.00000  Uiso   1.00
O225   O     0.89441   0.20487   0.25001   0.00000  Uiso   1.00
O226   O     0.77226   0.12846   0.24999   0.00000  Uiso   1.00
O227   O     0.83333   0.20489   0.18392   0.00000  Uiso   1.00
O228   O     0.83334   0.12844   0.31607   0.00000  Uiso   1.00
O229   O     0.83334   0.20489   0.31607   0.00000  Uiso   1.00
O230   O     0.83333   0.12844   0.18393   0.00000  Uiso   1.00
Zn231  Zn    0.83333   0.21771   0.25000   0.00000  Uiso   1.00
Zn232  Zn    0.83333   0.11563   0.25000   0.00000  Uiso   1.00
N233   N     0.77427   0.05904   0.04514   0.00000  Uiso   1.00
H234   H     0.75171   0.07027   0.06686   0.00000  Uiso   1.00
C235   C     0.76286   0.01783   0.02206   0.00000  Uiso   1.00
H236   H     0.75148   0.32624   0.04656   0.00000  Uiso   1.00
H237   H     0.79059   0.00330   0.00529   0.00000  Uiso   1.00
H238   H     0.73711   0.02419   0.49736   0.00000  Uiso   1.00
N239   N     0.89714   0.27264   0.45740   0.00000  Uiso   1.00
H240   H     0.91411   0.26382   0.42969   0.00000  Uiso   1.00
C241   C     0.87362   0.31389   0.45234   0.00000  Uiso   1.00
H242   H     0.84494   0.30807   0.43136   0.00000  Uiso   1.00
H243   H     0.89342   0.00624   0.43595   0.00000  Uiso   1.00
H244   H     0.86455   0.32704   0.48558   0.00000  Uiso   1.00
O245   O     0.71374   0.15469   0.32760   0.00000  Uiso   1.00
H246   H     0.69705   0.13715   0.34909   0.00000  Uiso   1.00
O247   O     0.95654   0.17356   0.16690   0.00000  Uiso   1.00
H248   H     0.92586   0.17083   0.17070   0.00000  Uiso   1.00
O249   O     0.95707   0.16499   0.32935   0.00000  Uiso   1.00
H250   H     0.97513   0.17792   0.35342   0.00000  Uiso   1.00
O251   O     0.70687   0.17588   0.16656   0.00000  Uiso   1.00
H252   H     0.73780   0.17548   0.17019   0.00000  Uiso   1.00
N253   N     0.87501   0.04863   0.31757   0.00000  Uiso   1.00
H254   H     0.86429   0.04171   0.34913   0.00000  Uiso   1.00
C255   C     0.92015   0.05365   0.31506   0.00000  Uiso   1.00
H256   H     0.92808   0.08955   0.31814   0.00000  Uiso   1.00
H257   H     0.93263   0.04067   0.28300   0.00000  Uiso   1.00
H258   H     0.93584   0.03638   0.34353   0.00000  Uiso   1.00
N259   N     0.78383   0.28393   0.18887   0.00000  Uiso   1.00
H260   H     0.75285   0.28132   0.19805   0.00000  Uiso   1.00
C261   C     0.79090   0.28742   0.14137   0.00000  Uiso   1.00
H262   H     0.76758   0.31049   0.12585   0.00000  Uiso   1.00
H263   H     0.78617   0.25397   0.12568   0.00000  Uiso   1.00
H264   H     0.82334   0.29919   0.13446   0.00000  Uiso   1.00
N265   N     0.78440   0.04849   0.18836   0.00000  Uiso   1.00
H266   H     0.79143   0.04304   0.15539   0.00000  Uiso   1.00
C267   C     0.73977   0.04907   0.19705   0.00000  Uiso   1.00
H268   H     0.72535   0.07852   0.18014   0.00000  Uiso   1.00
H269   H     0.73385   0.05176   0.23347   0.00000  Uiso   1.00
H270   H     0.72435   0.01834   0.18361   0.00000  Uiso   1.00
N271   N     0.87426   0.28614   0.31847   0.00000  Uiso   1.00
H272   H     0.86675   0.29784   0.34976   0.00000  Uiso   1.00
C273   C     0.91831   0.27533   0.31391   0.00000  Uiso   1.00
H274   H     0.93769   0.29469   0.33833   0.00000  Uiso   1.00
H275   H     0.92968   0.28185   0.27958   0.00000  Uiso   1.00
H276   H     0.92283   0.23954   0.32206   0.00000  Uiso   1.00
C277   C     0.08695   0.49999   0.24936   0.00000  Uiso   1.00
C278   C     0.24647   0.50004   0.25036   0.00000  Uiso   1.00
C279   C     0.12914   0.42739   0.02187   0.00000  Uiso   1.00
C280   C     0.20827   0.57045   0.47845   0.00000  Uiso   1.00
C281   C     0.02294   0.49515   0.28938   0.00000  Uiso   1.00
C282   C     0.31090   0.50373   0.20769   0.00000  Uiso   1.00
C283   C     0.31254   0.49755   0.28996   0.00000  Uiso   1.00
C284   C     0.02089   0.50465   0.20748   0.00000  Uiso   1.00
C285   C     0.29065   0.50010   0.24909   0.00000  Uiso   1.00
C286   C     0.04287   0.50006   0.24847   0.00000  Uiso   1.00
C287   C     0.18822   0.35765   0.28235   0.00000  Uiso   1.00
C288   C     0.14364   0.64224   0.21861   0.00000  Uiso   1.00
C289   C     0.14309   0.35729   0.21913   0.00000  Uiso   1.00
C290   C     0.18814   0.64291   0.28248   0.00000  Uiso   1.00
C291   C     0.16676   0.49993   0.16346   0.00000  Uiso   1.00
C292   C     0.16697   0.50001   0.33655   0.00000  Uiso   1.00
C293   C     0.18706   0.53514   0.40758   0.00000  Uiso   1.00
C294   C     0.14836   0.46425   0.09236   0.00000  Uiso   1.00
C295   C     0.16795   0.49973   0.38442   0.00000  Uiso   1.00
C296   C     0.16729   0.49971   0.11559   0.00000  Uiso   1.00
C297   C     0.15023   0.46361   0.40674   0.00000  Uiso   1.00
C298   C     0.18684   0.53476   0.09336   0.00000  Uiso   1.00
C299   C     0.15029   0.46322   0.45291   0.00000  Uiso   1.00
C300   C     0.18741   0.53478   0.04719   0.00000  Uiso   1.00
C301   C     0.16920   0.49907   0.47678   0.00000  Uiso   1.00
C302   C     0.16834   0.49897   0.02325   0.00000  Uiso   1.00
C303   C     0.18868   0.53512   0.45405   0.00000  Uiso   1.00
C304   C     0.14830   0.46327   0.04590   0.00000  Uiso   1.00
C305   C     0.13093   0.42777   0.47512   0.00000  Uiso   1.00
C306   C     0.20711   0.56995   0.02491   0.00000  Uiso   1.00
H307   H     0.20051   0.56232   0.38892   0.00000  Uiso   1.00
H308   H     0.13352   0.43780   0.11095   0.00000  Uiso   1.00
H309   H     0.13545   0.43635   0.38807   0.00000  Uiso   1.00
H310   H     0.20191   0.56179   0.11210   0.00000  Uiso   1.00
H311   H     0.11642   0.40116   0.45551   0.00000  Uiso   1.00
H312   H     0.22211   0.59699   0.04366   0.00000  Uiso   1.00
N313   N     0.16667   0.61907   0.25000   0.00000  Uiso   1.00
N314   N     0.16667   0.38093   0.25000   0.00000  Uiso   1.00
O315   O     0.10559   0.53821   0.24999   0.00000  Uiso   1.00
O316   O     0.22774   0.46179   0.25001   0.00000  Uiso   1.00
O317   O     0.22774   0.53821   0.25001   0.00000  Uiso   1.00
O318   O     0.10559   0.46179   0.24999   0.00000  Uiso   1.00
O319   O     0.16666   0.53823   0.18392   0.00000  Uiso   1.00
O320   O     0.16667   0.46177   0.31607   0.00000  Uiso   1.00
O321   O     0.16667   0.53823   0.31607   0.00000  Uiso   1.00
O322   O     0.16666   0.46177   0.18393   0.00000  Uiso   1.00
Zn323  Zn    0.16667   0.55104   0.25000   0.00000  Uiso   1.00
Zn324  Zn    0.16667   0.44896   0.25000   0.00000  Uiso   1.00
N325   N     0.10760   0.39238   0.04514   0.00000  Uiso   1.00
H326   H     0.08504   0.40360   0.06686   0.00000  Uiso   1.00
C327   C     0.09619   0.35116   0.02206   0.00000  Uiso   1.00
H328   H     0.08481   0.65957   0.04656   0.00000  Uiso   1.00
H329   H     0.12392   0.33663   0.00529   0.00000  Uiso   1.00
H330   H     0.07045   0.35752   0.49736   0.00000  Uiso   1.00
N331   N     0.23047   0.60597   0.45740   0.00000  Uiso   1.00
H332   H     0.24744   0.59715   0.42969   0.00000  Uiso   1.00
C333   C     0.20695   0.64723   0.45234   0.00000  Uiso   1.00
H334   H     0.17828   0.64141   0.43136   0.00000  Uiso   1.00
H335   H     0.22676   0.33958   0.43595   0.00000  Uiso   1.00
H336   H     0.19788   0.66037   0.48558   0.00000  Uiso   1.00
O337   O     0.04708   0.48802   0.32760   0.00000  Uiso   1.00
H338   H     0.03039   0.47048   0.34909   0.00000  Uiso   1.00
O339   O     0.28988   0.50689   0.16690   0.00000  Uiso   1.00
H340   H     0.25919   0.50417   0.17070   0.00000  Uiso   1.00
O341   O     0.29040   0.49832   0.32935   0.00000  Uiso   1.00
H342   H     0.30847   0.51126   0.35342   0.00000  Uiso   1.00
O343   O     0.04020   0.50922   0.16656   0.00000  Uiso   1.00
H344   H     0.07114   0.50881   0.17019   0.00000  Uiso   1.00
N345   N     0.20835   0.38196   0.31757   0.00000  Uiso   1.00
H346   H     0.19762   0.37504   0.34913   0.00000  Uiso   1.00
C347   C     0.25348   0.38699   0.31506   0.00000  Uiso   1.00
H348   H     0.26142   0.42288   0.31814   0.00000  Uiso   1.00
H349   H     0.26596   0.37400   0.28300   0.00000  Uiso   1.00
H350   H     0.26917   0.36972   0.34353   0.00000  Uiso   1.00
N351   N     0.11716   0.61726   0.18887   0.00000  Uiso   1.00
H352   H     0.08618   0.61466   0.19805   0.00000  Uiso   1.00
C353   C     0.12423   0.62076   0.14137   0.00000  Uiso   1.00
H354   H     0.10092   0.64382   0.12585   0.00000  Uiso   1.00
H355   H     0.11951   0.58731   0.12568   0.00000  Uiso   1.00
H356   H     0.15667   0.63252   0.13446   0.00000  Uiso   1.00
N357   N     0.11773   0.38182   0.18836   0.00000  Uiso   1.00
H358   H     0.12477   0.37637   0.15539   0.00000  Uiso   1.00
C359   C     0.07311   0.38240   0.19705   0.00000  Uiso   1.00
H360   H     0.05868   0.41185   0.18014   0.00000  Uiso   1.00
H361   H     0.06718   0.38510   0.23347   0.00000  Uiso   1.00
H362   H     0.05769   0.35167   0.18361   0.00000  Uiso   1.00
N363   N     0.20759   0.61947   0.31847   0.00000  Uiso   1.00
H364   H     0.20008   0.63117   0.34976   0.00000  Uiso   1.00
C365   C     0.25165   0.60867   0.31391   0.00000  Uiso   1.00
H366   H     0.27103   0.62802   0.33833   0.00000  Uiso   1.00
H367   H     0.26301   0.61518   0.27958   0.00000  Uiso   1.00
H368   H     0.25617   0.57287   0.32206   0.00000  Uiso   1.00
C369   C     0.42029   0.49999   0.24936   0.00000  Uiso   1.00
C370   C     0.57980   0.50004   0.25036   0.00000  Uiso   1.00
C371   C     0.46248   0.42739   0.02187   0.00000  Uiso   1.00
C372   C     0.54161   0.57045   0.47845   0.00000  Uiso   1.00
C373   C     0.35628   0.49515   0.28938   0.00000  Uiso   1.00
C374   C     0.64423   0.50373   0.20769   0.00000  Uiso   1.00
C375   C     0.64587   0.49755   0.28996   0.00000  Uiso   1.00
C376   C     0.35422   0.50465   0.20748   0.00000  Uiso   1.00
C377   C     0.62399   0.50010   0.24909   0.00000  Uiso   1.00
C378   C     0.37620   0.50006   0.24847   0.00000  Uiso   1.00
C379   C     0.52155   0.35765   0.28235   0.00000  Uiso   1.00
C380   C     0.47697   0.64224   0.21861   0.00000  Uiso   1.00
C381   C     0.47642   0.35729   0.21913   0.00000  Uiso   1.00
C382   C     0.52147   0.64291   0.28248   0.00000  Uiso   1.00
C383   C     0.50009   0.49993   0.16346   0.00000  Uiso   1.00
C384   C     0.50030   0.50001   0.33655   0.00000  Uiso   1.00
C385   C     0.52039   0.53514   0.40758   0.00000  Uiso   1.00
C386   C     0.48170   0.46425   0.09236   0.00000  Uiso   1.00
C387   C     0.50129   0.49973   0.38442   0.00000  Uiso   1.00
C388   C     0.50063   0.49971   0.11559   0.00000  Uiso   1.00
C389   C     0.48356   0.46361   0.40674   0.00000  Uiso   1.00
C390   C     0.52017   0.53476   0.09336   0.00000  Uiso   1.00
C391   C     0.48362   0.46322   0.45291   0.00000  Uiso   1.00
C392   C     0.52074   0.53478   0.04719   0.00000  Uiso   1.00
C393   C     0.50254   0.49907   0.47678   0.00000  Uiso   1.00
C394   C     0.50168   0.49897   0.02325   0.00000  Uiso   1.00
C395   C     0.52201   0.53512   0.45405   0.00000  Uiso   1.00
C396   C     0.48163   0.46327   0.04590   0.00000  Uiso   1.00
C397   C     0.46426   0.42777   0.47512   0.00000  Uiso   1.00
C398   C     0.54044   0.56995   0.02491   0.00000  Uiso   1.00
H399   H     0.53385   0.56232   0.38892   0.00000  Uiso   1.00
H400   H     0.46686   0.43780   0.11095   0.00000  Uiso   1.00
H401   H     0.46878   0.43635   0.38807   0.00000  Uiso   1.00
H402   H     0.53525   0.56179   0.11210   0.00000  Uiso   1.00
H403   H     0.44976   0.40116   0.45551   0.00000  Uiso   1.00
H404   H     0.55545   0.59699   0.04366   0.00000  Uiso   1.00
N405   N     0.50000   0.61907   0.25000   0.00000  Uiso   1.00
N406   N     0.50000   0.38093   0.25000   0.00000  Uiso   1.00
O407   O     0.43892   0.53821   0.24999   0.00000  Uiso   1.00
O408   O     0.56108   0.46179   0.25001   0.00000  Uiso   1.00
O409   O     0.56108   0.53821   0.25001   0.00000  Uiso   1.00
O410   O     0.43892   0.46179   0.24999   0.00000  Uiso   1.00
O411   O     0.49999   0.53823   0.18392   0.00000  Uiso   1.00
O412   O     0.50001   0.46177   0.31607   0.00000  Uiso   1.00
O413   O     0.50001   0.53823   0.31607   0.00000  Uiso   1.00
O414   O     0.49999   0.46177   0.18393   0.00000  Uiso   1.00
Zn415  Zn    0.50000   0.55104   0.25000   0.00000  Uiso   1.00
Zn416  Zn    0.50000   0.44896   0.25000   0.00000  Uiso   1.00
N417   N     0.44094   0.39238   0.04514   0.00000  Uiso   1.00
H418   H     0.41837   0.40360   0.06686   0.00000  Uiso   1.00
C419   C     0.42952   0.35116   0.02206   0.00000  Uiso   1.00
H420   H     0.41814   0.65957   0.04656   0.00000  Uiso   1.00
H421   H     0.45726   0.33663   0.00529   0.00000  Uiso   1.00
H422   H     0.40378   0.35752   0.49736   0.00000  Uiso   1.00
N423   N     0.56381   0.60597   0.45740   0.00000  Uiso   1.00
H424   H     0.58078   0.59715   0.42969   0.00000  Uiso   1.00
C425   C     0.54028   0.64723   0.45234   0.00000  Uiso   1.00
H426   H     0.51161   0.64141   0.43136   0.00000  Uiso   1.00
H427   H     0.56009   0.33958   0.43595   0.00000  Uiso   1.00
H428   H     0.53121   0.66037   0.48558   0.00000  Uiso   1.00
O429   O     0.38041   0.48802   0.32760   0.00000  Uiso   1.00
H430   H     0.36372   0.47048   0.34909   0.00000  Uiso   1.00
O431   O     0.62321   0.50689   0.16690   0.00000  Uiso   1.00
H432   H     0.59252   0.50417   0.17070   0.00000  Uiso   1.00
O433   O     0.62373   0.49832   0.32935   0.00000  Uiso   1.00
H434   H     0.64180   0.51126   0.35342   0.00000  Uiso   1.00
O435   O     0.37353   0.50922   0.16656   0.00000  Uiso   1.00
H436   H     0.40447   0.50881   0.17019   0.00000  Uiso   1.00
N437   N     0.54168   0.38196   0.31757   0.00000  Uiso   1.00
H438   H     0.53096   0.37504   0.34913   0.00000  Uiso   1.00
C439   C     0.58682   0.38699   0.31506   0.00000  Uiso   1.00
H440   H     0.59475   0.42288   0.31814   0.00000  Uiso   1.00
H441   H     0.59929   0.37400   0.28300   0.00000  Uiso   1.00
H442   H     0.60251   0.36972   0.34353   0.00000  Uiso   1.00
N443   N     0.45050   0.61726   0.18887   0.00000  Uiso   1.00
H444   H     0.41952   0.61466   0.19805   0.00000  Uiso   1.00
C445   C     0.45757   0.62076   0.14137   0.00000  Uiso   1.00
H446   H     0.43425   0.64382   0.12585   0.00000  Uiso   1.00
H447   H     0.45284   0.58731   0.12568   0.00000  Uiso   1.00
H448   H     0.49000   0.63252   0.13446   0.00000  Uiso   1.00
N449   N     0.45107   0.38182   0.18836   0.00000  Uiso   1.00
H450   H     0.45810   0.37637   0.15539   0.00000  Uiso   1.00
C451   C     0.40644   0.38240   0.19705   0.00000  Uiso   1.00
H452   H     0.39202   0.41185   0.18014   0.00000  Uiso   1.00
H453   H     0.40052   0.38510   0.23347   0.00000  Uiso   1.00
H454   H     0.39102   0.35167   0.18361   0.00000  Uiso   1.00
N455   N     0.54092   0.61947   0.31847   0.00000  Uiso   1.00
H456   H     0.53341   0.63117   0.34976   0.00000  Uiso   1.00
C457   C     0.58498   0.60867   0.31391   0.00000  Uiso   1.00
H458   H     0.60436   0.62802   0.33833   0.00000  Uiso   1.00
H459   H     0.59635   0.61518   0.27958   0.00000  Uiso   1.00
H460   H     0.58950   0.57287   0.32206   0.00000  Uiso   1.00
C461   C     0.75362   0.49999   0.24936   0.00000  Uiso   1.00
C462   C     0.91314   0.50004   0.25036   0.00000  Uiso   1.00
C463   C     0.79581   0.42739   0.02187   0.00000  Uiso   1.00
C464   C     0.87494   0.57045   0.47845   0.00000  Uiso   1.00
C465   C     0.68961   0.49515   0.28938   0.00000  Uiso   1.00
C466   C     0.97756   0.50373   0.20769   0.00000  Uiso   1.00
C467   C     0.97921   0.49755   0.28996   0.00000  Uiso   1.00
C468   C     0.68756   0.50465   0.20748   0.00000  Uiso   1.00
C469   C     0.95732   0.50010   0.24909   0.00000  Uiso   1.00
C470   C     0.70954   0.50006   0.24847   0.00000  Uiso   1.00
C471   C     0.85488   0.35765   0.28235   0.00000  Uiso   1.00
C472   C     0.81031   0.64224   0.21861   0.00000  Uiso   1.00
C473   C     0.80975   0.35729   0.21913   0.00000  Uiso   1.00
C474   C     0.85480   0.64291   0.28248   0.00000  Uiso   1.00
C475   C     0.83342   0.49993   0.16346   0.00000  Uiso   1.00
C476   C     0.83363   0.50001   0.33655   0.00000  Uiso   1.00
C477   C     0.85373   0.53514   0.40758   0.00000  Uiso   1.00
C478   C     0.81503   0.46425   0.09236   0.00000  Uiso   1.00
C479   C     0.83462   0.49973   0.38442   0.00000  Uiso   1.00
C480   C     0.83396   0.49971   0.11559   0.00000  Uiso   1.00
C481   C     0.81690   0.46361   0.40674   0.00000  Uiso   1.00
C482   C     0.85350   0.53476   0.09336   0.00000  Uiso   1.00
C483   C     0.81695   0.46322   0.45291   0.00000  Uiso   1.00
C484   C     0.85407   0.53478   0.04719   0.00000  Uiso   1.00
C485   C     0.83587   0.49907   0.47678   0.00000  Uiso   1.00
C486   C     0.83501   0.49897   0.02325   0.00000  Uiso   1.00
C487   C     0.85535   0.53512   0.45405   0.00000  Uiso   1.00
C488   C     0.81497   0.46327   0.04590   0.00000  Uiso   1.00
C489   C     0.79760   0.42777   0.47512   0.00000  Uiso   1.00
C490   C     0.87378   0.56995   0.02491   0.00000  Uiso   1.00
H491   H     0.86718   0.56232   0.38892   0.00000  Uiso   1.00
H492   H     0.80019   0.43780   0.11095   0.00000  Uiso   1.00
H493   H     0.80211   0.43635   0.38807   0.00000  Uiso   1.00
H494   H     0.86858   0.56179   0.11210   0.00000  Uiso   1.00
H495   H     0.78309   0.40116   0.45551   0.00000  Uiso   1.00
H496   H     0.88878   0.59699   0.04366   0.00000  Uiso   1.00
N497   N     0.83333   0.61907   0.25000   0.00000  Uiso   1.00
N498   N     0.83333   0.38093   0.25000   0.00000  Uiso   1.00
O499   O     0.77226   0.53821   0.24999   0.00000  Uiso   1.00
O500   O     0.89441   0.46179   0.25001   0.00000  Uiso   1.00
O501   O     0.89441   0.53821   0.25001   0.00000  Uiso   1.00
O502   O     0.77226   0.46179   0.24999   0.00000  Uiso   1.00
O503   O     0.83333   0.53823   0.18392   0.00000  Uiso   1.00
O504   O     0.83334   0.46177   0.31607   0.00000  Uiso   1.00
O505   O     0.83334   0.53823   0.31607   0.00000  Uiso   1.00
O506   O     0.83333   0.46177   0.18393   0.00000  Uiso   1.00
Zn507  Zn    0.83333   0.55104   0.25000   0.00000  Uiso   1.00
Zn508  Zn    0.83333   0.44896   0.25000   0.00000  Uiso   1.00
N509   N     0.77427   0.39238   0.04514   0.00000  Uiso   1.00
H510   H     0.75171   0.40360   0.06686   0.00000  Uiso   1.00
C511   C     0.76286   0.35116   0.02206   0.00000  Uiso   1.00
H512   H     0.75148   0.65957   0.04656   0.00000  Uiso   1.00
H513   H     0.79059   0.33663   0.00529   0.00000  Uiso   1.00
H514   H     0.73711   0.35752   0.49736   0.00000  Uiso   1.00
N515   N     0.89714   0.60597   0.45740   0.00000  Uiso   1.00
H516   H     0.91411   0.59715   0.42969   0.00000  Uiso   1.00
C517   C     0.87362   0.64723   0.45234   0.00000  Uiso   1.00
H518   H     0.84494   0.64141   0.43136   0.00000  Uiso   1.00
H519   H     0.89342   0.33958   0.43595   0.00000  Uiso   1.00
H520   H     0.86455   0.66037   0.48558   0.00000  Uiso   1.00
O521   O     0.71374   0.48802   0.32760   0.00000  Uiso   1.00
H522   H     0.69705   0.47048   0.34909   0.00000  Uiso   1.00
O523   O     0.95654   0.50689   0.16690   0.00000  Uiso   1.00
H524   H     0.92586   0.50417   0.17070   0.00000  Uiso   1.00
O525   O     0.95707   0.49832   0.32935   0.00000  Uiso   1.00
H526   H     0.97513   0.51126   0.35342   0.00000  Uiso   1.00
O527   O     0.70687   0.50922   0.16656   0.00000  Uiso   1.00
H528   H     0.73780   0.50881   0.17019   0.00000  Uiso   1.00
N529   N     0.87501   0.38196   0.31757   0.00000  Uiso   1.00
H530   H     0.86429   0.37504   0.34913   0.00000  Uiso   1.00
C531   C     0.92015   0.38699   0.31506   0.00000  Uiso   1.00
H532   H     0.92808   0.42288   0.31814   0.00000  Uiso   1.00
H533   H     0.93263   0.37400   0.28300   0.00000  Uiso   1.00
H534   H     0.93584   0.36972   0.34353   0.00000  Uiso   1.00
N535   N     0.78383   0.61726   0.18887   0.00000  Uiso   1.00
H536   H     0.75285   0.61466   0.19805   0.00000  Uiso   1.00
C537   C     0.79090   0.62076   0.14137   0.00000  Uiso   1.00
H538   H     0.76758   0.64382   0.12585   0.00000  Uiso   1.00
H539   H     0.78617   0.58731   0.12568   0.00000  Uiso   1.00
H540   H     0.82334   0.63252   0.13446   0.00000  Uiso   1.00
N541   N     0.78440   0.38182   0.18836   0.00000  Uiso   1.00
H542   H     0.79143   0.37637   0.15539   0.00000  Uiso   1.00
C543   C     0.73977   0.38240   0.19705   0.00000  Uiso   1.00
H544   H     0.72535   0.41185   0.18014   0.00000  Uiso   1.00
H545   H     0.73385   0.38510   0.23347   0.00000  Uiso   1.00
H546   H     0.72435   0.35167   0.18361   0.00000  Uiso   1.00
N547   N     0.87426   0.61947   0.31847   0.00000  Uiso   1.00
H548   H     0.86675   0.63117   0.34976   0.00000  Uiso   1.00
C549   C     0.91831   0.60867   0.31391   0.00000  Uiso   1.00
H550   H     0.93769   0.62802   0.33833   0.00000  Uiso   1.00
H551   H     0.92968   0.61518   0.27958   0.00000  Uiso   1.00
H552   H     0.92283   0.57287   0.32206   0.00000  Uiso   1.00
C553   C     0.08695   0.83332   0.24936   0.00000  Uiso   1.00
C554   C     0.24647   0.83337   0.25036   0.00000  Uiso   1.00
C555   C     0.12914   0.76072   0.02187   0.00000  Uiso   1.00
C556   C     0.20827   0.90378   0.47845   0.00000  Uiso   1.00
C557   C     0.02294   0.82848   0.28938   0.00000  Uiso   1.00
C558   C     0.31090   0.83706   0.20769   0.00000  Uiso   1.00
C559   C     0.31254   0.83089   0.28996   0.00000  Uiso   1.00
C560   C     0.02089   0.83799   0.20748   0.00000  Uiso   1.00
C561   C     0.29065   0.83343   0.24909   0.00000  Uiso   1.00
C562   C     0.04287   0.83340   0.24847   0.00000  Uiso   1.00
C563   C     0.18822   0.69098   0.28235   0.00000  Uiso   1.00
C564   C     0.14364   0.97558   0.21861   0.00000  Uiso   1.00
C565   C     0.14309   0.69063   0.21913   0.00000  Uiso   1.00
C566   C     0.18814   0.97625   0.28248   0.00000  Uiso   1.00
C567   C     0.16676   0.83326   0.16346   0.00000  Uiso   1.00
C568   C     0.16697   0.83335   0.33655   0.00000  Uiso   1.00
C569   C     0.18706   0.86847   0.40758   0.00000  Uiso   1.00
C570   C     0.14836   0.79758   0.09236   0.00000  Uiso   1.00
C571   C     0.16795   0.83306   0.38442   0.00000  Uiso   1.00
C572   C     0.16729   0.83304   0.11559   0.00000  Uiso   1.00
C573   C     0.15023   0.79695   0.40674   0.00000  Uiso   1.00
C574   C     0.18684   0.86810   0.09336   0.00000  Uiso   1.00
C575   C     0.15029   0.79655   0.45291   0.00000  Uiso   1.00
C576   C     0.18741   0.86811   0.04719   0.00000  Uiso   1.00
C577   C     0.16920   0.83241   0.47678   0.00000  Uiso   1.00
C578   C     0.16834   0.83230   0.02325   0.00000  Uiso   1.00
C579   C     0.18868   0.86845   0.45405   0.00000  Uiso   1.00
C580   C     0.14830   0.79660   0.04590   0.00000  Uiso   1.00
C581   C     0.13093   0.76110   0.47512   0.00000  Uiso   1.00
C582   C     0.20711   0.90328   0.02491   0.00000  Uiso   1.00
H583   H     0.20051   0.89566   0.38892   0.00000  Uiso   1.00
H584   H     0.13352   0.77113   0.11095   0.00000  Uiso   1.00
H585   H     0.13545   0.76968   0.38807   0.00000  Uiso   1.00
H586   H     0.20191   0.89512   0.11210   0.00000  Uiso   1.00
H587   H     0.11642   0.73449   0.45551   0.00000  Uiso   1.00
H588   H     0.22211   0.93032   0.04366   0.00000  Uiso   1.00
N589   N     0.16667   0.95240   0.25000   0.00000  Uiso   1.00
N590   N     0.16667   0.71427   0.25000   0.00000  Uiso   1.00
O591   O     0.10559   0.87154   0.24999   0.00000  Uiso   1.00
O592   O     0.22774   0.79513   0.25001   0.00000  Uiso   1.00
O593   O     0.22774   0.87154   0.25001   0.00000  Uiso   1.00
O594   O     0.10559   0.79513   0.24999   0.00000  Uiso   1.00
O595   O     0.16666   0.87156   0.18392   0.00000  Uiso   1.00
O596   O     0.16667   0.79511   0.31607   0.00000  Uiso   1.00
O597   O     0.16667   0.87156   0.31607   0.00000  Uiso   1.00
O598   O     0.16666   0.79511   0.18393   0.00000  Uiso   1.00
Zn599  Zn    0.16667   0.88437   0.25000   0.00000  Uiso   1.00
Zn600  Zn    0.16667   0.78229   0.25000   0.00000  Uiso   1.00
N601   N     0.10760   0.72571   0.04514   0.00000  Uiso   1.00
H602   H     0.08504   0.73693   0.06686   0.00000  Uiso   1.00
C603   C     0.09619   0.68450   0.02206   0.00000  Uiso   1.00
H604   H     0.08481   0.99291   0.04656   0.00000  Uiso   1.00
H605   H     0.12392   0.66996   0.00529   0.00000  Uiso   1.00
H606   H     0.07045   0.69086   0.49736   0.00000  Uiso   1.00
N607   N     0.23047   0.93930   0.45740   0.00000  Uiso   1.00
H608   H     0.24744   0.93049   0.42969   0.00000  Uiso   1.00
C609   C     0.20695   0.98056   0.45234   0.00000  Uiso   1.00
H610   H     0.17828   0.97474   0.43136   0.00000  Uiso   1.00
H611   H     0.22676   0.67291   0.43595   0.00000  Uiso   1.00
H612   H     0.19788   0.99371   0.48558   0.00000  Uiso   1.00
O613   O     0.04708   0.82135   0.32760   0.00000  Uiso   1.00
H614   H     0.03039   0.80382   0.34909   0.00000  Uiso   1.00
O615   O     0.28988   0.84022   0.16690   0.00000  Uiso   1.00
H616   H     0.25919   0.83750   0.17070   0.00000  Uiso   1.00
O617   O     0.29040   0.83165   0.32935   0.00000  Uiso   1.00
H618   H     0.30847   0.84459   0.35342   0.00000  Uiso   1.00
O619   O     0.04020   0.84255   0.16656   0.00000  Uiso   1.00
H620   H     0.07114   0.84215   0.17019   0.00000  Uiso   1.00
N621   N     0.20835   0.71529   0.31757   0.00000  Uiso   1.00
H622   H     0.19762   0.70838   0.34913   0.00000  Uiso   1.00
C623   C     0.25348   0.72032   0.31506   0.00000  Uiso   1.00
H624   H     0.26142   0.75622   0.31814   0.00000  Uiso   1.00
H625   H     0.26596   0.70733   0.28300   0.00000  Uiso   1.00
H626   H     0.26917   0.70305   0.34353   0.00000  Uiso   1.00
N627   N     0.11716   0.95059   0.18887   0.00000  Uiso   1.00
H628   H     0.08618   0.94799   0.19805   0.00000  Uiso   1.00
C629   C     0.12423   0.95409   0.14137   0.00000  Uiso   1.00
H630   H     0.10092   0.97715   0.12585   0.00000  Uiso   1.00
H631   H     0.11951   0.92064   0.12568   0.00000  Uiso   1.00
H632   H     0.15667   0.96586   0.13446   0.00000  Uiso   1.00
N633   N     0.11773   0.71515   0.18836   0.00000  Uiso   1.00
H634   H     0.12477   0.70970   0.15539   0.00000  Uiso   1.00
C635   C     0.07311   0.71574   0.19705   0.00000  Uiso   1.00
H636   H     0.05868   0.74519   0.18014   0.00000  Uiso   1.00
H637   H     0.06718   0.71843   0.23347   0.00000  Uiso   1.00
H638   H     0.05769   0.68500   0.18361   0.00000  Uiso   1.00
N639   N     0.20759   0.95280   0.31847   0.00000  Uiso   1.00
H640   H     0.20008   0.96451   0.34976   0.00000  Uiso   1.00
C641   C     0.25165   0.94200   0.31391   0.00000  Uiso   1.00
H642   H     0.27103   0.96136   0.33833   0.00000  Uiso   1.00
H643   H     0.26301   0.94852   0.27958   0.00000  Uiso   1.00
H644   H     0.25617   0.90620   0.32206   0.00000  Uiso   1.00
C645   C     0.42029   0.83332   0.24936   0.00000  Uiso   1.00
C646   C     0.57980   0.83337   0.25036   0.00000  Uiso   1.00
C647   C     0.46248   0.76072   0.02187   0.00000  Uiso   1.00
C648   C     0.54161   0.90378   0.47845   0.00000  Uiso   1.00
C649   C     0.35628   0.82848   0.28938   0.00000  Uiso   1.00
C650   C     0.64423   0.83706   0.20769   0.00000  Uiso   1.00
C651   C     0.64587   0.83089   0.28996   0.00000  Uiso   1.00
C652   C     0.35422   0.83799   0.20748   0.00000  Uiso   1.00
C653   C     0.62399   0.83343   0.24909   0.00000  Uiso   1.00
C654   C     0.37620   0.83340   0.24847   0.00000  Uiso   1.00
C655   C     0.52155   0.69098   0.28235   0.00000  Uiso   1.00
C656   C     0.47697   0.97558   0.21861   0.00000  Uiso   1.00
C657   C     0.47642   0.69063   0.21913   0.00000  Uiso   1.00
C658   C     0.52147   0.97625   0.28248   0.00000  Uiso   1.00
C659   C     0.50009   0.83326   0.16346   0.00000  Uiso   1.00
C660   C     0.50030   0.83335   0.33655   0.00000  Uiso   1.00
C661   C     0.52039   0.86847   0.40758   0.00000  Uiso   1.00
C662   C     0.48170   0.79758   0.09236   0.00000  Uiso   1.00
C663   C     0.50129   0.83306   0.38442   0.00000  Uiso   1.00
C664   C     0.50063   0.83304   0.11559   0.00000  Uiso   1.00
C665   C     0.48356   0.79695   0.40674   0.00000  Uiso   1.00
C666   C     0.52017   0.86810   0.09336   0.00000  Uiso   1.00
C667   C     0.48362   0.79655   0.45291   0.00000  Uiso   1.00
C668   C     0.52074   0.86811   0.04719   0.00000  Uiso   1.00
C669   C     0.50254   0.83241   0.47678   0.00000  Uiso   1.00
C670   C     0.50168   0.83230   0.02325   0.00000  Uiso   1.00
C671   C     0.52201   0.86845   0.45405   0.00000  Uiso   1.00
C672   C     0.48163   0.79660   0.04590   0.00000  Uiso   1.00
C673   C     0.46426   0.76110   0.47512   0.00000  Uiso   1.00
C674   C     0.54044   0.90328   0.02491   0.00000  Uiso   1.00
H675   H     0.53385   0.89566   0.38892   0.00000  Uiso   1.00
H676   H     0.46686   0.77113   0.11095   0.00000  Uiso   1.00
H677   H     0.46878   0.76968   0.38807   0.00000  Uiso   1.00
H678   H     0.53525   0.89512   0.11210   0.00000  Uiso   1.00
H679   H     0.44976   0.73449   0.45551   0.00000  Uiso   1.00
H680   H     0.55545   0.93032   0.04366   0.00000  Uiso   1.00
N681   N     0.50000   0.95240   0.25000   0.00000  Uiso   1.00
N682   N     0.50000   0.71427   0.25000   0.00000  Uiso   1.00
O683   O     0.43892   0.87154   0.24999   0.00000  Uiso   1.00
O684   O     0.56108   0.79513   0.25001   0.00000  Uiso   1.00
O685   O     0.56108   0.87154   0.25001   0.00000  Uiso   1.00
O686   O     0.43892   0.79513   0.24999   0.00000  Uiso   1.00
O687   O     0.49999   0.87156   0.18392   0.00000  Uiso   1.00
O688   O     0.50001   0.79511   0.31607   0.00000  Uiso   1.00
O689   O     0.50001   0.87156   0.31607   0.00000  Uiso   1.00
O690   O     0.49999   0.79511   0.18393   0.00000  Uiso   1.00
Zn691  Zn    0.50000   0.88437   0.25000   0.00000  Uiso   1.00
Zn692  Zn    0.50000   0.78229   0.25000   0.00000  Uiso   1.00
N693   N     0.44094   0.72571   0.04514   0.00000  Uiso   1.00
H694   H     0.41837   0.73693   0.06686   0.00000  Uiso   1.00
C695   C     0.42952   0.68450   0.02206   0.00000  Uiso   1.00
H696   H     0.41814   0.99291   0.04656   0.00000  Uiso   1.00
H697   H     0.45726   0.66996   0.00529   0.00000  Uiso   1.00
H698   H     0.40378   0.69086   0.49736   0.00000  Uiso   1.00
N699   N     0.56381   0.93930   0.45740   0.00000  Uiso   1.00
H700   H     0.58078   0.93049   0.42969   0.00000  Uiso   1.00
C701   C     0.54028   0.98056   0.45234   0.00000  Uiso   1.00
H702   H     0.51161   0.97474   0.43136   0.00000  Uiso   1.00
H703   H     0.56009   0.67291   0.43595   0.00000  Uiso   1.00
H704   H     0.53121   0.99371   0.48558   0.00000  Uiso   1.00
O705   O     0.38041   0.82135   0.32760   0.00000  Uiso   1.00
H706   H     0.36372   0.80382   0.34909   0.00000  Uiso   1.00
O707   O     0.62321   0.84022   0.16690   0.00000  Uiso   1.00
H708   H     0.59252   0.83750   0.17070   0.00000  Uiso   1.00
O709   O     0.62373   0.83165   0.32935   0.00000  Uiso   1.00
H710   H     0.64180   0.84459   0.35342   0.00000  Uiso   1.00
O711   O     0.37353   0.84255   0.16656   0.00000  Uiso   1.00
H712   H     0.40447   0.84215   0.17019   0.00000  Uiso   1.00
N713   N     0.54168   0.71529   0.31757   0.00000  Uiso   1.00
H714   H     0.53096   0.70838   0.34913   0.00000  Uiso   1.00
C715   C     0.58682   0.72032   0.31506   0.00000  Uiso   1.00
H716   H     0.59475   0.75622   0.31814   0.00000  Uiso   1.00
H717   H     0.59929   0.70733   0.28300   0.00000  Uiso   1.00
H718   H     0.60251   0.70305   0.34353   0.00000  Uiso   1.00
N719   N     0.45050   0.95059   0.18887   0.00000  Uiso   1.00
H720   H     0.41952   0.94799   0.19805   0.00000  Uiso   1.00
C721   C     0.45757   0.95409   0.14137   0.00000  Uiso   1.00
H722   H     0.43425   0.97715   0.12585   0.00000  Uiso   1.00
H723   H     0.45284   0.92064   0.12568   0.00000  Uiso   1.00
H724   H     0.49000   0.96586   0.13446   0.00000  Uiso   1.00
N725   N     0.45107   0.71515   0.18836   0.00000  Uiso   1.00
H726   H     0.45810   0.70970   0.15539   0.00000  Uiso   1.00
C727   C     0.40644   0.71574   0.19705   0.00000  Uiso   1.00
H728   H     0.39202   0.74519   0.18014   0.00000  Uiso   1.00
H729   H     0.40052   0.71843   0.23347   0.00000  Uiso   1.00
H730   H     0.39102   0.68500   0.18361   0.00000  Uiso   1.00
N731   N     0.54092   0.95280   0.31847   0.00000  Uiso   1.00
H732   H     0.53341   0.96451   0.34976   0.00000  Uiso   1.00
C733   C     0.58498   0.94200   0.31391   0.00000  Uiso   1.00
H734   H     0.60436   0.96136   0.33833   0.00000  Uiso   1.00
H735   H     0.59635   0.94852   0.27958   0.00000  Uiso   1.00
H736   H     0.58950   0.90620   0.32206   0.00000  Uiso   1.00
C737   C     0.75362   0.83332   0.24936   0.00000  Uiso   1.00
C738   C     0.91314   0.83337   0.25036   0.00000  Uiso   1.00
C739   C     0.79581   0.76072   0.02187   0.00000  Uiso   1.00
C740   C     0.87494   0.90378   0.47845   0.00000  Uiso   1.00
C741   C     0.68961   0.82848   0.28938   0.00000  Uiso   1.00
C742   C     0.97756   0.83706   0.20769   0.00000  Uiso   1.00
C743   C     0.97921   0.83089   0.28996   0.00000  Uiso   1.00
C744   C     0.68756   0.83799   0.20748   0.00000  Uiso   1.00
C745   C     0.95732   0.83343   0.24909   0.00000  Uiso   1.00
C746   C     0.70954   0.83340   0.24847   0.00000  Uiso   1.00
C747   C     0.85488   0.69098   0.28235   0.00000  Uiso   1.00
C748   C     0.81031   0.97558   0.21861   0.00000  Uiso   1.00
C749   C     0.80975   0.69063   0.21913   0.00000  Uiso   1.00
C750   C     0.85480   0.97625   0.28248   0.00000  Uiso   1.00
C751   C     0.83342   0.83326   0.16346   0.00000  Uiso   1.00
C752   C     0.83363   0.83335   0.33655   0.00000  Uiso   1.00
C753   C     0.85373   0.86847   0.40758   0.00000  Uiso   1.00
C754   C     0.81503   0.79758   0.09236   0.00000  Uiso   1.00
C755   C     0.83462   0.83306   0.38442   0.00000  Uiso   1.00
C756   C     0.83396   0.83304   0.11559   0.00000  Uiso   1.00
C757   C     0.81690   0.79695   0.40674   0.00000  Uiso   1.00
C758   C     0.85350   0.86810   0.09336   0.00000  Uiso   1.00
C759   C     0.81695   0.79655   0.45291   0.00000  Uiso   1.00
C760   C     0.85407   0.86811   0.04719   0.00000  Uiso   1.00
C761   C     0.83587   0.83241   0.47678   0.00000  Uiso   1.00
C762   C     0.83501   0.83230   0.02325   0.00000  Uiso   1.00
C763   C     0.85535   0.86845   0.45405   0.00000  Uiso   1.00
C764   C     0.81497   0.79660   0.04590   0.00000  Uiso   1.00
C765   C     0.79760   0.76110   0.47512   0.00000  Uiso   1.00
C766   C     0.87378   0.90328   0.02491   0.00000  Uiso   1.00
H767   H     0.86718   0.89566   0.38892   0.00000  Uiso   1.00
H768   H     0.80019   0.77113   0.11095   0.00000  Uiso   1.00
H769   H     0.80211   0.76968   0.38807   0.00000  Uiso   1.00
H770   H     0.86858   0.89512   0.11210   0.00000  Uiso   1.00
H771   H     0.78309   0.73449   0.45551   0.00000  Uiso   1.00
H772   H     0.88878   0.93032   0.04366   0.00000  Uiso   1.00
N773   N     0.83333   0.95240   0.25000   0.00000  Uiso   1.00
N774   N     0.83333   0.71427   0.25000   0.00000  Uiso   1.00
O775   O     0.77226   0.87154   0.24999   0.00000  Uiso   1.00
O776   O     0.89441   0.79513   0.25001   0.00000  Uiso   1.00
O777   O     0.89441   0.87154   0.25001   0.00000  Uiso   1.00
O778   O     0.77226   0.79513   0.24999   0.00000  Uiso   1.00
O779   O     0.83333   0.87156   0.18392   0.00000  Uiso   1.00
O780   O     0.83334   0.79511   0.31607   0.00000  Uiso   1.00
O781   O     0.83334   0.87156   0.31607   0.00000  Uiso   1.00
O782   O     0.83333   0.79511   0.18393   0.00000  Uiso   1.00
Zn783  Zn    0.83333   0.88437   0.25000   0.00000  Uiso   1.00
Zn784  Zn    0.83333   0.78229   0.25000   0.00000  Uiso   1.00
N785   N     0.77427   0.72571   0.04514   0.00000  Uiso   1.00
H786   H     0.75171   0.73693   0.06686   0.00000  Uiso   1.00
C787   C     0.76286   0.68450   0.02206   0.00000  Uiso   1.00
H788   H     0.75148   0.99291   0.04656   0.00000  Uiso   1.00
H789   H     0.79059   0.66996   0.00529   0.00000  Uiso   1.00
H790   H     0.73711   0.69086   0.49736   0.00000  Uiso   1.00
N791   N     0.89714   0.93930   0.45740   0.00000  Uiso   1.00
H792   H     0.91411   0.93049   0.42969   0.00000  Uiso   1.00
C793   C     0.87362   0.98056   0.45234   0.00000  Uiso   1.00
H794   H     0.84494   0.97474   0.43136   0.00000  Uiso   1.00
H795   H     0.89342   0.67291   0.43595   0.00000  Uiso   1.00
H796   H     0.86455   0.99371   0.48558   0.00000  Uiso   1.00
O797   O     0.71374   0.82135   0.32760   0.00000  Uiso   1.00
H798   H     0.69705   0.80382   0.34909   0.00000  Uiso   1.00
O799   O     0.95654   0.84022   0.16690   0.00000  Uiso   1.00
H800   H     0.92586   0.83750   0.17070   0.00000  Uiso   1.00
O801   O     0.95707   0.83165   0.32935   0.00000  Uiso   1.00
H802   H     0.97513   0.84459   0.35342   0.00000  Uiso   1.00
O803   O     0.70687   0.84255   0.16656   0.00000  Uiso   1.00
H804   H     0.73780   0.84215   0.17019   0.00000  Uiso   1.00
N805   N     0.87501   0.71529   0.31757   0.00000  Uiso   1.00
H806   H     0.86429   0.70838   0.34913   0.00000  Uiso   1.00
C807   C     0.92015   0.72032   0.31506   0.00000  Uiso   1.00
H808   H     0.92808   0.75622   0.31814   0.00000  Uiso   1.00
H809   H     0.93263   0.70733   0.28300   0.00000  Uiso   1.00
H810   H     0.93584   0.70305   0.34353   0.00000  Uiso   1.00
N811   N     0.78383   0.95059   0.18887   0.00000  Uiso   1.00
H812   H     0.75285   0.94799   0.19805   0.00000  Uiso   1.00
C813   C     0.79090   0.95409   0.14137   0.00000  Uiso   1.00
H814   H     0.76758   0.97715   0.12585   0.00000  Uiso   1.00
H815   H     0.78617   0.92064   0.12568   0.00000  Uiso   1.00
H816   H     0.82334   0.96586   0.13446   0.00000  Uiso   1.00
N817   N     0.78440   0.71515   0.18836   0.00000  Uiso   1.00
H818   H     0.79143   0.70970   0.15539   0.00000  Uiso   1.00
C819   C     0.73977   0.71574   0.19705   0.00000  Uiso   1.00
H820   H     0.72535   0.74519   0.18014   0.00000  Uiso   1.00
H821   H     0.73385   0.71843   0.23347   0.00000  Uiso   1.00
H822   H     0.72435   0.68500   0.18361   0.00000  Uiso   1.00
N823   N     0.87426   0.95280   0.31847   0.00000  Uiso   1.00
H824   H     0.86675   0.96451   0.34976   0.00000  Uiso   1.00
C825   C     0.91831   0.94200   0.31391   0.00000  Uiso   1.00
H826   H     0.93769   0.96136   0.33833   0.00000  Uiso   1.00
H827   H     0.92968   0.94852   0.27958   0.00000  Uiso   1.00
H828   H     0.92283   0.90620   0.32206   0.00000  Uiso   1.00
C829   C     0.08695   0.16665   0.74936   0.00000  Uiso   1.00
C830   C     0.24647   0.16670   0.75036   0.00000  Uiso   1.00
C831   C     0.12914   0.09405   0.52187   0.00000  Uiso   1.00
C832   C     0.20827   0.23712   0.97845   0.00000  Uiso   1.00
C833   C     0.02294   0.16181   0.78938   0.00000  Uiso   1.00
C834   C     0.31090   0.17040   0.70769   0.00000  Uiso   1.00
C835   C     0.31254   0.16422   0.78996   0.00000  Uiso   1.00
C836   C     0.02089   0.17132   0.70748   0.00000  Uiso   1.00
C837   C     0.29065   0.16676   0.74909   0.00000  Uiso   1.00
C838   C     0.04287   0.16673   0.74847   0.00000  Uiso   1.00
C839   C     0.18822   0.02431   0.78235   0.00000  Uiso   1.00
C840   C     0.14364   0.30891   0.71861   0.00000  Uiso   1.00
C841   C     0.14309   0.02396   0.71913   0.00000  Uiso   1.00
C842   C     0.18814   0.30958   0.78248   0.00000  Uiso   1.00
C843   C     0.16676   0.16659   0.66346   0.00000  Uiso   1.00
C844   C     0.16697   0.16668   0.83655   0.00000  Uiso   1.00
C845   C     0.18706   0.20180   0.90758   0.00000  Uiso   1.00
C846   C     0.14836   0.13091   0.59236   0.00000  Uiso   1.00
C847   C     0.16795   0.16640   0.88442   0.00000  Uiso   1.00
C848   C     0.16729   0.16637   0.61559   0.00000  Uiso   1.00
C849   C     0.15023   0.13028   0.90674   0.00000  Uiso   1.00
C850   C     0.18684   0.20143   0.59336   0.00000  Uiso   1.00
C851   C     0.15029   0.12988   0.95291   0.00000  Uiso   1.00
C852   C     0.18741   0.20145   0.54719   0.00000  Uiso   1.00
C853   C     0.16920   0.16574   0.97678   0.00000  Uiso   1.00
C854   C     0.16834   0.16564   0.52325   0.00000  Uiso   1.00
C855   C     0.18868   0.20179   0.95405   0.00000  Uiso   1.00
C856   C     0.14830   0.12994   0.54590   0.00000  Uiso   1.00
C857   C     0.13093   0.09444   0.97512   0.00000  Uiso   1.00
C858   C     0.20711   0.23662   0.52491   0.00000  Uiso   1.00
H859   H     0.20051   0.22899   0.88892   0.00000  Uiso   1.00
H860   H     0.13352   0.10447   0.61095   0.00000  Uiso   1.00
H861   H     0.13545   0.10301   0.88807   0.00000  Uiso   1.00
H862   H     0.20191   0.22846   0.61210   0.00000  Uiso   1.00
H863   H     0.11642   0.06782   0.95551   0.00000  Uiso   1.00
H864   H     0.22211   0.26366   0.54366   0.00000  Uiso   1.00
N865   N     0.16667   0.28573   0.75000   0.00000  Uiso   1.00
N866   N     0.16667   0.04760   0.75000   0.00000  Uiso   1.00
O867   O     0.10559   0.20487   0.74999   0.00000  Uiso   1.00
O868   O     0.22774   0.12846   0.75001   0.00000  Uiso   1.00
O869   O     0.22774   0.20487   0.75001   0.00000  Uiso   1.00
O870   O     0.10559   0.12846   0.74999   0.00000  Uiso   1.00
O871   O     0.16666   0.20489   0.68392   0.00000  Uiso   1.00
O872   O     0.16667   0.12844   0.81607   0.00000  Uiso   1.00
O873   O     0.16667   0.20489   0.81607   0.00000  Uiso   1.00
O874   O     0.16666   0.12844   0.68393   0.00000  Uiso   1.00
Zn875  Zn    0.16667   0.21771   0.75000   0.00000  Uiso   1.00
Zn876  Zn    0.16667   0.11563   0.75000   0.00000  Uiso   1.00
N877   N     0.10760   0.05904   0.54514   0.00000  Uiso   1.00
H878   H     0.08504   0.07027   0.56686   0.00000  Uiso   1.00
C879   C     0.09619   0.01783   0.52206   0.00000  Uiso   1.00
H880   H     0.08481   0.32624   0.54656   0.00000  Uiso   1.00
H881   H     0.12392   0.00330   0.50529   0.00000  Uiso   1.00
H882   H     0.07045   0.02419   0.99736   0.00000  Uiso   1.00
N883   N     0.23047   0.27264   0.95740   0.00000  Uiso   1.00
H884   H     0.24744   0.26382   0.92969   0.00000  Uiso   1.00
C885   C     0.20695   0.31389   0.95234   0.00000  Uiso   1.00
H886   H     0.17828   0.30807   0.93136   0.00000  Uiso   1.00
H887   H     0.22676   0.00624   0.93595   0.00000  Uiso   1.00
H888   H     0.19788   0.32704   0.98558   0.00000  Uiso   1.00
O889   O     0.04708   0.15469   0.82760   0.00000  Uiso   1.00
H890   H     0.03039   0.13715   0.84909   0.00000  Uiso   1.00
O891   O     0.28988   0.17356   0.66690   0.00000  Uiso   1.00
H892   H     0.25919   0.17083   0.67070   0.00000  Uiso   1.00
O893   O     0.29040   0.16499   0.82935   0.00000  Uiso   1.00
H894   H     0.30847   0.17792   0.85342   0.00000  Uiso   1.00
O895   O     0.04020   0.17588   0.66656   0.00000  Uiso   1.00
H896   H     0.07114   0.17548   0.67019   0.00000  Uiso   1.00
N897   N     0.20835   0.04863   0.81757   0.00000  Uiso   1.00
H898   H     0.19762   0.04171   0.84913   0.00000  Uiso   1.00
C899   C     0.25348   0.05365   0.81506   0.00000  Uiso   1.00
H900   H     0.26142   0.08955   0.81814   0.00000  Uiso   1.00
H901   H     0.26596   0.04067   0.78300   0.00000  Uiso   1.00
H902   H     0.26917   0.03638   0.84353   0.00000  Uiso   1.00
N903   N     0.11716   0.28393   0.68887   0.00000  Uiso   1.00
H904   H     0.08618   0.28132   0.69805   0.00000  Uiso   1.00
C905   C     0.12423   0.28742   0.64137   0.00000  Uiso   1.00
H906   H     0.10092   0.31049   0.62585   0.00000  Uiso   1.00
H907   H     0.11951   0.25397   0.62568   0.00000  Uiso   1.00
H908   H     0.15667   0.29919   0.63446   0.00000  Uiso   1.00
N909   N     0.11773   0.04849   0.68836   0.00000  Uiso   1.00
H910   H     0.12477   0.04304   0.65539   0.00000  Uiso   1.00
C911   C     0.07311   0.04907   0.69705   0.00000  Uiso   1.00
H912   H     0.05868   0.07852   0.68014   0.00000  Uiso   1.00
H913   H     0.06718   0.05176   0.73347   0.00000  Uiso   1.00
H914   H     0.05769   0.01834   0.68361   0.00000  Uiso   1.00
N915   N     0.20759   0.28614   0.81847   0.00000  Uiso   1.00
H916   H     0.20008   0.29784   0.84976   0.00000  Uiso   1.00
C917   C     0.25165   0.27533   0.81391   0.00000  Uiso   1.00
H918   H     0.27103   0.29469   0.83833   0.00000  Uiso   1.00
H919   H     0.26301   0.28185   0.77958   0.00000  Uiso   1.00
H920   H     0.25617   0.23954   0.82206   0.00000  Uiso   1.00
C921   C     0.42029   0.16665   0.74936   0.00000  Uiso   1.00
C922   C     0.57980   0.16670   0.75036   0.00000  Uiso   1.00
C923   C     0.46248   0.09405   0.52187   0.00000  Uiso   1.00
C924   C     0.54161   0.23712   0.97845   0.00000  Uiso   1.00
C925   C     0.35628   0.16181   0.78938   0.00000  Uiso   1.00
C926   C     0.64423   0.17040   0.70769   0.00000  Uiso   1.00
C927   C     0.64587   0.16422   0.78996   0.00000  Uiso   1.00
C928   C     0.35422   0.17132   0.70748   0.00000  Uiso   1.00
C929   C     0.62399   0.16676   0.74909   0.00000  Uiso   1.00
C930   C     0.37620   0.16673   0.74847   0.00000  Uiso   1.00
C931   C     0.52155   0.02431   0.78235   0.00000  Uiso   1.00
C932   C     0.47697   0.30891   0.71861   0.00000  Uiso   1.00
C933   C     0.47642   0.02396   0.71913   0.00000  Uiso   1.00
C934   C     0.52147   0.30958   0.78248   0.00000  Uiso   1.00
C935   C     0.50009   0.16659   0.66346   0.00000  Uiso   1.00
C936   C     0.50030   0.16668   0.83655   0.00000  Uiso   1.00
C937   C     0.52039   0.20180   0.90758   0.00000  Uiso   1.00
C938   C     0.48170   0.13091   0.59236   0.00000  Uiso   1.00
C939   C     0.50129   0.16640   0.88442   0.00000  Uiso   1.00
C940   C     0.50063   0.16637   0.61559   0.00000  Uiso   1.00
C941   C     0.48356   0.13028   0.90674   0.00000  Uiso   1.00
C942   C     0.52017   0.20143   0.59336   0.00000  Uiso   1.00
C943   C     0.48362   0.12988   0.95291   0.00000  Uiso   1.00
C944   C     0.52074   0.20145   0.54719   0.00000  Uiso   1.00
C945   C     0.50254   0.16574   0.97678   0.00000  Uiso   1.00
C946   C     0.50168   0.16564   0.52325   0.00000  Uiso   1.00
C947   C     0.52201   0.20179   0.95405   0.00000  Uiso   1.00
C948   C     0.48163   0.12994   0.54590   0.00000  Uiso   1.00
C949   C     0.46426   0.09444   0.97512   0.00000  Uiso   1.00
C950   C     0.54044   0.23662   0.52491   0.00000  Uiso   1.00
H951   H     0.53385   0.22899   0.88892   0.00000  Uiso   1.00
H952   H     0.46686   0.10447   0.61095   0.00000  Uiso   1.00
H953   H     0.46878   0.10301   0.88807   0.00000  Uiso   1.00
H954   H     0.53525   0.22846   0.61210   0.00000  Uiso   1.00
H955   H     0.44976   0.06782   0.95551   0.00000  Uiso   1.00
H956   H     0.55545   0.26366   0.54366   0.00000  Uiso   1.00
N957   N     0.50000   0.28573   0.75000   0.00000  Uiso   1.00
N958   N     0.50000   0.04760   0.75000   0.00000  Uiso   1.00
O959   O     0.43892   0.20487   0.74999   0.00000  Uiso   1.00
O960   O     0.56108   0.12846   0.75001   0.00000  Uiso   1.00
O961   O     0.56108   0.20487   0.75001   0.00000  Uiso   1.00
O962   O     0.43892   0.12846   0.74999   0.00000  Uiso   1.00
O963   O     0.49999   0.20489   0.68392   0.00000  Uiso   1.00
O964   O     0.50001   0.12844   0.81607   0.00000  Uiso   1.00
O965   O     0.50001   0.20489   0.81607   0.00000  Uiso   1.00
O966   O     0.49999   0.12844   0.68393   0.00000  Uiso   1.00
Zn967  Zn    0.50000   0.21771   0.75000   0.00000  Uiso   1.00
Zn968  Zn    0.50000   0.11563   0.75000   0.00000  Uiso   1.00
N969   N     0.44094   0.05904   0.54514   0.00000  Uiso   1.00
H970   H     0.41837   0.07027   0.56686   0.00000  Uiso   1.00
C971   C     0.42952   0.01783   0.52206   0.00000  Uiso   1.00
H972   H     0.41814   0.32624   0.54656   0.00000  Uiso   1.00
H973   H     0.45726   0.00330   0.50529   0.00000  Uiso   1.00
H974   H     0.40378   0.02419   0.99736   0.00000  Uiso   1.00
N975   N     0.56381   0.27264   0.95740   0.00000  Uiso   1.00
H976   H     0.58078   0.26382   0.92969   0.00000  Uiso   1.00
C977   C     0.54028   0.31389   0.95234   0.00000  Uiso   1.00
H978   H     0.51161   0.30807   0.93136   0.00000  Uiso   1.00
H979   H     0.56009   0.00624   0.93595   0.00000  Uiso   1.00
H980   H     0.53121   0.32704   0.98558   0.00000  Uiso   1.00
O981   O     0.38041   0.15469   0.82760   0.00000  Uiso   1.00
H982   H     0.36372   0.13715   0.84909   0.00000  Uiso   1.00
O983   O     0.62321   0.17356   0.66690   0.00000  Uiso   1.00
H984   H     0.59252   0.17083   0.67070   0.00000  Uiso   1.00
O985   O     0.62373   0.16499   0.82935   0.00000  Uiso   1.00
H986   H     0.64180   0.17792   0.85342   0.00000  Uiso   1.00
O987   O     0.37353   0.17588   0.66656   0.00000  Uiso   1.00
H988   H     0.40447   0.17548   0.67019   0.00000  Uiso   1.00
N989   N     0.54168   0.04863   0.81757   0.00000  Uiso   1.00
H990   H     0.53096   0.04171   0.84913   0.00000  Uiso   1.00
C991   C     0.58682   0.05365   0.81506   0.00000  Uiso   1.00
H992   H     0.59475   0.08955   0.81814   0.00000  Uiso   1.00
H993   H     0.59929   0.04067   0.78300   0.00000  Uiso   1.00
H994   H     0.60251   0.03638   0.84353   0.00000  Uiso   1.00
N995   N     0.45050   0.28393   0.68887   0.00000  Uiso   1.00
H996   H     0.41952   0.28132   0.69805   0.00000  Uiso   1.00
C997   C     0.45757   0.28742   0.64137   0.00000  Uiso   1.00
H998   H     0.43425   0.31049   0.62585   0.00000  Uiso   1.00
H999   H     0.45284   0.25397   0.62568   0.00000  Uiso   1.00
H1000  H     0.49000   0.29919   0.63446   0.00000  Uiso   1.00
N1001  N     0.45107   0.04849   0.68836   0.00000  Uiso   1.00
H1002  H     0.45810   0.04304   0.65539   0.00000  Uiso   1.00
C1003  C     0.40644   0.04907   0.69705   0.00000  Uiso   1.00
H1004  H     0.39202   0.07852   0.68014   0.00000  Uiso   1.00
H1005  H     0.40052   0.05176   0.73347   0.00000  Uiso   1.00
H1006  H     0.39102   0.01834   0.68361   0.00000  Uiso   1.00
N1007  N     0.54092   0.28614   0.81847   0.00000  Uiso   1.00
H1008  H     0.53341   0.29784   0.84976   0.00000  Uiso   1.00
C1009  C     0.58498   0.27533   0.81391   0.00000  Uiso   1.00
H1010  H     0.60436   0.29469   0.83833   0.00000  Uiso   1.00
H1011  H     0.59635   0.28185   0.77958   0.00000  Uiso   1.00
H1012  H     0.58950   0.23954   0.82206   0.00000  Uiso   1.00
C1013  C     0.75362   0.16665   0.74936   0.00000  Uiso   1.00
C1014  C     0.91314   0.16670   0.75036   0.00000  Uiso   1.00
C1015  C     0.79581   0.09405   0.52187   0.00000  Uiso   1.00
C1016  C     0.87494   0.23712   0.97845   0.00000  Uiso   1.00
C1017  C     0.68961   0.16181   0.78938   0.00000  Uiso   1.00
C1018  C     0.97756   0.17040   0.70769   0.00000  Uiso   1.00
C1019  C     0.97921   0.16422   0.78996   0.00000  Uiso   1.00
C1020  C     0.68756   0.17132   0.70748   0.00000  Uiso   1.00
C1021  C     0.95732   0.16676   0.74909   0.00000  Uiso   1.00
C1022  C     0.70954   0.16673   0.74847   0.00000  Uiso   1.00
C1023  C     0.85488   0.02431   0.78235   0.00000  Uiso   1.00
C1024  C     0.81031   0.30891   0.71861   0.00000  Uiso   1.00
C1025  C     0.80975   0.02396   0.71913   0.00000  Uiso   1.00
C1026  C     0.85480   0.30958   0.78248   0.00000  Uiso   1.00
C1027  C     0.83342   0.16659   0.66346   0.00000  Uiso   1.00
C1028  C     0.83363   0.16668   0.83655   0.00000  Uiso   1.00
C1029  C     0.85373   0.20180   0.90758   0.00000  Uiso   1.00
C1030  C     0.81503   0.13091   0.59236   0.00000  Uiso   1.00
C1031  C     0.83462   0.16640   0.88442   0.00000  Uiso   1.00
C1032  C     0.83396   0.16637   0.61559   0.00000  Uiso   1.00
C1033  C     0.81690   0.13028   0.90674   0.00000  Uiso   1.00
C1034  C     0.85350   0.20143   0.59336   0.00000  Uiso   1.00
C1035  C     0.81695   0.12988   0.95291   0.00000  Uiso   1.00
C1036  C     0.85407   0.20145   0.54719   0.00000  Uiso   1.00
C1037  C     0.83587   0.16574   0.97678   0.00000  Uiso   1.00
C1038  C     0.83501   0.16564   0.52325   0.00000  Uiso   1.00
C1039  C     0.85535   0.20179   0.95405   0.00000  Uiso   1.00
C1040  C     0.81497   0.12994   0.54590   0.00000  Uiso   1.00
C1041  C     0.79760   0.09444   0.97512   0.00000  Uiso   1.00
C1042  C     0.87378   0.23662   0.52491   0.00000  Uiso   1.00
H1043  H     0.86718   0.22899   0.88892   0.00000  Uiso   1.00
H1044  H     0.80019   0.10447   0.61095   0.00000  Uiso   1.00
H1045  H     0.80211   0.10301   0.88807   0.00000  Uiso   1.00
H1046  H     0.86858   0.22846   0.61210   0.00000  Uiso   1.00
H1047  H     0.78309   0.06782   0.95551   0.00000  Uiso   1.00
H1048  H     0.88878   0.26366   0.54366   0.00000  Uiso   1.00
N1049  N     0.83333   0.28573   0.75000   0.00000  Uiso   1.00
N1050  N     0.83333   0.04760   0.75000   0.00000  Uiso   1.00
O1051  O     0.77226   0.20487   0.74999   0.00000  Uiso   1.00
O1052  O     0.89441   0.12846   0.75001   0.00000  Uiso   1.00
O1053  O     0.89441   0.20487   0.75001   0.00000  Uiso   1.00
O1054  O     0.77226   0.12846   0.74999   0.00000  Uiso   1.00
O1055  O     0.83333   0.20489   0.68392   0.00000  Uiso   1.00
O1056  O     0.83334   0.12844   0.81607   0.00000  Uiso   1.00
O1057  O     0.83334   0.20489   0.81607   0.00000  Uiso   1.00
O1058  O     0.83333   0.12844   0.68393   0.00000  Uiso   1.00
Zn1059 Zn    0.83333   0.21771   0.75000   0.00000  Uiso   1.00
Zn1060 Zn    0.83333   0.11563   0.75000   0.00000  Uiso   1.00
N1061  N     0.77427   0.05904   0.54514   0.00000  Uiso   1.00
H1062  H     0.75171   0.07027   0.56686   0.00000  Uiso   1.00
C1063  C     0.76286   0.01783   0.52206   0.00000  Uiso   1.00
H1064  H     0.75148   0.32624   0.54656   0.00000  Uiso   1.00
H1065  H     0.79059   0.00330   0.50529   0.00000  Uiso   1.00
H1066  H     0.73711   0.02419   0.99736   0.00000  Uiso   1.00
N1067  N     0.89714   0.27264   0.95740   0.00000  Uiso   1.00
H1068  H     0.91411   0.26382   0.92969   0.00000  Uiso   1.00
C1069  C     0.87362   0.31389   0.95234   0.00000  Uiso   1.00
H1070  H     0.84494   0.30807   0.93136   0.00000  Uiso   1.00
H1071  H     0.89342   0.00624   0.93595   0.00000  Uiso   1.00
H1072  H     0.86455   0.32704   0.98558   0.00000  Uiso   1.00
O1073  O     0.71374   0.15469   0.82760   0.00000  Uiso   1.00
H1074  H     0.69705   0.13715   0.84909   0.00000  Uiso   1.00
O1075  O     0.95654   0.17356   0.66690   0.00000  Uiso   1.00
H1076  H     0.92586   0.17083   0.67070   0.00000  Uiso   1.00
O1077  O     0.95707   0.16499   0.82935   0.00000  Uiso   1.00
H1078  H     0.97513   0.17792   0.85342   0.00000  Uiso   1.00
O1079  O     0.70687   0.17588   0.66656   0.00000  Uiso   1.00
H1080  H     0.73780   0.17548   0.67019   0.00000  Uiso   1.00
N1081  N     0.87501   0.04863   0.81757   0.00000  Uiso   1.00
H1082  H     0.86429   0.04171   0.84913   0.00000  Uiso   1.00
C1083  C     0.92015   0.05365   0.81506   0.00000  Uiso   1.00
H1084  H     0.92808   0.08955   0.81814   0.00000  Uiso   1.00
H1085  H     0.93263   0.04067   0.78300   0.00000  Uiso   1.00
H1086  H     0.93584   0.03638   0.84353   0.00000  Uiso   1.00
N1087  N     0.78383   0.28393   0.68887   0.00000  Uiso   1.00
H1088  H     0.75285   0.28132   0.69805   0.00000  Uiso   1.00
C1089  C     0.79090   0.28742   0.64137   0.00000  Uiso   1.00
H1090  H     0.76758   0.31049   0.62585   0.00000  Uiso   1.00
H1091  H     0.78617   0.25397   0.62568   0.00000  Uiso   1.00
H1092  H     0.82334   0.29919   0.63446   0.00000  Uiso   1.00
N1093  N     0.78440   0.04849   0.68836   0.00000  Uiso   1.00
H1094  H     0.79143   0.04304   0.65539   0.00000  Uiso   1.00
C1095  C     0.73977   0.04907   0.69705   0.00000  Uiso   1.00
H1096  H     0.72535   0.07852   0.68014   0.00000  Uiso   1.00
H1097  H     0.73385   0.05176   0.73347   0.00000  Uiso   1.00
H1098  H     0.72435   0.01834   0.68361   0.00000  Uiso   1.00
N1099  N     0.87426   0.28614   0.81847   0.00000  Uiso   1.00
H1100  H     0.86675   0.29784   0.84976   0.00000  Uiso   1.00
C1101  C     0.91831   0.27533   0.81391   0.00000  Uiso   1.00
H1102  H     0.93769   0.29469   0.83833   0.00000  Uiso   1.00
H1103  H     0.92968   0.28185   0.77958   0.00000  Uiso   1.00
H1104  H     0.92283   0.23954   0.82206   0.00000  Uiso   1.00
C1105  C     0.08695   0.49999   0.74936   0.00000  Uiso   1.00
C1106  C     0.24647   0.50004   0.75036   0.00000  Uiso   1.00
C1107  C     0.12914   0.42739   0.52187   0.00000  Uiso   1.00
C1108  C     0.20827   0.57045   0.97845   0.00000  Uiso   1.00
C1109  C     0.02294   0.49515   0.78938   0.00000  Uiso   1.00
C1110  C     0.31090   0.50373   0.70769   0.00000  Uiso   1.00
C1111  C     0.31254   0.49755   0.78996   0.00000  Uiso   1.00
C1112  C     0.02089   0.50465   0.70748   0.00000  Uiso   1.00
C1113  C     0.29065   0.50010   0.74909   0.00000  Uiso   1.00
C1114  C     0.04287   0.50006   0.74847   0.00000  Uiso   1.00
C1115  C     0.18822   0.35765   0.78235   0.00000  Uiso   1.00
C1116  C     0.14364   0.64224   0.71861   0.00000  Uiso   1.00
C1117  C     0.14309   0.35729   0.71913   0.00000  Uiso   1.00
C1118  C     0.18814   0.64291   0.78248   0.00000  Uiso   1.00
C1119  C     0.16676   0.49993   0.66346   0.00000  Uiso   1.00
C1120  C     0.16697   0.50001   0.83655   0.00000  Uiso   1.00
C1121  C     0.18706   0.53514   0.90758   0.00000  Uiso   1.00
C1122  C     0.14836   0.46425   0.59236   0.00000  Uiso   1.00
C1123  C     0.16795   0.49973   0.88442   0.00000  Uiso   1.00
C1124  C     0.16729   0.49971   0.61559   0.00000  Uiso   1.00
C1125  C     0.15023   0.46361   0.90674   0.00000  Uiso   1.00
C1126  C     0.18684   0.53476   0.59336   0.00000  Uiso   1.00
C1127  C     0.15029   0.46322   0.95291   0.00000  Uiso   1.00
C1128  C     0.18741   0.53478   0.54719   0.00000  Uiso   1.00
C1129  C     0.16920   0.49907   0.97678   0.00000  Uiso   1.00
C1130  C     0.16834   0.49897   0.52325   0.00000  Uiso   1.00
C1131  C     0.18868   0.53512   0.95405   0.00000  Uiso   1.00
C1132  C     0.14830   0.46327   0.54590   0.00000  Uiso   1.00
C1133  C     0.13093   0.42777   0.97512   0.00000  Uiso   1.00
C1134  C     0.20711   0.56995   0.52491   0.00000  Uiso   1.00
H1135  H     0.20051   0.56232   0.88892   0.00000  Uiso   1.00
H1136  H     0.13352   0.43780   0.61095   0.00000  Uiso   1.00
H1137  H     0.13545   0.43635   0.88807   0.00000  Uiso   1.00
H1138  H     0.20191   0.56179   0.61210   0.00000  Uiso   1.00
H1139  H     0.11642   0.40116   0.95551   0.00000  Uiso   1.00
H1140  H     0.22211   0.59699   0.54366   0.00000  Uiso   1.00
N1141  N     0.16667   0.61907   0.75000   0.00000  Uiso   1.00
N1142  N     0.16667   0.38093   0.75000   0.00000  Uiso   1.00
O1143  O     0.10559   0.53821   0.74999   0.00000  Uiso   1.00
O1144  O     0.22774   0.46179   0.75001   0.00000  Uiso   1.00
O1145  O     0.22774   0.53821   0.75001   0.00000  Uiso   1.00
O1146  O     0.10559   0.46179   0.74999   0.00000  Uiso   1.00
O1147  O     0.16666   0.53823   0.68392   0.00000  Uiso   1.00
O1148  O     0.16667   0.46177   0.81607   0.00000  Uiso   1.00
O1149  O     0.16667   0.53823   0.81607   0.00000  Uiso   1.00
O1150  O     0.16666   0.46177   0.68393   0.00000  Uiso   1.00
Zn1151 Zn    0.16667   0.55104   0.75000   0.00000  Uiso   1.00
Zn1152 Zn    0.16667   0.44896   0.75000   0.00000  Uiso   1.00
N1153  N     0.10760   0.39238   0.54514   0.00000  Uiso   1.00
H1154  H     0.08504   0.40360   0.56686   0.00000  Uiso   1.00
C1155  C     0.09619   0.35116   0.52206   0.00000  Uiso   1.00
H1156  H     0.08481   0.65957   0.54656   0.00000  Uiso   1.00
H1157  H     0.12392   0.33663   0.50529   0.00000  Uiso   1.00
H1158  H     0.07045   0.35752   0.99736   0.00000  Uiso   1.00
N1159  N     0.23047   0.60597   0.95740   0.00000  Uiso   1.00
H1160  H     0.24744   0.59715   0.92969   0.00000  Uiso   1.00
C1161  C     0.20695   0.64723   0.95234   0.00000  Uiso   1.00
H1162  H     0.17828   0.64141   0.93136   0.00000  Uiso   1.00
H1163  H     0.22676   0.33958   0.93595   0.00000  Uiso   1.00
H1164  H     0.19788   0.66037   0.98558   0.00000  Uiso   1.00
O1165  O     0.04708   0.48802   0.82760   0.00000  Uiso   1.00
H1166  H     0.03039   0.47048   0.84909   0.00000  Uiso   1.00
O1167  O     0.28988   0.50689   0.66690   0.00000  Uiso   1.00
H1168  H     0.25919   0.50417   0.67070   0.00000  Uiso   1.00
O1169  O     0.29040   0.49832   0.82935   0.00000  Uiso   1.00
H1170  H     0.30847   0.51126   0.85342   0.00000  Uiso   1.00
O1171  O     0.04020   0.50922   0.66656   0.00000  Uiso   1.00
H1172  H     0.07114   0.50881   0.67019   0.00000  Uiso   1.00
N1173  N     0.20835   0.38196   0.81757   0.00000  Uiso   1.00
H1174  H     0.19762   0.37504   0.84913   0.00000  Uiso   1.00
C1175  C     0.25348   0.38699   0.81506   0.00000  Uiso   1.00
H1176  H     0.26142   0.42288   0.81814   0.00000  Uiso   1.00
H1177  H     0.26596   0.37400   0.78300   0.00000  Uiso   1.00
H1178  H     0.26917   0.36972   0.84353   0.00000  Uiso   1.00
N1179  N     0.11716   0.61726   0.68887   0.00000  Uiso   1.00
H1180  H     0.08618   0.61466   0.69805   0.00000  Uiso   1.00
C1181  C     0.12423   0.62076   0.64137   0.00000  Uiso   1.00
H1182  H     0.10092   0.64382   0.62585   0.00000  Uiso   1.00
H1183  H     0.11951   0.58731   0.62568   0.00000  Uiso   1.00
H1184  H     0.15667   0.63252   0.63446   0.00000  Uiso   1.00
N1185  N     0.11773   0.38182   0.68836   0.00000  Uiso   1.00
H1186  H     0.12477   0.37637   0.65539   0.00000  Uiso   1.00
C1187  C     0.07311   0.38240   0.69705   0.00000  Uiso   1.00
H1188  H     0.05868   0.41185   0.68014   0.00000  Uiso   1.00
H1189  H     0.06718   0.38510   0.73347   0.00000  Uiso   1.00
H1190  H     0.05769   0.35167   0.68361   0.00000  Uiso   1.00
N1191  N     0.20759   0.61947   0.81847   0.00000  Uiso   1.00
H1192  H     0.20008   0.63117   0.84976   0.00000  Uiso   1.00
C1193  C     0.25165   0.60867   0.81391   0.00000  Uiso   1.00
H1194  H     0.27103   0.62802   0.83833   0.00000  Uiso   1.00
H1195  H     0.26301   0.61518   0.77958   0.00000  Uiso   1.00
H1196  H     0.25617   0.57287   0.82206   0.00000  Uiso   1.00
C1197  C     0.42029   0.49999   0.74936   0.00000  Uiso   1.00
C1198  C     0.57980   0.50004   0.75036   0.00000  Uiso   1.00
C1199  C     0.46248   0.42739   0.52187   0.00000  Uiso   1.00
C1200  C     0.54161   0.57045   0.97845   0.00000  Uiso   1.00
C1201  C     0.35628   0.49515   0.78938   0.00000  Uiso   1.00
C1202  C     0.64423   0.50373   0.70769   0.00000  Uiso   1.00
C1203  C     0.64587   0.49755   0.78996   0.00000  Uiso   1.00
C1204  C     0.35422   0.50465   0.70748   0.00000  Uiso   1.00
C1205  C     0.62399   0.50010   0.74909   0.00000  Uiso   1.00
C1206  C     0.37620   0.50006   0.74847   0.00000  Uiso   1.00
C1207  C     0.52155   0.35765   0.78235   0.00000  Uiso   1.00
C1208  C     0.47697   0.64224   0.71861   0.00000  Uiso   1.00
C1209  C     0.47642   0.35729   0.71913   0.00000  Uiso   1.00
C1210  C     0.52147   0.64291   0.78248   0.00000  Uiso   1.00
C1211  C     0.50009   0.49993   0.66346   0.00000  Uiso   1.00
C1212  C     0.50030   0.50001   0.83655   0.00000  Uiso   1.00
C1213  C     0.52039   0.53514   0.90758   0.00000  Uiso   1.00
C1214  C     0.48170   0.46425   0.59236   0.00000  Uiso   1.00
C1215  C     0.50129   0.49973   0.88442   0.00000  Uiso   1.00
C1216  C     0.50063   0.49971   0.61559   0.00000  Uiso   1.00
C1217  C     0.48356   0.46361   0.90674   0.00000  Uiso   1.00
C1218  C     0.52017   0.53476   0.59336   0.00000  Uiso   1.00
C1219  C     0.48362   0.46322   0.95291   0.00000  Uiso   1.00
C1220  C     0.52074   0.53478   0.54719   0.00000  Uiso   1.00
C1221  C     0.50254   0.49907   0.97678   0.00000  Uiso   1.00
C1222  C     0.50168   0.49897   0.52325   0.00000  Uiso   1.00
C1223  C     0.52201   0.53512   0.95405   0.00000  Uiso   1.00
C1224  C     0.48163   0.46327   0.54590   0.00000  Uiso   1.00
C1225  C     0.46426   0.42777   0.97512   0.00000  Uiso   1.00
C1226  C     0.54044   0.56995   0.52491   0.00000  Uiso   1.00
H1227  H     0.53385   0.56232   0.88892   0.00000  Uiso   1.00
H1228  H     0.46686   0.43780   0.61095   0.00000  Uiso   1.00
H1229  H     0.46878   0.43635   0.88807   0.00000  Uiso   1.00
H1230  H     0.53525   0.56179   0.61210   0.00000  Uiso   1.00
H1231  H     0.44976   0.40116   0.95551   0.00000  Uiso   1.00
H1232  H     0.55545   0.59699   0.54366   0.00000  Uiso   1.00
N1233  N     0.50000   0.61907   0.75000   0.00000  Uiso   1.00
N1234  N     0.50000   0.38093   0.75000   0.00000  Uiso   1.00
O1235  O     0.43892   0.53821   0.74999   0.00000  Uiso   1.00
O1236  O     0.56108   0.46179   0.75001   0.00000  Uiso   1.00
O1237  O     0.56108   0.53821   0.75001   0.00000  Uiso   1.00
O1238  O     0.43892   0.46179   0.74999   0.00000  Uiso   1.00
O1239  O     0.49999   0.53823   0.68392   0.00000  Uiso   1.00
O1240  O     0.50001   0.46177   0.81607   0.00000  Uiso   1.00
O1241  O     0.50001   0.53823   0.81607   0.00000  Uiso   1.00
O1242  O     0.49999   0.46177   0.68393   0.00000  Uiso   1.00
Zn1243 Zn    0.50000   0.55104   0.75000   0.00000  Uiso   1.00
Zn1244 Zn    0.50000   0.44896   0.75000   0.00000  Uiso   1.00
N1245  N     0.44094   0.39238   0.54514   0.00000  Uiso   1.00
H1246  H     0.41837   0.40360   0.56686   0.00000  Uiso   1.00
C1247  C     0.42952   0.35116   0.52206   0.00000  Uiso   1.00
H1248  H     0.41814   0.65957   0.54656   0.00000  Uiso   1.00
H1249  H     0.45726   0.33663   0.50529   0.00000  Uiso   1.00
H1250  H     0.40378   0.35752   0.99736   0.00000  Uiso   1.00
N1251  N     0.56381   0.60597   0.95740   0.00000  Uiso   1.00
H1252  H     0.58078   0.59715   0.92969   0.00000  Uiso   1.00
C1253  C     0.54028   0.64723   0.95234   0.00000  Uiso   1.00
H1254  H     0.51161   0.64141   0.93136   0.00000  Uiso   1.00
H1255  H     0.56009   0.33958   0.93595   0.00000  Uiso   1.00
H1256  H     0.53121   0.66037   0.98558   0.00000  Uiso   1.00
O1257  O     0.38041   0.48802   0.82760   0.00000  Uiso   1.00
H1258  H     0.36372   0.47048   0.84909   0.00000  Uiso   1.00
O1259  O     0.62321   0.50689   0.66690   0.00000  Uiso   1.00
H1260  H     0.59252   0.50417   0.67070   0.00000  Uiso   1.00
O1261  O     0.62373   0.49832   0.82935   0.00000  Uiso   1.00
H1262  H     0.64180   0.51126   0.85342   0.00000  Uiso   1.00
O1263  O     0.37353   0.50922   0.66656   0.00000  Uiso   1.00
H1264  H     0.40447   0.50881   0.67019   0.00000  Uiso   1.00
N1265  N     0.54168   0.38196   0.81757   0.00000  Uiso   1.00
H1266  H     0.53096   0.37504   0.84913   0.00000  Uiso   1.00
C1267  C     0.58682   0.38699   0.81506   0.00000  Uiso   1.00
H1268  H     0.59475   0.42288   0.81814   0.00000  Uiso   1.00
H1269  H     0.59929   0.37400   0.78300   0.00000  Uiso   1.00
H1270  H     0.60251   0.36972   0.84353   0.00000  Uiso   1.00
N1271  N     0.45050   0.61726   0.68887   0.00000  Uiso   1.00
H1272  H     0.41952   0.61466   0.69805   0.00000  Uiso   1.00
C1273  C     0.45757   0.62076   0.64137   0.00000  Uiso   1.00
H1274  H     0.43425   0.64382   0.62585   0.00000  Uiso   1.00
H1275  H     0.45284   0.58731   0.62568   0.00000  Uiso   1.00
H1276  H     0.49000   0.63252   0.63446   0.00000  Uiso   1.00
N1277  N     0.45107   0.38182   0.68836   0.00000  Uiso   1.00
H1278  H     0.45810   0.37637   0.65539   0.00000  Uiso   1.00
C1279  C     0.40644   0.38240   0.69705   0.00000  Uiso   1.00
H1280  H     0.39202   0.41185   0.68014   0.00000  Uiso   1.00
H1281  H     0.40052   0.38510   0.73347   0.00000  Uiso   1.00
H1282  H     0.39102   0.35167   0.68361   0.00000  Uiso   1.00
N1283  N     0.54092   0.61947   0.81847   0.00000  Uiso   1.00
H1284  H     0.53341   0.63117   0.84976   0.00000  Uiso   1.00
C1285  C     0.58498   0.60867   0.81391   0.00000  Uiso   1.00
H1286  H     0.60436   0.62802   0.83833   0.00000  Uiso   1.00
H1287  H     0.59635   0.61518   0.77958   0.00000  Uiso   1.00
H1288  H     0.58950   0.57287   0.82206   0.00000  Uiso   1.00
C1289  C     0.75362   0.49999   0.74936   0.00000  Uiso   1.00
C1290  C     0.91314   0.50004   0.75036   0.00000  Uiso   1.00
C1291  C     0.79581   0.42739   0.52187   0.00000  Uiso   1.00
C1292  C     0.87494   0.57045   0.97845   0.00000  Uiso   1.00
C1293  C     0.68961   0.49515   0.78938   0.00000  Uiso   1.00
C1294  C     0.97756   0.50373   0.70769   0.00000  Uiso   1.00
C1295  C     0.97921   0.49755   0.78996   0.00000  Uiso   1.00
C1296  C     0.68756   0.50465   0.70748   0.00000  Uiso   1.00
C1297  C     0.95732   0.50010   0.74909   0.00000  Uiso   1.00
C1298  C     0.70954   0.50006   0.74847   0.00000  Uiso   1.00
C1299  C     0.85488   0.35765   0.78235   0.00000  Uiso   1.00
C1300  C     0.81031   0.64224   0.71861   0.00000  Uiso   1.00
C1301  C     0.80975   0.35729   0.71913   0.00000  Uiso   1.00
C1302  C     0.85480   0.64291   0.78248   0.00000  Uiso   1.00
C1303  C     0.83342   0.49993   0.66346   0.00000  Uiso   1.00
C1304  C     0.83363   0.50001   0.83655   0.00000  Uiso   1.00
C1305  C     0.85373   0.53514   0.90758   0.00000  Uiso   1.00
C1306  C     0.81503   0.46425   0.59236   0.00000  Uiso   1.00
C1307  C     0.83462   0.49973   0.88442   0.00000  Uiso   1.00
C1308  C     0.83396   0.49971   0.61559   0.00000  Uiso   1.00
C1309  C     0.81690   0.46361   0.90674   0.00000  Uiso   1.00
C1310  C     0.85350   0.53476   0.59336   0.00000  Uiso   1.00
C1311  C     0.81695   0.46322   0.95291   0.00000  Uiso   1.00
C1312  C     0.85407   0.53478   0.54719   0.00000  Uiso   1.00
C1313  C     0.83587   0.49907   0.97678   0.00000  Uiso   1.00
C1314  C     0.83501   0.49897   0.52325   0.00000  Uiso   1.00
C1315  C     0.85535   0.53512   0.95405   0.00000  Uiso   1.00
C1316  C     0.81497   0.46327   0.54590   0.00000  Uiso   1.00
C1317  C     0.79760   0.42777   0.97512   0.00000  Uiso   1.00
C1318  C     0.87378   0.56995   0.52491   0.00000  Uiso   1.00
H1319  H     0.86718   0.56232   0.88892   0.00000  Uiso   1.00
H1320  H     0.80019   0.43780   0.61095   0.00000  Uiso   1.00
H1321  H     0.80211   0.43635   0.88807   0.00000  Uiso   1.00
H1322  H     0.86858   0.56179   0.61210   0.00000  Uiso   1.00
H1323  H     0.78309   0.40116   0.95551   0.00000  Uiso   1.00
H1324  H     0.88878   0.59699   0.54366   0.00000  Uiso   1.00
N1325  N     0.83333   0.61907   0.75000   0.00000  Uiso   1.00
N1326  N     0.83333   0.38093   0.75000   0.00000  Uiso   1.00
O1327  O     0.77226   0.53821   0.74999   0.00000  Uiso   1.00
O1328  O     0.89441   0.46179   0.75001   0.00000  Uiso   1.00
O1329  O     0.89441   0.53821   0.75001   0.00000  Uiso   1.00
O1330  O     0.77226   0.46179   0.74999   0.00000  Uiso   1.00
O1331  O     0.83333   0.53823   0.68392   0.00000  Uiso   1.00
O1332  O     0.83334   0.46177   0.81607   0.00000  Uiso   1.00
O1333  O     0.83334   0.53823   0.81607   0.00000  Uiso   1.00
O1334  O     0.83333   0.46177   0.68393   0.00000  Uiso   1.00
Zn1335 Zn    0.83333   0.55104   0.75000   0.00000  Uiso   1.00
Zn1336 Zn    0.83333   0.44896   0.75000   0.00000  Uiso   1.00
N1337  N     0.77427   0.39238   0.54514   0.00000  Uiso   1.00
H1338  H     0.75171   0.40360   0.56686   0.00000  Uiso   1.00
C1339  C     0.76286   0.35116   0.52206   0.00000  Uiso   1.00
H1340  H     0.75148   0.65957   0.54656   0.00000  Uiso   1.00
H1341  H     0.79059   0.33663   0.50529   0.00000  Uiso   1.00
H1342  H     0.73711   0.35752   0.99736   0.00000  Uiso   1.00
N1343  N     0.89714   0.60597   0.95740   0.00000  Uiso   1.00
H1344  H     0.91411   0.59715   0.92969   0.00000  Uiso   1.00
C1345  C     0.87362   0.64723   0.95234   0.00000  Uiso   1.00
H1346  H     0.84494   0.64141   0.93136   0.00000  Uiso   1.00
H1347  H     0.89342   0.33958   0.93595   0.00000  Uiso   1.00
H1348  H     0.86455   0.66037   0.98558   0.00000  Uiso   1.00
O1349  O     0.71374   0.48802   0.82760   0.00000  Uiso   1.00
H1350  H     0.69705   0.47048   0.84909   0.00000  Uiso   1.00
O1351  O     0.95654   0.50689   0.66690   0.00000  Uiso   1.00
H1352  H     0.92586   0.50417   0.67070   0.00000  Uiso   1.00
O1353  O     0.95707   0.49832   0.82935   0.00000  Uiso   1.00
H1354  H     0.97513   0.51126   0.85342   0.00000  Uiso   1.00
O1355  O     0.70687   0.50922   0.66656   0.00000  Uiso   1.00
H1356  H     0.73780   0.50881   0.67019   0.00000  Uiso   1.00
N1357  N     0.87501   0.38196   0.81757   0.00000  Uiso   1.00
H1358  H     0.86429   0.37504   0.84913   0.00000  Uiso   1.00
C1359  C     0.92015   0.38699   0.81506   0.00000  Uiso   1.00
H1360  H     0.92808   0.42288   0.81814   0.00000  Uiso   1.00
H1361  H     0.93263   0.37400   0.78300   0.00000  Uiso   1.00
H1362  H     0.93584   0.36972   0.84353   0.00000  Uiso   1.00
N1363  N     0.78383   0.61726   0.68887   0.00000  Uiso   1.00
H1364  H     0.75285   0.61466   0.69805   0.00000  Uiso   1.00
C1365  C     0.79090   0.62076   0.64137   0.00000  Uiso   1.00
H1366  H     0.76758   0.64382   0.62585   0.00000  Uiso   1.00
H1367  H     0.78617   0.58731   0.62568   0.00000  Uiso   1.00
H1368  H     0.82334   0.63252   0.63446   0.00000  Uiso   1.00
N1369  N     0.78440   0.38182   0.68836   0.00000  Uiso   1.00
H1370  H     0.79143   0.37637   0.65539   0.00000  Uiso   1.00
C1371  C     0.73977   0.38240   0.69705   0.00000  Uiso   1.00
H1372  H     0.72535   0.41185   0.68014   0.00000  Uiso   1.00
H1373  H     0.73385   0.38510   0.73347   0.00000  Uiso   1.00
H1374  H     0.72435   0.35167   0.68361   0.00000  Uiso   1.00
N1375  N     0.87426   0.61947   0.81847   0.00000  Uiso   1.00
H1376  H     0.86675   0.63117   0.84976   0.00000  Uiso   1.00
C1377  C     0.91831   0.60867   0.81391   0.00000  Uiso   1.00
H1378  H     0.93769   0.62802   0.83833   0.00000  Uiso   1.00
H1379  H     0.92968   0.61518   0.77958   0.00000  Uiso   1.00
H1380  H     0.92283   0.57287   0.82206   0.00000  Uiso   1.00
C1381  C     0.08695   0.83332   0.74936   0.00000  Uiso   1.00
C1382  C     0.24647   0.83337   0.75036   0.00000  Uiso   1.00
C1383  C     0.12914   0.76072   0.52187   0.00000  Uiso   1.00
C1384  C     0.20827   0.90378   0.97845   0.00000  Uiso   1.00
C1385  C     0.02294   0.82848   0.78938   0.00000  Uiso   1.00
C1386  C     0.31090   0.83706   0.70769   0.00000  Uiso   1.00
C1387  C     0.31254   0.83089   0.78996   0.00000  Uiso   1.00
C1388  C     0.02089   0.83799   0.70748   0.00000  Uiso   1.00
C1389  C     0.29065   0.83343   0.74909   0.00000  Uiso   1.00
C1390  C     0.04287   0.83340   0.74847   0.00000  Uiso   1.00
C1391  C     0.18822   0.69098   0.78235   0.00000  Uiso   1.00
C1392  C     0.14364   0.97558   0.71861   0.00000  Uiso   1.00
C1393  C     0.14309   0.69063   0.71913   0.00000  Uiso   1.00
C1394  C     0.18814   0.97625   0.78248   0.00000  Uiso   1.00
C1395  C     0.16676   0.83326   0.66346   0.00000  Uiso   1.00
C1396  C     0.16697   0.83335   0.83655   0.00000  Uiso   1.00
C1397  C     0.18706   0.86847   0.90758   0.00000  Uiso   1.00
C1398  C     0.14836   0.79758   0.59236   0.00000  Uiso   1.00
C1399  C     0.16795   0.83306   0.88442   0.00000  Uiso   1.00
C1400  C     0.16729   0.83304   0.61559   0.00000  Uiso   1.00
C1401  C     0.15023   0.79695   0.90674   0.00000  Uiso   1.00
C1402  C     0.18684   0.86810   0.59336   0.00000  Uiso   1.00
C1403  C     0.15029   0.79655   0.95291   0.00000  Uiso   1.00
C1404  C     0.18741   0.86811   0.54719   0.00000  Uiso   1.00
C1405  C     0.16920   0.83241   0.97678   0.00000  Uiso   1.00
C1406  C     0.16834   0.83230   0.52325   0.00000  Uiso   1.00
C1407  C     0.18868   0.86845   0.95405   0.00000  Uiso   1.00
C1408  C     0.14830   0.79660   0.54590   0.00000  Uiso   1.00
C1409  C     0.13093   0.76110   0.97512   0.00000  Uiso   1.00
C1410  C     0.20711   0.90328   0.52491   0.00000  Uiso   1.00
H1411  H     0.20051   0.89566   0.88892   0.00000  Uiso   1.00
H1412  H     0.13352   0.77113   0.61095   0.00000  Uiso   1.00
H1413  H     0.13545   0.76968   0.88807   0.00000  Uiso   1.00
H1414  H     0.20191   0.89512   0.61210   0.00000  Uiso   1.00
H1415  H     0.11642   0.73449   0.95551   0.00000  Uiso   1.00
H1416  H     0.22211   0.93032   0.54366   0.00000  Uiso   1.00
N1417  N     0.16667   0.95240   0.75000   0.00000  Uiso   1.00
N1418  N     0.16667   0.71427   0.75000   0.00000  Uiso   1.00
O1419  O     0.10559   0.87154   0.74999   0.00000  Uiso   1.00
O1420  O     0.22774   0.79513   0.75001   0.00000  Uiso   1.00
O1421  O     0.22774   0.87154   0.75001   0.00000  Uiso   1.00
O1422  O     0.10559   0.79513   0.74999   0.00000  Uiso   1.00
O1423  O     0.16666   0.87156   0.68392   0.00000  Uiso   1.00
O1424  O     0.16667   0.79511   0.81607   0.00000  Uiso   1.00
O1425  O     0.16667   0.87156   0.81607   0.00000  Uiso   1.00
O1426  O     0.16666   0.79511   0.68393   0.00000  Uiso   1.00
Zn1427 Zn    0.16667   0.88437   0.75000   0.00000  Uiso   1.00
Zn1428 Zn    0.16667   0.78229   0.75000   0.00000  Uiso   1.00
N1429  N     0.10760   0.72571   0.54514   0.00000  Uiso   1.00
H1430  H     0.08504   0.73693   0.56686   0.00000  Uiso   1.00
C1431  C     0.09619   0.68450   0.52206   0.00000  Uiso   1.00
H1432  H     0.08481   0.99291   0.54656   0.00000  Uiso   1.00
H1433  H     0.12392   0.66996   0.50529   0.00000  Uiso   1.00
H1434  H     0.07045   0.69086   0.99736   0.00000  Uiso   1.00
N1435  N     0.23047   0.93930   0.95740   0.00000  Uiso   1.00
H1436  H     0.24744   0.93049   0.92969   0.00000  Uiso   1.00
C1437  C     0.20695   0.98056   0.95234   0.00000  Uiso   1.00
H1438  H     0.17828   0.97474   0.93136   0.00000  Uiso   1.00
H1439  H     0.22676   0.67291   0.93595   0.00000  Uiso   1.00
H1440  H     0.19788   0.99371   0.98558   0.00000  Uiso   1.00
O1441  O     0.04708   0.82135   0.82760   0.00000  Uiso   1.00
H1442  H     0.03039   0.80382   0.84909   0.00000  Uiso   1.00
O1443  O     0.28988   0.84022   0.66690   0.00000  Uiso   1.00
H1444  H     0.25919   0.83750   0.67070   0.00000  Uiso   1.00
O1445  O     0.29040   0.83165   0.82935   0.00000  Uiso   1.00
H1446  H     0.30847   0.84459   0.85342   0.00000  Uiso   1.00
O1447  O     0.04020   0.84255   0.66656   0.00000  Uiso   1.00
H1448  H     0.07114   0.84215   0.67019   0.00000  Uiso   1.00
N1449  N     0.20835   0.71529   0.81757   0.00000  Uiso   1.00
H1450  H     0.19762   0.70838   0.84913   0.00000  Uiso   1.00
C1451  C     0.25348   0.72032   0.81506   0.00000  Uiso   1.00
H1452  H     0.26142   0.75622   0.81814   0.00000  Uiso   1.00
H1453  H     0.26596   0.70733   0.78300   0.00000  Uiso   1.00
H1454  H     0.26917   0.70305   0.84353   0.00000  Uiso   1.00
N1455  N     0.11716   0.95059   0.68887   0.00000  Uiso   1.00
H1456  H     0.08618   0.94799   0.69805   0.00000  Uiso   1.00
C1457  C     0.12423   0.95409   0.64137   0.00000  Uiso   1.00
H1458  H     0.10092   0.97715   0.62585   0.00000  Uiso   1.00
H1459  H     0.11951   0.92064   0.62568   0.00000  Uiso   1.00
H1460  H     0.15667   0.96586   0.63446   0.00000  Uiso   1.00
N1461  N     0.11773   0.71515   0.68836   0.00000  Uiso   1.00
H1462  H     0.12477   0.70970   0.65539   0.00000  Uiso   1.00
C1463  C     0.07311   0.71574   0.69705   0.00000  Uiso   1.00
H1464  H     0.05868   0.74519   0.68014   0.00000  Uiso   1.00
H1465  H     0.06718   0.71843   0.73347   0.00000  Uiso   1.00
H1466  H     0.05769   0.68500   0.68361   0.00000  Uiso   1.00
N1467  N     0.20759   0.95280   0.81847   0.00000  Uiso   1.00
H1468  H     0.20008   0.96451   0.84976   0.00000  Uiso   1.00
C1469  C     0.25165   0.94200   0.81391   0.00000  Uiso   1.00
H1470  H     0.27103   0.96136   0.83833   0.00000  Uiso   1.00
H1471  H     0.26301   0.94852   0.77958   0.00000  Uiso   1.00
H1472  H     0.25617   0.90620   0.82206   0.00000  Uiso   1.00
C1473  C     0.42029   0.83332   0.74936   0.00000  Uiso   1.00
C1474  C     0.57980   0.83337   0.75036   0.00000  Uiso   1.00
C1475  C     0.46248   0.76072   0.52187   0.00000  Uiso   1.00
C1476  C     0.54161   0.90378   0.97845   0.00000  Uiso   1.00
C1477  C     0.35628   0.82848   0.78938   0.00000  Uiso   1.00
C1478  C     0.64423   0.83706   0.70769   0.00000  Uiso   1.00
C1479  C     0.64587   0.83089   0.78996   0.00000  Uiso   1.00
C1480  C     0.35422   0.83799   0.70748   0.00000  Uiso   1.00
C1481  C     0.62399   0.83343   0.74909   0.00000  Uiso   1.00
C1482  C     0.37620   0.83340   0.74847   0.00000  Uiso   1.00
C1483  C     0.52155   0.69098   0.78235   0.00000  Uiso   1.00
C1484  C     0.47697   0.97558   0.71861   0.00000  Uiso   1.00
C1485  C     0.47642   0.69063   0.71913   0.00000  Uiso   1.00
C1486  C     0.52147   0.97625   0.78248   0.00000  Uiso   1.00
C1487  C     0.50009   0.83326   0.66346   0.00000  Uiso   1.00
C1488  C     0.50030   0.83335   0.83655   0.00000  Uiso   1.00
C1489  C     0.52039   0.86847   0.90758   0.00000  Uiso   1.00
C1490  C     0.48170   0.79758   0.59236   0.00000  Uiso   1.00
C1491  C     0.50129   0.83306   0.88442   0.00000  Uiso   1.00
C1492  C     0.50063   0.83304   0.61559   0.00000  Uiso   1.00
C1493  C     0.48356   0.79695   0.90674   0.00000  Uiso   1.00
C1494  C     0.52017   0.86810   0.59336   0.00000  Uiso   1.00
C1495  C     0.48362   0.79655   0.95291   0.00000  Uiso   1.00
C1496  C     0.52074   0.86811   0.54719   0.00000  Uiso   1.00
C1497  C     0.50254   0.83241   0.97678   0.00000  Uiso   1.00
C1498  C     0.50168   0.83230   0.52325   0.00000  Uiso   1.00
C1499  C     0.52201   0.86845   0.95405   0.00000  Uiso   1.00
C1500  C     0.48163   0.79660   0.54590   0.00000  Uiso   1.00
C1501  C     0.46426   0.76110   0.97512   0.00000  Uiso   1.00
C1502  C     0.54044   0.90328   0.52491   0.00000  Uiso   1.00
H1503  H     0.53385   0.89566   0.88892   0.00000  Uiso   1.00
H1504  H     0.46686   0.77113   0.61095   0.00000  Uiso   1.00
H1505  H     0.46878   0.76968   0.88807   0.00000  Uiso   1.00
H1506  H     0.53525   0.89512   0.61210   0.00000  Uiso   1.00
H1507  H     0.44976   0.73449   0.95551   0.00000  Uiso   1.00
H1508  H     0.55545   0.93032   0.54366   0.00000  Uiso   1.00
N1509  N     0.50000   0.95240   0.75000   0.00000  Uiso   1.00
N1510  N     0.50000   0.71427   0.75000   0.00000  Uiso   1.00
O1511  O     0.43892   0.87154   0.74999   0.00000  Uiso   1.00
O1512  O     0.56108   0.79513   0.75001   0.00000  Uiso   1.00
O1513  O     0.56108   0.87154   0.75001   0.00000  Uiso   1.00
O1514  O     0.43892   0.79513   0.74999   0.00000  Uiso   1.00
O1515  O     0.49999   0.87156   0.68392   0.00000  Uiso   1.00
O1516  O     0.50001   0.79511   0.81607   0.00000  Uiso   1.00
O1517  O     0.50001   0.87156   0.81607   0.00000  Uiso   1.00
O1518  O     0.49999   0.79511   0.68393   0.00000  Uiso   1.00
Zn1519 Zn    0.50000   0.88437   0.75000   0.00000  Uiso   1.00
Zn1520 Zn    0.50000   0.78229   0.75000   0.00000  Uiso   1.00
N1521  N     0.44094   0.72571   0.54514   0.00000  Uiso   1.00
H1522  H     0.41837   0.73693   0.56686   0.00000  Uiso   1.00
C1523  C     0.42952   0.68450   0.52206   0.00000  Uiso   1.00
H1524  H     0.41814   0.99291   0.54656   0.00000  Uiso   1.00
H1525  H     0.45726   0.66996   0.50529   0.00000  Uiso   1.00
H1526  H     0.40378   0.69086   0.99736   0.00000  Uiso   1.00
N1527  N     0.56381   0.93930   0.95740   0.00000  Uiso   1.00
H1528  H     0.58078   0.93049   0.92969   0.00000  Uiso   1.00
C1529  C     0.54028   0.98056   0.95234   0.00000  Uiso   1.00
H1530  H     0.51161   0.97474   0.93136   0.00000  Uiso   1.00
H1531  H     0.56009   0.67291   0.93595   0.00000  Uiso   1.00
H1532  H     0.53121   0.99371   0.98558   0.00000  Uiso   1.00
O1533  O     0.38041   0.82135   0.82760   0.00000  Uiso   1.00
H1534  H     0.36372   0.80382   0.84909   0.00000  Uiso   1.00
O1535  O     0.62321   0.84022   0.66690   0.00000  Uiso   1.00
H1536  H     0.59252   0.83750   0.67070   0.00000  Uiso   1.00
O1537  O     0.62373   0.83165   0.82935   0.00000  Uiso   1.00
H1538  H     0.64180   0.84459   0.85342   0.00000  Uiso   1.00
O1539  O     0.37353   0.84255   0.66656   0.00000  Uiso   1.00
H1540  H     0.40447   0.84215   0.67019   0.00000  Uiso   1.00
N1541  N     0.54168   0.71529   0.81757   0.00000  Uiso   1.00
H1542  H     0.53096   0.70838   0.84913   0.00000  Uiso   1.00
C1543  C     0.58682   0.72032   0.81506   0.00000  Uiso   1.00
H1544  H     0.59475   0.75622   0.81814   0.00000  Uiso   1.00
H1545  H     0.59929   0.70733   0.78300   0.00000  Uiso   1.00
H1546  H     0.60251   0.70305   0.84353   0.00000  Uiso   1.00
N1547  N     0.45050   0.95059   0.68887   0.00000  Uiso   1.00
H1548  H     0.41952   0.94799   0.69805   0.00000  Uiso   1.00
C1549  C     0.45757   0.95409   0.64137   0.00000  Uiso   1.00
H1550  H     0.43425   0.97715   0.62585   0.00000  Uiso   1.00
H1551  H     0.45284   0.92064   0.62568   0.00000  Uiso   1.00
H1552  H     0.49000   0.96586   0.63446   0.00000  Uiso   1.00
N1553  N     0.45107   0.71515   0.68836   0.00000  Uiso   1.00
H1554  H     0.45810   0.70970   0.65539   0.00000  Uiso   1.00
C1555  C     0.40644   0.71574   0.69705   0.00000  Uiso   1.00
H1556  H     0.39202   0.74519   0.68014   0.00000  Uiso   1.00
H1557  H     0.40052   0.71843   0.73347   0.00000  Uiso   1.00
H1558  H     0.39102   0.68500   0.68361   0.00000  Uiso   1.00
N1559  N     0.54092   0.95280   0.81847   0.00000  Uiso   1.00
H1560  H     0.53341   0.96451   0.84976   0.00000  Uiso   1.00
C1561  C     0.58498   0.94200   0.81391   0.00000  Uiso   1.00
H1562  H     0.60436   0.96136   0.83833   0.00000  Uiso   1.00
H1563  H     0.59635   0.94852   0.77958   0.00000  Uiso   1.00
H1564  H     0.58950   0.90620   0.82206   0.00000  Uiso   1.00
C1565  C     0.75362   0.83332   0.74936   0.00000  Uiso   1.00
C1566  C     0.91314   0.83337   0.75036   0.00000  Uiso   1.00
C1567  C     0.79581   0.76072   0.52187   0.00000  Uiso   1.00
C1568  C     0.87494   0.90378   0.97845   0.00000  Uiso   1.00
C1569  C     0.68961   0.82848   0.78938   0.00000  Uiso   1.00
C1570  C     0.97756   0.83706   0.70769   0.00000  Uiso   1.00
C1571  C     0.97921   0.83089   0.78996   0.00000  Uiso   1.00
C1572  C     0.68756   0.83799   0.70748   0.00000  Uiso   1.00
C1573  C     0.95732   0.83343   0.74909   0.00000  Uiso   1.00
C1574  C     0.70954   0.83340   0.74847   0.00000  Uiso   1.00
C1575  C     0.85488   0.69098   0.78235   0.00000  Uiso   1.00
C1576  C     0.81031   0.97558   0.71861   0.00000  Uiso   1.00
C1577  C     0.80975   0.69063   0.71913   0.00000  Uiso   1.00
C1578  C     0.85480   0.97625   0.78248   0.00000  Uiso   1.00
C1579  C     0.83342   0.83326   0.66346   0.00000  Uiso   1.00
C1580  C     0.83363   0.83335   0.83655   0.00000  Uiso   1.00
C1581  C     0.85373   0.86847   0.90758   0.00000  Uiso   1.00
C1582  C     0.81503   0.79758   0.59236   0.00000  Uiso   1.00
C1583  C     0.83462   0.83306   0.88442   0.00000  Uiso   1.00
C1584  C     0.83396   0.83304   0.61559   0.00000  Uiso   1.00
C1585  C     0.81690   0.79695   0.90674   0.00000  Uiso   1.00
C1586  C     0.85350   0.86810   0.59336   0.00000  Uiso   1.00
C1587  C     0.81695   0.79655   0.95291   0.00000  Uiso   1.00
C1588  C     0.85407   0.86811   0.54719   0.00000  Uiso   1.00
C1589  C     0.83587   0.83241   0.97678   0.00000  Uiso   1.00
C1590  C     0.83501   0.83230   0.52325   0.00000  Uiso   1.00
C1591  C     0.85535   0.86845   0.95405   0.00000  Uiso   1.00
C1592  C     0.81497   0.79660   0.54590   0.00000  Uiso   1.00
C1593  C     0.79760   0.76110   0.97512   0.00000  Uiso   1.00
C1594  C     0.87378   0.90328   0.52491   0.00000  Uiso   1.00
H1595  H     0.86718   0.89566   0.88892   0.00000  Uiso   1.00
H1596  H     0.80019   0.77113   0.61095   0.00000  Uiso   1.00
H1597  H     0.80211   0.76968   0.88807   0.00000  Uiso   1.00
H1598  H     0.86858   0.89512   0.61210   0.00000  Uiso   1.00
H1599  H     0.78309   0.73449   0.95551   0.00000  Uiso   1.00
H1600  H     0.88878   0.93032   0.54366   0.00000  Uiso   1.00
N1601  N     0.83333   0.95240   0.75000   0.00000  Uiso   1.00
N1602  N     0.83333   0.71427   0.75000   0.00000  Uiso   1.00
O1603  O     0.77226   0.87154   0.74999   0.00000  Uiso   1.00
O1604  O     0.89441   0.79513   0.75001   0.00000  Uiso   1.00
O1605  O     0.89441   0.87154   0.75001   0.00000  Uiso   1.00
O1606  O     0.77226   0.79513   0.74999   0.00000  Uiso   1.00
O1607  O     0.83333   0.87156   0.68392   0.00000  Uiso   1.00
O1608  O     0.83334   0.79511   0.81607   0.00000  Uiso   1.00
O1609  O     0.83334   0.87156   0.81607   0.00000  Uiso   1.00
O1610  O     0.83333   0.79511   0.68393   0.00000  Uiso   1.00
Zn1611 Zn    0.83333   0.88437   0.75000   0.00000  Uiso   1.00
Zn1612 Zn    0.83333   0.78229   0.75000   0.00000  Uiso   1.00
N1613  N     0.77427   0.72571   0.54514   0.00000  Uiso   1.00
H1614  H     0.75171   0.73693   0.56686   0.00000  Uiso   1.00
C1615  C     0.76286   0.68450   0.52206   0.00000  Uiso   1.00
H1616  H     0.75148   0.99291   0.54656   0.00000  Uiso   1.00
H1617  H     0.79059   0.66996   0.50529   0.00000  Uiso   1.00
H1618  H     0.73711   0.69086   0.99736   0.00000  Uiso   1.00
N1619  N     0.89714   0.93930   0.95740   0.00000  Uiso   1.00
H1620  H     0.91411   0.93049   0.92969   0.00000  Uiso   1.00
C1621  C     0.87362   0.98056   0.95234   0.00000  Uiso   1.00
H1622  H     0.84494   0.97474   0.93136   0.00000  Uiso   1.00
H1623  H     0.89342   0.67291   0.93595   0.00000  Uiso   1.00
H1624  H     0.86455   0.99371   0.98558   0.00000  Uiso   1.00
O1625  O     0.71374   0.82135   0.82760   0.00000  Uiso   1.00
H1626  H     0.69705   0.80382   0.84909   0.00000  Uiso   1.00
O1627  O     0.95654   0.84022   0.66690   0.00000  Uiso   1.00
H1628  H     0.92586   0.83750   0.67070   0.00000  Uiso   1.00
O1629  O     0.95707   0.83165   0.82935   0.00000  Uiso   1.00
H1630  H     0.97513   0.84459   0.85342   0.00000  Uiso   1.00
O1631  O     0.70687   0.84255   0.66656   0.00000  Uiso   1.00
H1632  H     0.73780   0.84215   0.67019   0.00000  Uiso   1.00
N1633  N     0.87501   0.71529   0.81757   0.00000  Uiso   1.00
H1634  H     0.86429   0.70838   0.84913   0.00000  Uiso   1.00
C1635  C     0.92015   0.72032   0.81506   0.00000  Uiso   1.00
H1636  H     0.92808   0.75622   0.81814   0.00000  Uiso   1.00
H1637  H     0.93263   0.70733   0.78300   0.00000  Uiso   1.00
H1638  H     0.93584   0.70305   0.84353   0.00000  Uiso   1.00
N1639  N     0.78383   0.95059   0.68887   0.00000  Uiso   1.00
H1640  H     0.75285   0.94799   0.69805   0.00000  Uiso   1.00
C1641  C     0.79090   0.95409   0.64137   0.00000  Uiso   1.00
H1642  H     0.76758   0.97715   0.62585   0.00000  Uiso   1.00
H1643  H     0.78617   0.92064   0.62568   0.00000  Uiso   1.00
H1644  H     0.82334   0.96586   0.63446   0.00000  Uiso   1.00
N1645  N     0.78440   0.71515   0.68836   0.00000  Uiso   1.00
H1646  H     0.79143   0.70970   0.65539   0.00000  Uiso   1.00
C1647  C     0.73977   0.71574   0.69705   0.00000  Uiso   1.00
H1648  H     0.72535   0.74519   0.68014   0.00000  Uiso   1.00
H1649  H     0.73385   0.71843   0.73347   0.00000  Uiso   1.00
H1650  H     0.72435   0.68500   0.68361   0.00000  Uiso   1.00
N1651  N     0.87426   0.95280   0.81847   0.00000  Uiso   1.00
H1652  H     0.86675   0.96451   0.84976   0.00000  Uiso   1.00
C1653  C     0.91831   0.94200   0.81391   0.00000  Uiso   1.00
H1654  H     0.93769   0.96136   0.83833   0.00000  Uiso   1.00
H1655  H     0.92968   0.94852   0.77958   0.00000  Uiso   1.00
H1656  H     0.92283   0.90620   0.82206   0.00000  Uiso   1.00
loop_
_geom_bond_atom_site_label_1
_geom_bond_atom_site_label_2
_geom_bond_distance
_geom_bond_site_symmetry_2
_ccdc_geom_bond_type
C1     C10     1.402   .     S
C1     O39     1.282   .     A
C1     O42     1.283   .     A
C2     O41     1.283   .     A
C2     O40     1.284   .     A
C2     C9      1.406   .     S
C3     N49     1.435   .     S
C3     C28     1.416   .     A
C3     C857    1.401   1_554 S
C4     N55     1.425   .     S
C4     C27     1.416   .     A
C4     C858    1.392   .     S
C5     O61     1.384   .     S
C5     C10     1.396   .     A
C5     C191    1.393   1_455 S
C6     C9      1.410   .     A
C6     O63     1.386   .     S
C6     C100    1.378   .     S
C7     O65     1.383   .     S
C7     C9      1.399   .     A
C7     C97     1.393   .     S
C8     O67     1.386   .     S
C8     C10     1.409   .     A
C8     C190    1.378   1_455 S
C11    N38     1.368   .     A
C11    N69     1.419   .     S
C11    C566    1.430   1_545 S
C12    N37     1.370   .     A
C12    N75     1.422   .     S
C12    C289    1.440   .     S
C13    N81     1.419   .     S
C13    N38     1.372   .     A
C13    C564    1.440   1_545 S
C14    N87     1.419   .     S
C14    N37     1.373   .     A
C14    C287    1.430   .     S
C15    C20     1.433   .     S
C15    O43     1.292   .     A
C15    O46     1.292   .     A
C16    O44     1.290   .     A
C16    O45     1.294   .     A
C16    C19     1.433   .     S
C17    C27     1.391   .     A
C17    H31     1.077   .     S
C17    C19     1.392   .     A
C18    C28     1.391   .     A
C18    C20     1.392   .     A
C18    H32     1.078   .     S
C19    C21     1.391   .     A
C20    C22     1.391   .     A
C21    H33     1.085   .     S
C21    C23     1.382   .     A
C22    H34     1.085   .     S
C22    C24     1.382   .     A
C23    C29     1.397   .     A
C23    C25     1.410   .     A
C24    C26     1.412   .     A
C24    C30     1.397   .     A
C25    C27     1.419   .     A
C25    C854    1.391   .     S
C26    C28     1.419   .     A
C26    C853    1.391   1_554 S
C29    H35     1.082   .     S
C29    C831    1.401   .     S
C30    H36     1.085   .     S
C30    C832    1.392   1_554 S
N37    Zn47    2.025   .     S
N38    Zn48    2.025   .     S
O39    Zn47    1.979   .     S
O40    Zn48    1.979   .     S
O41    Zn47    1.980   .     S
O42    Zn48    1.980   .     S
O43    Zn47    2.013   .     S
O44    Zn48    2.013   .     S
O45    Zn47    2.015   .     S
O46    Zn48    2.015   .     S
N49    C51     1.448   .     S
N49    H50     1.031   .     S
C51    H53     1.110   .     S
C51    H604    1.110   1_545 S
C51    H882    1.111   1_554 S
H52    C327    1.110   .     S
H54    C879    1.111   .     S
N55    H56     1.030   .     S
N55    C57     1.446   .     S
C57    H60     1.110   .     S
C57    H58     1.111   .     S
C57    H335    1.111   .     S
H59    C609    1.111   1_545 S
O61    H62     0.990   .     S
O63    H64     0.988   .     S
O65    H66     0.990   .     S
O67    H68     0.988   .     S
N69    C71     1.446   .     S
N69    H70     1.031   .     S
C71    H74     1.109   .     S
C71    H72     1.101   .     S
C71    H73     1.113   .     S
N75    H76     1.030   .     S
N75    C77     1.447   .     S
C77    H78     1.109   .     S
C77    H79     1.108   .     S
C77    H80     1.112   .     S
N81    H82     1.028   .     S
N81    C83     1.448   .     S
C83    H84     1.110   .     S
C83    H85     1.112   .     S
C83    H86     1.108   .     S
N87    H88     1.030   .     S
N87    C89     1.447   .     S
C89    H92     1.103   .     S
C89    H91     1.113   .     S
C89    H90     1.108   .     S
C93    C102    1.402   .     S
C93    O131    1.282   .     A
C93    O134    1.283   .     A
C94    O133    1.283   .     A
C94    O132    1.284   .     A
C94    C101    1.406   .     S
C95    N141    1.435   .     S
C95    C120    1.416   .     A
C95    C949    1.401   1_554 S
C96    N147    1.425   .     S
C96    C119    1.416   .     A
C96    C950    1.392   .     S
C97    O153    1.384   .     S
C97    C102    1.396   .     A
C98    C101    1.410   .     A
C98    O155    1.386   .     S
C98    C192    1.378   .     S
C99    O157    1.383   .     S
C99    C101    1.399   .     A
C99    C189    1.393   .     S
C100   O159    1.386   .     S
C100   C102    1.409   .     A
C103   N130    1.368   .     A
C103   N161    1.419   .     S
C103   C658    1.430   1_545 S
C104   N129    1.370   .     A
C104   N167    1.422   .     S
C104   C381    1.440   .     S
C105   N173    1.419   .     S
C105   N130    1.372   .     A
C105   C656    1.440   1_545 S
C106   N179    1.419   .     S
C106   N129    1.373   .     A
C106   C379    1.430   .     S
C107   C112    1.433   .     S
C107   O135    1.292   .     A
C107   O138    1.292   .     A
C108   O136    1.290   .     A
C108   O137    1.294   .     A
C108   C111    1.433   .     S
C109   C119    1.391   .     A
C109   H123    1.077   .     S
C109   C111    1.392   .     A
C110   C120    1.391   .     A
C110   C112    1.392   .     A
C110   H124    1.078   .     S
C111   C113    1.391   .     A
C112   C114    1.391   .     A
C113   H125    1.085   .     S
C113   C115    1.382   .     A
C114   H126    1.085   .     S
C114   C116    1.382   .     A
C115   C121    1.397   .     A
C115   C117    1.410   .     A
C116   C118    1.412   .     A
C116   C122    1.397   .     A
C117   C119    1.419   .     A
C117   C946    1.391   .     S
C118   C120    1.419   .     A
C118   C945    1.391   1_554 S
C121   H127    1.082   .     S
C121   C923    1.401   .     S
C122   H128    1.085   .     S
C122   C924    1.392   1_554 S
N129   Zn139   2.025   .     S
N130   Zn140   2.025   .     S
O131   Zn139   1.979   .     S
O132   Zn140   1.979   .     S
O133   Zn139   1.980   .     S
O134   Zn140   1.980   .     S
O135   Zn139   2.013   .     S
O136   Zn140   2.013   .     S
O137   Zn139   2.015   .     S
O138   Zn140   2.015   .     S
N141   C143    1.448   .     S
N141   H142    1.031   .     S
C143   H145    1.110   .     S
C143   H696    1.110   1_545 S
C143   H974    1.111   1_554 S
H144   C419    1.110   .     S
H146   C971    1.111   .     S
N147   H148    1.030   .     S
N147   C149    1.446   .     S
C149   H152    1.110   .     S
C149   H150    1.111   .     S
C149   H427    1.111   .     S
H151   C701    1.111   1_545 S
O153   H154    0.990   .     S
O155   H156    0.988   .     S
O157   H158    0.990   .     S
O159   H160    0.988   .     S
N161   C163    1.446   .     S
N161   H162    1.031   .     S
C163   H166    1.109   .     S
C163   H164    1.101   .     S
C163   H165    1.113   .     S
N167   H168    1.030   .     S
N167   C169    1.447   .     S
C169   H170    1.109   .     S
C169   H171    1.108   .     S
C169   H172    1.112   .     S
N173   H174    1.028   .     S
N173   C175    1.448   .     S
C175   H176    1.110   .     S
C175   H177    1.112   .     S
C175   H178    1.108   .     S
N179   H180    1.030   .     S
N179   C181    1.447   .     S
C181   H184    1.103   .     S
C181   H183    1.113   .     S
C181   H182    1.108   .     S
C185   C194    1.402   .     S
C185   O223    1.282   .     A
C185   O226    1.283   .     A
C186   O225    1.283   .     A
C186   O224    1.284   .     A
C186   C193    1.406   .     S
C187   N233    1.435   .     S
C187   C212    1.416   .     A
C187   C1041   1.401   1_554 S
C188   N239    1.425   .     S
C188   C211    1.416   .     A
C188   C1042   1.392   .     S
C189   O245    1.384   .     S
C189   C194    1.396   .     A
C190   C193    1.410   .     A
C190   O247    1.386   .     S
C190   C8      1.378   1_655 S
C191   O249    1.383   .     S
C191   C193    1.399   .     A
C191   C5      1.393   1_655 S
C192   O251    1.386   .     S
C192   C194    1.409   .     A
C195   N222    1.368   .     A
C195   N253    1.419   .     S
C195   C750    1.430   1_545 S
C196   N221    1.370   .     A
C196   N259    1.422   .     S
C196   C473    1.440   .     S
C197   N265    1.419   .     S
C197   N222    1.372   .     A
C197   C748    1.440   1_545 S
C198   N271    1.419   .     S
C198   N221    1.373   .     A
C198   C471    1.430   .     S
C199   C204    1.433   .     S
C199   O227    1.292   .     A
C199   O230    1.292   .     A
C200   O228    1.290   .     A
C200   O229    1.294   .     A
C200   C203    1.433   .     S
C201   C211    1.391   .     A
C201   H215    1.077   .     S
C201   C203    1.392   .     A
C202   C212    1.391   .     A
C202   C204    1.392   .     A
C202   H216    1.078   .     S
C203   C205    1.391   .     A
C204   C206    1.391   .     A
C205   H217    1.085   .     S
C205   C207    1.382   .     A
C206   H218    1.085   .     S
C206   C208    1.382   .     A
C207   C213    1.397   .     A
C207   C209    1.410   .     A
C208   C210    1.412   .     A
C208   C214    1.397   .     A
C209   C211    1.419   .     A
C209   C1038   1.391   .     S
C210   C212    1.419   .     A
C210   C1037   1.391   1_554 S
C213   H219    1.082   .     S
C213   C1015   1.401   .     S
C214   H220    1.085   .     S
C214   C1016   1.392   1_554 S
N221   Zn231   2.025   .     S
N222   Zn232   2.025   .     S
O223   Zn231   1.979   .     S
O224   Zn232   1.979   .     S
O225   Zn231   1.980   .     S
O226   Zn232   1.980   .     S
O227   Zn231   2.013   .     S
O228   Zn232   2.013   .     S
O229   Zn231   2.015   .     S
O230   Zn232   2.015   .     S
N233   C235    1.448   .     S
N233   H234    1.031   .     S
C235   H237    1.110   .     S
C235   H788    1.110   1_545 S
C235   H1066   1.111   1_554 S
H236   C511    1.110   .     S
H238   C1063   1.111   .     S
N239   H240    1.030   .     S
N239   C241    1.446   .     S
C241   H244    1.110   .     S
C241   H242    1.111   .     S
C241   H519    1.111   .     S
H243   C793    1.111   1_545 S
O245   H246    0.990   .     S
O247   H248    0.988   .     S
O249   H250    0.990   .     S
O251   H252    0.988   .     S
N253   C255    1.446   .     S
N253   H254    1.031   .     S
C255   H258    1.109   .     S
C255   H256    1.101   .     S
C255   H257    1.113   .     S
N259   H260    1.030   .     S
N259   C261    1.447   .     S
C261   H262    1.109   .     S
C261   H263    1.108   .     S
C261   H264    1.112   .     S
N265   H266    1.028   .     S
N265   C267    1.448   .     S
C267   H268    1.110   .     S
C267   H269    1.112   .     S
C267   H270    1.108   .     S
N271   H272    1.030   .     S
N271   C273    1.447   .     S
C273   H276    1.103   .     S
C273   H275    1.113   .     S
C273   H274    1.108   .     S
C277   C286    1.402   .     S
C277   O315    1.282   .     A
C277   O318    1.283   .     A
C278   O317    1.283   .     A
C278   O316    1.284   .     A
C278   C285    1.406   .     S
C279   N325    1.435   .     S
C279   C304    1.416   .     A
C279   C1133   1.401   1_554 S
C280   N331    1.425   .     S
C280   C303    1.416   .     A
C280   C1134   1.392   .     S
C281   O337    1.384   .     S
C281   C286    1.396   .     A
C281   C467    1.393   1_455 S
C282   C285    1.410   .     A
C282   O339    1.386   .     S
C282   C376    1.378   .     S
C283   O341    1.383   .     S
C283   C285    1.399   .     A
C283   C373    1.393   .     S
C284   O343    1.386   .     S
C284   C286    1.409   .     A
C284   C466    1.378   1_455 S
C287   N314    1.368   .     A
C287   N345    1.419   .     S
C288   N313    1.370   .     A
C288   N351    1.422   .     S
C288   C565    1.440   .     S
C289   N357    1.419   .     S
C289   N314    1.372   .     A
C290   N363    1.419   .     S
C290   N313    1.373   .     A
C290   C563    1.430   .     S
C291   C296    1.433   .     S
C291   O319    1.292   .     A
C291   O322    1.292   .     A
C292   O320    1.290   .     A
C292   O321    1.294   .     A
C292   C295    1.433   .     S
C293   C303    1.391   .     A
C293   H307    1.077   .     S
C293   C295    1.392   .     A
C294   C304    1.391   .     A
C294   C296    1.392   .     A
C294   H308    1.078   .     S
C295   C297    1.391   .     A
C296   C298    1.391   .     A
C297   H309    1.085   .     S
C297   C299    1.382   .     A
C298   H310    1.085   .     S
C298   C300    1.382   .     A
C299   C305    1.397   .     A
C299   C301    1.410   .     A
C300   C302    1.412   .     A
C300   C306    1.397   .     A
C301   C303    1.419   .     A
C301   C1130   1.391   .     S
C302   C304    1.419   .     A
C302   C1129   1.391   1_554 S
C305   H311    1.082   .     S
C305   C1107   1.401   .     S
C306   H312    1.085   .     S
C306   C1108   1.392   1_554 S
N313   Zn323   2.025   .     S
N314   Zn324   2.025   .     S
O315   Zn323   1.979   .     S
O316   Zn324   1.979   .     S
O317   Zn323   1.980   .     S
O318   Zn324   1.980   .     S
O319   Zn323   2.013   .     S
O320   Zn324   2.013   .     S
O321   Zn323   2.015   .     S
O322   Zn324   2.015   .     S
N325   C327    1.448   .     S
N325   H326    1.031   .     S
C327   H329    1.110   .     S
C327   H1158   1.111   1_554 S
H328   C603    1.110   .     S
H330   C1155   1.111   .     S
N331   H332    1.030   .     S
N331   C333    1.446   .     S
C333   H336    1.110   .     S
C333   H334    1.111   .     S
C333   H611    1.111   .     S
O337   H338    0.990   .     S
O339   H340    0.988   .     S
O341   H342    0.990   .     S
O343   H344    0.988   .     S
N345   C347    1.446   .     S
N345   H346    1.031   .     S
C347   H350    1.109   .     S
C347   H348    1.101   .     S
C347   H349    1.113   .     S
N351   H352    1.030   .     S
N351   C353    1.447   .     S
C353   H354    1.109   .     S
C353   H355    1.108   .     S
C353   H356    1.112   .     S
N357   H358    1.028   .     S
N357   C359    1.448   .     S
C359   H360    1.110   .     S
C359   H361    1.112   .     S
C359   H362    1.108   .     S
N363   H364    1.030   .     S
N363   C365    1.447   .     S
C365   H368    1.103   .     S
C365   H367    1.113   .     S
C365   H366    1.108   .     S
C369   C378    1.402   .     S
C369   O407    1.282   .     A
C369   O410    1.283   .     A
C370   O409    1.283   .     A
C370   O408    1.284   .     A
C370   C377    1.406   .     S
C371   N417    1.435   .     S
C371   C396    1.416   .     A
C371   C1225   1.401   1_554 S
C372   N423    1.425   .     S
C372   C395    1.416   .     A
C372   C1226   1.392   .     S
C373   O429    1.384   .     S
C373   C378    1.396   .     A
C374   C377    1.410   .     A
C374   O431    1.386   .     S
C374   C468    1.378   .     S
C375   O433    1.383   .     S
C375   C377    1.399   .     A
C375   C465    1.393   .     S
C376   O435    1.386   .     S
C376   C378    1.409   .     A
C379   N406    1.368   .     A
C379   N437    1.419   .     S
C380   N405    1.370   .     A
C380   N443    1.422   .     S
C380   C657    1.440   .     S
C381   N449    1.419   .     S
C381   N406    1.372   .     A
C382   N455    1.419   .     S
C382   N405    1.373   .     A
C382   C655    1.430   .     S
C383   C388    1.433   .     S
C383   O411    1.292   .     A
C383   O414    1.292   .     A
C384   O412    1.290   .     A
C384   O413    1.294   .     A
C384   C387    1.433   .     S
C385   C395    1.391   .     A
C385   H399    1.077   .     S
C385   C387    1.392   .     A
C386   C396    1.391   .     A
C386   C388    1.392   .     A
C386   H400    1.078   .     S
C387   C389    1.391   .     A
C388   C390    1.391   .     A
C389   H401    1.085   .     S
C389   C391    1.382   .     A
C390   H402    1.085   .     S
C390   C392    1.382   .     A
C391   C397    1.397   .     A
C391   C393    1.410   .     A
C392   C394    1.412   .     A
C392   C398    1.397   .     A
C393   C395    1.419   .     A
C393   C1222   1.391   .     S
C394   C396    1.419   .     A
C394   C1221   1.391   1_554 S
C397   H403    1.082   .     S
C397   C1199   1.401   .     S
C398   H404    1.085   .     S
C398   C1200   1.392   1_554 S
N405   Zn415   2.025   .     S
N406   Zn416   2.025   .     S
O407   Zn415   1.979   .     S
O408   Zn416   1.979   .     S
O409   Zn415   1.980   .     S
O410   Zn416   1.980   .     S
O411   Zn415   2.013   .     S
O412   Zn416   2.013   .     S
O413   Zn415   2.015   .     S
O414   Zn416   2.015   .     S
N417   C419    1.448   .     S
N417   H418    1.031   .     S
C419   H421    1.110   .     S
C419   H1250   1.111   1_554 S
H420   C695    1.110   .     S
H422   C1247   1.111   .     S
N423   H424    1.030   .     S
N423   C425    1.446   .     S
C425   H428    1.110   .     S
C425   H426    1.111   .     S
C425   H703    1.111   .     S
O429   H430    0.990   .     S
O431   H432    0.988   .     S
O433   H434    0.990   .     S
O435   H436    0.988   .     S
N437   C439    1.446   .     S
N437   H438    1.031   .     S
C439   H442    1.109   .     S
C439   H440    1.101   .     S
C439   H441    1.113   .     S
N443   H444    1.030   .     S
N443   C445    1.447   .     S
C445   H446    1.109   .     S
C445   H447    1.108   .     S
C445   H448    1.112   .     S
N449   H450    1.028   .     S
N449   C451    1.448   .     S
C451   H452    1.110   .     S
C451   H453    1.112   .     S
C451   H454    1.108   .     S
N455   H456    1.030   .     S
N455   C457    1.447   .     S
C457   H460    1.103   .     S
C457   H459    1.113   .     S
C457   H458    1.108   .     S
C461   C470    1.402   .     S
C461   O499    1.282   .     A
C461   O502    1.283   .     A
C462   O501    1.283   .     A
C462   O500    1.284   .     A
C462   C469    1.406   .     S
C463   N509    1.435   .     S
C463   C488    1.416   .     A
C463   C1317   1.401   1_554 S
C464   N515    1.425   .     S
C464   C487    1.416   .     A
C464   C1318   1.392   .     S
C465   O521    1.384   .     S
C465   C470    1.396   .     A
C466   C469    1.410   .     A
C466   O523    1.386   .     S
C466   C284    1.378   1_655 S
C467   O525    1.383   .     S
C467   C469    1.399   .     A
C467   C281    1.393   1_655 S
C468   O527    1.386   .     S
C468   C470    1.409   .     A
C471   N498    1.368   .     A
C471   N529    1.419   .     S
C472   N497    1.370   .     A
C472   N535    1.422   .     S
C472   C749    1.440   .     S
C473   N541    1.419   .     S
C473   N498    1.372   .     A
C474   N547    1.419   .     S
C474   N497    1.373   .     A
C474   C747    1.430   .     S
C475   C480    1.433   .     S
C475   O503    1.292   .     A
C475   O506    1.292   .     A
C476   O504    1.290   .     A
C476   O505    1.294   .     A
C476   C479    1.433   .     S
C477   C487    1.391   .     A
C477   H491    1.077   .     S
C477   C479    1.392   .     A
C478   C488    1.391   .     A
C478   C480    1.392   .     A
C478   H492    1.078   .     S
C479   C481    1.391   .     A
C480   C482    1.391   .     A
C481   H493    1.085   .     S
C481   C483    1.382   .     A
C482   H494    1.085   .     S
C482   C484    1.382   .     A
C483   C489    1.397   .     A
C483   C485    1.410   .     A
C484   C486    1.412   .     A
C484   C490    1.397   .     A
C485   C487    1.419   .     A
C485   C1314   1.391   .     S
C486   C488    1.419   .     A
C486   C1313   1.391   1_554 S
C489   H495    1.082   .     S
C489   C1291   1.401   .     S
C490   H496    1.085   .     S
C490   C1292   1.392   1_554 S
N497   Zn507   2.025   .     S
N498   Zn508   2.025   .     S
O499   Zn507   1.979   .     S
O500   Zn508   1.979   .     S
O501   Zn507   1.980   .     S
O502   Zn508   1.980   .     S
O503   Zn507   2.013   .     S
O504   Zn508   2.013   .     S
O505   Zn507   2.015   .     S
O506   Zn508   2.015   .     S
N509   C511    1.448   .     S
N509   H510    1.031   .     S
C511   H513    1.110   .     S
C511   H1342   1.111   1_554 S
H512   C787    1.110   .     S
H514   C1339   1.111   .     S
N515   H516    1.030   .     S
N515   C517    1.446   .     S
C517   H520    1.110   .     S
C517   H518    1.111   .     S
C517   H795    1.111   .     S
O521   H522    0.990   .     S
O523   H524    0.988   .     S
O525   H526    0.990   .     S
O527   H528    0.988   .     S
N529   C531    1.446   .     S
N529   H530    1.031   .     S
C531   H534    1.109   .     S
C531   H532    1.101   .     S
C531   H533    1.113   .     S
N535   H536    1.030   .     S
N535   C537    1.447   .     S
C537   H538    1.109   .     S
C537   H539    1.108   .     S
C537   H540    1.112   .     S
N541   H542    1.028   .     S
N541   C543    1.448   .     S
C543   H544    1.110   .     S
C543   H545    1.112   .     S
C543   H546    1.108   .     S
N547   H548    1.030   .     S
N547   C549    1.447   .     S
C549   H552    1.103   .     S
C549   H551    1.113   .     S
C549   H550    1.108   .     S
C553   C562    1.402   .     S
C553   O591    1.282   .     A
C553   O594    1.283   .     A
C554   O593    1.283   .     A
C554   O592    1.284   .     A
C554   C561    1.406   .     S
C555   N601    1.435   .     S
C555   C580    1.416   .     A
C555   C1409   1.401   1_554 S
C556   N607    1.425   .     S
C556   C579    1.416   .     A
C556   C1410   1.392   .     S
C557   O613    1.384   .     S
C557   C562    1.396   .     A
C557   C743    1.393   1_455 S
C558   C561    1.410   .     A
C558   O615    1.386   .     S
C558   C652    1.378   .     S
C559   O617    1.383   .     S
C559   C561    1.399   .     A
C559   C649    1.393   .     S
C560   O619    1.386   .     S
C560   C562    1.409   .     A
C560   C742    1.378   1_455 S
C563   N590    1.368   .     A
C563   N621    1.419   .     S
C564   N589    1.370   .     A
C564   N627    1.422   .     S
C564   C13     1.440   1_565 S
C565   N633    1.419   .     S
C565   N590    1.372   .     A
C566   N639    1.419   .     S
C566   N589    1.373   .     A
C566   C11     1.430   1_565 S
C567   C572    1.433   .     S
C567   O595    1.292   .     A
C567   O598    1.292   .     A
C568   O596    1.290   .     A
C568   O597    1.294   .     A
C568   C571    1.433   .     S
C569   C579    1.391   .     A
C569   H583    1.077   .     S
C569   C571    1.392   .     A
C570   C580    1.391   .     A
C570   C572    1.392   .     A
C570   H584    1.078   .     S
C571   C573    1.391   .     A
C572   C574    1.391   .     A
C573   H585    1.085   .     S
C573   C575    1.382   .     A
C574   H586    1.085   .     S
C574   C576    1.382   .     A
C575   C581    1.397   .     A
C575   C577    1.410   .     A
C576   C578    1.412   .     A
C576   C582    1.397   .     A
C577   C579    1.419   .     A
C577   C1406   1.391   .     S
C578   C580    1.419   .     A
C578   C1405   1.391   1_554 S
C581   H587    1.082   .     S
C581   C1383   1.401   .     S
C582   H588    1.085   .     S
C582   C1384   1.392   1_554 S
N589   Zn599   2.025   .     S
N590   Zn600   2.025   .     S
O591   Zn599   1.979   .     S
O592   Zn600   1.979   .     S
O593   Zn599   1.980   .     S
O594   Zn600   1.980   .     S
O595   Zn599   2.013   .     S
O596   Zn600   2.013   .     S
O597   Zn599   2.015   .     S
O598   Zn600   2.015   .     S
N601   C603    1.448   .     S
N601   H602    1.031   .     S
C603   H605    1.110   .     S
C603   H1434   1.111   1_554 S
H604   C51     1.110   1_565 S
H606   C1431   1.111   .     S
N607   H608    1.030   .     S
N607   C609    1.446   .     S
C609   H612    1.110   .     S
C609   H610    1.111   .     S
C609   H59     1.111   1_565 S
O613   H614    0.990   .     S
O615   H616    0.988   .     S
O617   H618    0.990   .     S
O619   H620    0.988   .     S
N621   C623    1.446   .     S
N621   H622    1.031   .     S
C623   H626    1.109   .     S
C623   H624    1.101   .     S
C623   H625    1.113   .     S
N627   H628    1.030   .     S
N627   C629    1.447   .     S
C629   H630    1.109   .     S
C629   H631    1.108   .     S
C629   H632    1.112   .     S
N633   H634    1.028   .     S
N633   C635    1.448   .     S
C635   H636    1.110   .     S
C635   H637    1.112   .     S
C635   H638    1.108   .     S
N639   H640    1.030   .     S
N639   C641    1.447   .     S
C641   H644    1.103   .     S
C641   H643    1.113   .     S
C641   H642    1.108   .     S
C645   C654    1.402   .     S
C645   O683    1.282   .     A
C645   O686    1.283   .     A
C646   O685    1.283   .     A
C646   O684    1.284   .     A
C646   C653    1.406   .     S
C647   N693    1.435   .     S
C647   C672    1.416   .     A
C647   C1501   1.401   1_554 S
C648   N699    1.425   .     S
C648   C671    1.416   .     A
C648   C1502   1.392   .     S
C649   O705    1.384   .     S
C649   C654    1.396   .     A
C650   C653    1.410   .     A
C650   O707    1.386   .     S
C650   C744    1.378   .     S
C651   O709    1.383   .     S
C651   C653    1.399   .     A
C651   C741    1.393   .     S
C652   O711    1.386   .     S
C652   C654    1.409   .     A
C655   N682    1.368   .     A
C655   N713    1.419   .     S
C656   N681    1.370   .     A
C656   N719    1.422   .     S
C656   C105    1.440   1_565 S
C657   N725    1.419   .     S
C657   N682    1.372   .     A
C658   N731    1.419   .     S
C658   N681    1.373   .     A
C658   C103    1.430   1_565 S
C659   C664    1.433   .     S
C659   O687    1.292   .     A
C659   O690    1.292   .     A
C660   O688    1.290   .     A
C660   O689    1.294   .     A
C660   C663    1.433   .     S
C661   C671    1.391   .     A
C661   H675    1.077   .     S
C661   C663    1.392   .     A
C662   C672    1.391   .     A
C662   C664    1.392   .     A
C662   H676    1.078   .     S
C663   C665    1.391   .     A
C664   C666    1.391   .     A
C665   H677    1.085   .     S
C665   C667    1.382   .     A
C666   H678    1.085   .     S
C666   C668    1.382   .     A
C667   C673    1.397   .     A
C667   C669    1.410   .     A
C668   C670    1.412   .     A
C668   C674    1.397   .     A
C669   C671    1.419   .     A
C669   C1498   1.391   .     S
C670   C672    1.419   .     A
C670   C1497   1.391   1_554 S
C673   H679    1.082   .     S
C673   C1475   1.401   .     S
C674   H680    1.085   .     S
C674   C1476   1.392   1_554 S
N681   Zn691   2.025   .     S
N682   Zn692   2.025   .     S
O683   Zn691   1.979   .     S
O684   Zn692   1.979   .     S
O685   Zn691   1.980   .     S
O686   Zn692   1.980   .     S
O687   Zn691   2.013   .     S
O688   Zn692   2.013   .     S
O689   Zn691   2.015   .     S
O690   Zn692   2.015   .     S
N693   C695    1.448   .     S
N693   H694    1.031   .     S
C695   H697    1.110   .     S
C695   H1526   1.111   1_554 S
H696   C143    1.110   1_565 S
H698   C1523   1.111   .     S
N699   H700    1.030   .     S
N699   C701    1.446   .     S
C701   H704    1.110   .     S
C701   H702    1.111   .     S
C701   H151    1.111   1_565 S
O705   H706    0.990   .     S
O707   H708    0.988   .     S
O709   H710    0.990   .     S
O711   H712    0.988   .     S
N713   C715    1.446   .     S
N713   H714    1.031   .     S
C715   H718    1.109   .     S
C715   H716    1.101   .     S
C715   H717    1.113   .     S
N719   H720    1.030   .     S
N719   C721    1.447   .     S
C721   H722    1.109   .     S
C721   H723    1.108   .     S
C721   H724    1.112   .     S
N725   H726    1.028   .     S
N725   C727    1.448   .     S
C727   H728    1.110   .     S
C727   H729    1.112   .     S
C727   H730    1.108   .     S
N731   H732    1.030   .     S
N731   C733    1.447   .     S
C733   H736    1.103   .     S
C733   H735    1.113   .     S
C733   H734    1.108   .     S
C737   C746    1.402   .     S
C737   O775    1.282   .     A
C737   O778    1.283   .     A
C738   O777    1.283   .     A
C738   O776    1.284   .     A
C738   C745    1.406   .     S
C739   N785    1.435   .     S
C739   C764    1.416   .     A
C739   C1593   1.401   1_554 S
C740   N791    1.425   .     S
C740   C763    1.416   .     A
C740   C1594   1.392   .     S
C741   O797    1.384   .     S
C741   C746    1.396   .     A
C742   C745    1.410   .     A
C742   O799    1.386   .     S
C742   C560    1.378   1_655 S
C743   O801    1.383   .     S
C743   C745    1.399   .     A
C743   C557    1.393   1_655 S
C744   O803    1.386   .     S
C744   C746    1.409   .     A
C747   N774    1.368   .     A
C747   N805    1.419   .     S
C748   N773    1.370   .     A
C748   N811    1.422   .     S
C748   C197    1.440   1_565 S
C749   N817    1.419   .     S
C749   N774    1.372   .     A
C750   N823    1.419   .     S
C750   N773    1.373   .     A
C750   C195    1.430   1_565 S
C751   C756    1.433   .     S
C751   O779    1.292   .     A
C751   O782    1.292   .     A
C752   O780    1.290   .     A
C752   O781    1.294   .     A
C752   C755    1.433   .     S
C753   C763    1.391   .     A
C753   H767    1.077   .     S
C753   C755    1.392   .     A
C754   C764    1.391   .     A
C754   C756    1.392   .     A
C754   H768    1.078   .     S
C755   C757    1.391   .     A
C756   C758    1.391   .     A
C757   H769    1.085   .     S
C757   C759    1.382   .     A
C758   H770    1.085   .     S
C758   C760    1.382   .     A
C759   C765    1.397   .     A
C759   C761    1.410   .     A
C760   C762    1.412   .     A
C760   C766    1.397   .     A
C761   C763    1.419   .     A
C761   C1590   1.391   .     S
C762   C764    1.419   .     A
C762   C1589   1.391   1_554 S
C765   H771    1.082   .     S
C765   C1567   1.401   .     S
C766   H772    1.085   .     S
C766   C1568   1.392   1_554 S
N773   Zn783   2.025   .     S
N774   Zn784   2.025   .     S
O775   Zn783   1.979   .     S
O776   Zn784   1.979   .     S
O777   Zn783   1.980   .     S
O778   Zn784   1.980   .     S
O779   Zn783   2.013   .     S
O780   Zn784   2.013   .     S
O781   Zn783   2.015   .     S
O782   Zn784   2.015   .     S
N785   C787    1.448   .     S
N785   H786    1.031   .     S
C787   H789    1.110   .     S
C787   H1618   1.111   1_554 S
H788   C235    1.110   1_565 S
H790   C1615   1.111   .     S
N791   H792    1.030   .     S
N791   C793    1.446   .     S
C793   H796    1.110   .     S
C793   H794    1.111   .     S
C793   H243    1.111   1_565 S
O797   H798    0.990   .     S
O799   H800    0.988   .     S
O801   H802    0.990   .     S
O803   H804    0.988   .     S
N805   C807    1.446   .     S
N805   H806    1.031   .     S
C807   H810    1.109   .     S
C807   H808    1.101   .     S
C807   H809    1.113   .     S
N811   H812    1.030   .     S
N811   C813    1.447   .     S
C813   H814    1.109   .     S
C813   H815    1.108   .     S
C813   H816    1.112   .     S
N817   H818    1.028   .     S
N817   C819    1.448   .     S
C819   H820    1.110   .     S
C819   H821    1.112   .     S
C819   H822    1.108   .     S
N823   H824    1.030   .     S
N823   C825    1.447   .     S
C825   H828    1.103   .     S
C825   H827    1.113   .     S
C825   H826    1.108   .     S
C829   C838    1.402   .     S
C829   O867    1.282   .     A
C829   O870    1.283   .     A
C830   O869    1.283   .     A
C830   O868    1.284   .     A
C830   C837    1.406   .     S
C831   N877    1.435   .     S
C831   C856    1.416   .     A
C832   N883    1.425   .     S
C832   C855    1.416   .     A
C832   C30     1.392   1_556 S
C833   O889    1.384   .     S
C833   C838    1.396   .     A
C833   C1019   1.393   1_455 S
C834   C837    1.410   .     A
C834   O891    1.386   .     S
C834   C928    1.378   .     S
C835   O893    1.383   .     S
C835   C837    1.399   .     A
C835   C925    1.393   .     S
C836   O895    1.386   .     S
C836   C838    1.409   .     A
C836   C1018   1.378   1_455 S
C839   N866    1.368   .     A
C839   N897    1.419   .     S
C839   C1394   1.430   1_545 S
C840   N865    1.370   .     A
C840   N903    1.422   .     S
C840   C1117   1.440   .     S
C841   N909    1.419   .     S
C841   N866    1.372   .     A
C841   C1392   1.440   1_545 S
C842   N915    1.419   .     S
C842   N865    1.373   .     A
C842   C1115   1.430   .     S
C843   C848    1.433   .     S
C843   O871    1.292   .     A
C843   O874    1.292   .     A
C844   O872    1.290   .     A
C844   O873    1.294   .     A
C844   C847    1.433   .     S
C845   C855    1.391   .     A
C845   H859    1.077   .     S
C845   C847    1.392   .     A
C846   C856    1.391   .     A
C846   C848    1.392   .     A
C846   H860    1.078   .     S
C847   C849    1.391   .     A
C848   C850    1.391   .     A
C849   H861    1.085   .     S
C849   C851    1.382   .     A
C850   H862    1.085   .     S
C850   C852    1.382   .     A
C851   C857    1.397   .     A
C851   C853    1.410   .     A
C852   C854    1.412   .     A
C852   C858    1.397   .     A
C853   C855    1.419   .     A
C853   C26     1.391   1_556 S
C854   C856    1.419   .     A
C857   H863    1.082   .     S
C857   C3      1.401   1_556 S
C858   H864    1.085   .     S
N865   Zn875   2.025   .     S
N866   Zn876   2.025   .     S
O867   Zn875   1.979   .     S
O868   Zn876   1.979   .     S
O869   Zn875   1.980   .     S
O870   Zn876   1.980   .     S
O871   Zn875   2.013   .     S
O872   Zn876   2.013   .     S
O873   Zn875   2.015   .     S
O874   Zn876   2.015   .     S
N877   C879    1.448   .     S
N877   H878    1.031   .     S
C879   H881    1.110   .     S
C879   H1432   1.110   1_545 S
H880   C1155   1.110   .     S
H882   C51     1.111   1_556 S
N883   H884    1.030   .     S
N883   C885    1.446   .     S
C885   H888    1.110   .     S
C885   H886    1.111   .     S
C885   H1163   1.111   .     S
H887   C1437   1.111   1_545 S
O889   H890    0.990   .     S
O891   H892    0.988   .     S
O893   H894    0.990   .     S
O895   H896    0.988   .     S
N897   C899    1.446   .     S
N897   H898    1.031   .     S
C899   H902    1.109   .     S
C899   H900    1.101   .     S
C899   H901    1.113   .     S
N903   H904    1.030   .     S
N903   C905    1.447   .     S
C905   H906    1.109   .     S
C905   H907    1.108   .     S
C905   H908    1.112   .     S
N909   H910    1.028   .     S
N909   C911    1.448   .     S
C911   H912    1.110   .     S
C911   H913    1.112   .     S
C911   H914    1.108   .     S
N915   H916    1.030   .     S
N915   C917    1.447   .     S
C917   H920    1.103   .     S
C917   H919    1.113   .     S
C917   H918    1.108   .     S
C921   C930    1.402   .     S
C921   O959    1.282   .     A
C921   O962    1.283   .     A
C922   O961    1.283   .     A
C922   O960    1.284   .     A
C922   C929    1.406   .     S
C923   N969    1.435   .     S
C923   C948    1.416   .     A
C924   N975    1.425   .     S
C924   C947    1.416   .     A
C924   C122    1.392   1_556 S
C925   O981    1.384   .     S
C925   C930    1.396   .     A
C926   C929    1.410   .     A
C926   O983    1.386   .     S
C926   C1020   1.378   .     S
C927   O985    1.383   .     S
C927   C929    1.399   .     A
C927   C1017   1.393   .     S
C928   O987    1.386   .     S
C928   C930    1.409   .     A
C931   N958    1.368   .     A
C931   N989    1.419   .     S
C931   C1486   1.430   1_545 S
C932   N957    1.370   .     A
C932   N995    1.422   .     S
C932   C1209   1.440   .     S
C933   N1001   1.419   .     S
C933   N958    1.372   .     A
C933   C1484   1.440   1_545 S
C934   N1007   1.419   .     S
C934   N957    1.373   .     A
C934   C1207   1.430   .     S
C935   C940    1.433   .     S
C935   O963    1.292   .     A
C935   O966    1.292   .     A
C936   O964    1.290   .     A
C936   O965    1.294   .     A
C936   C939    1.433   .     S
C937   C947    1.391   .     A
C937   H951    1.077   .     S
C937   C939    1.392   .     A
C938   C948    1.391   .     A
C938   C940    1.392   .     A
C938   H952    1.078   .     S
C939   C941    1.391   .     A
C940   C942    1.391   .     A
C941   H953    1.085   .     S
C941   C943    1.382   .     A
C942   H954    1.085   .     S
C942   C944    1.382   .     A
C943   C949    1.397   .     A
C943   C945    1.410   .     A
C944   C946    1.412   .     A
C944   C950    1.397   .     A
C945   C947    1.419   .     A
C945   C118    1.391   1_556 S
C946   C948    1.419   .     A
C949   H955    1.082   .     S
C949   C95     1.401   1_556 S
C950   H956    1.085   .     S
N957   Zn967   2.025   .     S
N958   Zn968   2.025   .     S
O959   Zn967   1.979   .     S
O960   Zn968   1.979   .     S
O961   Zn967   1.980   .     S
O962   Zn968   1.980   .     S
O963   Zn967   2.013   .     S
O964   Zn968   2.013   .     S
O965   Zn967   2.015   .     S
O966   Zn968   2.015   .     S
N969   C971    1.448   .     S
N969   H970    1.031   .     S
C971   H973    1.110   .     S
C971   H1524   1.110   1_545 S
H972   C1247   1.110   .     S
H974   C143    1.111   1_556 S
N975   H976    1.030   .     S
N975   C977    1.446   .     S
C977   H980    1.110   .     S
C977   H978    1.111   .     S
C977   H1255   1.111   .     S
H979   C1529   1.111   1_545 S
O981   H982    0.990   .     S
O983   H984    0.988   .     S
O985   H986    0.990   .     S
O987   H988    0.988   .     S
N989   C991    1.446   .     S
N989   H990    1.031   .     S
C991   H994    1.109   .     S
C991   H992    1.101   .     S
C991   H993    1.113   .     S
N995   H996    1.030   .     S
N995   C997    1.447   .     S
C997   H998    1.109   .     S
C997   H999    1.108   .     S
C997   H1000   1.112   .     S
N1001  H1002   1.028   .     S
N1001  C1003   1.448   .     S
C1003  H1004   1.110   .     S
C1003  H1005   1.112   .     S
C1003  H1006   1.108   .     S
N1007  H1008   1.030   .     S
N1007  C1009   1.447   .     S
C1009  H1012   1.103   .     S
C1009  H1011   1.113   .     S
C1009  H1010   1.108   .     S
C1013  C1022   1.402   .     S
C1013  O1051   1.282   .     A
C1013  O1054   1.283   .     A
C1014  O1053   1.283   .     A
C1014  O1052   1.284   .     A
C1014  C1021   1.406   .     S
C1015  N1061   1.435   .     S
C1015  C1040   1.416   .     A
C1016  N1067   1.425   .     S
C1016  C1039   1.416   .     A
C1016  C214    1.392   1_556 S
C1017  O1073   1.384   .     S
C1017  C1022   1.396   .     A
C1018  C1021   1.410   .     A
C1018  O1075   1.386   .     S
C1018  C836    1.378   1_655 S
C1019  O1077   1.383   .     S
C1019  C1021   1.399   .     A
C1019  C833    1.393   1_655 S
C1020  O1079   1.386   .     S
C1020  C1022   1.409   .     A
C1023  N1050   1.368   .     A
C1023  N1081   1.419   .     S
C1023  C1578   1.430   1_545 S
C1024  N1049   1.370   .     A
C1024  N1087   1.422   .     S
C1024  C1301   1.440   .     S
C1025  N1093   1.419   .     S
C1025  N1050   1.372   .     A
C1025  C1576   1.440   1_545 S
C1026  N1099   1.419   .     S
C1026  N1049   1.373   .     A
C1026  C1299   1.430   .     S
C1027  C1032   1.433   .     S
C1027  O1055   1.292   .     A
C1027  O1058   1.292   .     A
C1028  O1056   1.290   .     A
C1028  O1057   1.294   .     A
C1028  C1031   1.433   .     S
C1029  C1039   1.391   .     A
C1029  H1043   1.077   .     S
C1029  C1031   1.392   .     A
C1030  C1040   1.391   .     A
C1030  C1032   1.392   .     A
C1030  H1044   1.078   .     S
C1031  C1033   1.391   .     A
C1032  C1034   1.391   .     A
C1033  H1045   1.085   .     S
C1033  C1035   1.382   .     A
C1034  H1046   1.085   .     S
C1034  C1036   1.382   .     A
C1035  C1041   1.397   .     A
C1035  C1037   1.410   .     A
C1036  C1038   1.412   .     A
C1036  C1042   1.397   .     A
C1037  C1039   1.419   .     A
C1037  C210    1.391   1_556 S
C1038  C1040   1.419   .     A
C1041  H1047   1.082   .     S
C1041  C187    1.401   1_556 S
C1042  H1048   1.085   .     S
N1049  Zn1059  2.025   .     S
N1050  Zn1060  2.025   .     S
O1051  Zn1059  1.979   .     S
O1052  Zn1060  1.979   .     S
O1053  Zn1059  1.980   .     S
O1054  Zn1060  1.980   .     S
O1055  Zn1059  2.013   .     S
O1056  Zn1060  2.013   .     S
O1057  Zn1059  2.015   .     S
O1058  Zn1060  2.015   .     S
N1061  C1063   1.448   .     S
N1061  H1062   1.031   .     S
C1063  H1065   1.110   .     S
C1063  H1616   1.110   1_545 S
H1064  C1339   1.110   .     S
H1066  C235    1.111   1_556 S
N1067  H1068   1.030   .     S
N1067  C1069   1.446   .     S
C1069  H1072   1.110   .     S
C1069  H1070   1.111   .     S
C1069  H1347   1.111   .     S
H1071  C1621   1.111   1_545 S
O1073  H1074   0.990   .     S
O1075  H1076   0.988   .     S
O1077  H1078   0.990   .     S
O1079  H1080   0.988   .     S
N1081  C1083   1.446   .     S
N1081  H1082   1.031   .     S
C1083  H1086   1.109   .     S
C1083  H1084   1.101   .     S
C1083  H1085   1.113   .     S
N1087  H1088   1.030   .     S
N1087  C1089   1.447   .     S
C1089  H1090   1.109   .     S
C1089  H1091   1.108   .     S
C1089  H1092   1.112   .     S
N1093  H1094   1.028   .     S
N1093  C1095   1.448   .     S
C1095  H1096   1.110   .     S
C1095  H1097   1.112   .     S
C1095  H1098   1.108   .     S
N1099  H1100   1.030   .     S
N1099  C1101   1.447   .     S
C1101  H1104   1.103   .     S
C1101  H1103   1.113   .     S
C1101  H1102   1.108   .     S
C1105  C1114   1.402   .     S
C1105  O1143   1.282   .     A
C1105  O1146   1.283   .     A
C1106  O1145   1.283   .     A
C1106  O1144   1.284   .     A
C1106  C1113   1.406   .     S
C1107  N1153   1.435   .     S
C1107  C1132   1.416   .     A
C1108  N1159   1.425   .     S
C1108  C1131   1.416   .     A
C1108  C306    1.392   1_556 S
C1109  O1165   1.384   .     S
C1109  C1114   1.396   .     A
C1109  C1295   1.393   1_455 S
C1110  C1113   1.410   .     A
C1110  O1167   1.386   .     S
C1110  C1204   1.378   .     S
C1111  O1169   1.383   .     S
C1111  C1113   1.399   .     A
C1111  C1201   1.393   .     S
C1112  O1171   1.386   .     S
C1112  C1114   1.409   .     A
C1112  C1294   1.378   1_455 S
C1115  N1142   1.368   .     A
C1115  N1173   1.419   .     S
C1116  N1141   1.370   .     A
C1116  N1179   1.422   .     S
C1116  C1393   1.440   .     S
C1117  N1185   1.419   .     S
C1117  N1142   1.372   .     A
C1118  N1191   1.419   .     S
C1118  N1141   1.373   .     A
C1118  C1391   1.430   .     S
C1119  C1124   1.433   .     S
C1119  O1147   1.292   .     A
C1119  O1150   1.292   .     A
C1120  O1148   1.290   .     A
C1120  O1149   1.294   .     A
C1120  C1123   1.433   .     S
C1121  C1131   1.391   .     A
C1121  H1135   1.077   .     S
C1121  C1123   1.392   .     A
C1122  C1132   1.391   .     A
C1122  C1124   1.392   .     A
C1122  H1136   1.078   .     S
C1123  C1125   1.391   .     A
C1124  C1126   1.391   .     A
C1125  H1137   1.085   .     S
C1125  C1127   1.382   .     A
C1126  H1138   1.085   .     S
C1126  C1128   1.382   .     A
C1127  C1133   1.397   .     A
C1127  C1129   1.410   .     A
C1128  C1130   1.412   .     A
C1128  C1134   1.397   .     A
C1129  C1131   1.419   .     A
C1129  C302    1.391   1_556 S
C1130  C1132   1.419   .     A
C1133  H1139   1.082   .     S
C1133  C279    1.401   1_556 S
C1134  H1140   1.085   .     S
N1141  Zn1151  2.025   .     S
N1142  Zn1152  2.025   .     S
O1143  Zn1151  1.979   .     S
O1144  Zn1152  1.979   .     S
O1145  Zn1151  1.980   .     S
O1146  Zn1152  1.980   .     S
O1147  Zn1151  2.013   .     S
O1148  Zn1152  2.013   .     S
O1149  Zn1151  2.015   .     S
O1150  Zn1152  2.015   .     S
N1153  C1155   1.448   .     S
N1153  H1154   1.031   .     S
C1155  H1157   1.110   .     S
H1156  C1431   1.110   .     S
H1158  C327    1.111   1_556 S
N1159  H1160   1.030   .     S
N1159  C1161   1.446   .     S
C1161  H1164   1.110   .     S
C1161  H1162   1.111   .     S
C1161  H1439   1.111   .     S
O1165  H1166   0.990   .     S
O1167  H1168   0.988   .     S
O1169  H1170   0.990   .     S
O1171  H1172   0.988   .     S
N1173  C1175   1.446   .     S
N1173  H1174   1.031   .     S
C1175  H1178   1.109   .     S
C1175  H1176   1.101   .     S
C1175  H1177   1.113   .     S
N1179  H1180   1.030   .     S
N1179  C1181   1.447   .     S
C1181  H1182   1.109   .     S
C1181  H1183   1.108   .     S
C1181  H1184   1.112   .     S
N1185  H1186   1.028   .     S
N1185  C1187   1.448   .     S
C1187  H1188   1.110   .     S
C1187  H1189   1.112   .     S
C1187  H1190   1.108   .     S
N1191  H1192   1.030   .     S
N1191  C1193   1.447   .     S
C1193  H1196   1.103   .     S
C1193  H1195   1.113   .     S
C1193  H1194   1.108   .     S
C1197  C1206   1.402   .     S
C1197  O1235   1.282   .     A
C1197  O1238   1.283   .     A
C1198  O1237   1.283   .     A
C1198  O1236   1.284   .     A
C1198  C1205   1.406   .     S
C1199  N1245   1.435   .     S
C1199  C1224   1.416   .     A
C1200  N1251   1.425   .     S
C1200  C1223   1.416   .     A
C1200  C398    1.392   1_556 S
C1201  O1257   1.384   .     S
C1201  C1206   1.396   .     A
C1202  C1205   1.410   .     A
C1202  O1259   1.386   .     S
C1202  C1296   1.378   .     S
C1203  O1261   1.383   .     S
C1203  C1205   1.399   .     A
C1203  C1293   1.393   .     S
C1204  O1263   1.386   .     S
C1204  C1206   1.409   .     A
C1207  N1234   1.368   .     A
C1207  N1265   1.419   .     S
C1208  N1233   1.370   .     A
C1208  N1271   1.422   .     S
C1208  C1485   1.440   .     S
C1209  N1277   1.419   .     S
C1209  N1234   1.372   .     A
C1210  N1283   1.419   .     S
C1210  N1233   1.373   .     A
C1210  C1483   1.430   .     S
C1211  C1216   1.433   .     S
C1211  O1239   1.292   .     A
C1211  O1242   1.292   .     A
C1212  O1240   1.290   .     A
C1212  O1241   1.294   .     A
C1212  C1215   1.433   .     S
C1213  C1223   1.391   .     A
C1213  H1227   1.077   .     S
C1213  C1215   1.392   .     A
C1214  C1224   1.391   .     A
C1214  C1216   1.392   .     A
C1214  H1228   1.078   .     S
C1215  C1217   1.391   .     A
C1216  C1218   1.391   .     A
C1217  H1229   1.085   .     S
C1217  C1219   1.382   .     A
C1218  H1230   1.085   .     S
C1218  C1220   1.382   .     A
C1219  C1225   1.397   .     A
C1219  C1221   1.410   .     A
C1220  C1222   1.412   .     A
C1220  C1226   1.397   .     A
C1221  C1223   1.419   .     A
C1221  C394    1.391   1_556 S
C1222  C1224   1.419   .     A
C1225  H1231   1.082   .     S
C1225  C371    1.401   1_556 S
C1226  H1232   1.085   .     S
N1233  Zn1243  2.025   .     S
N1234  Zn1244  2.025   .     S
O1235  Zn1243  1.979   .     S
O1236  Zn1244  1.979   .     S
O1237  Zn1243  1.980   .     S
O1238  Zn1244  1.980   .     S
O1239  Zn1243  2.013   .     S
O1240  Zn1244  2.013   .     S
O1241  Zn1243  2.015   .     S
O1242  Zn1244  2.015   .     S
N1245  C1247   1.448   .     S
N1245  H1246   1.031   .     S
C1247  H1249   1.110   .     S
H1248  C1523   1.110   .     S
H1250  C419    1.111   1_556 S
N1251  H1252   1.030   .     S
N1251  C1253   1.446   .     S
C1253  H1256   1.110   .     S
C1253  H1254   1.111   .     S
C1253  H1531   1.111   .     S
O1257  H1258   0.990   .     S
O1259  H1260   0.988   .     S
O1261  H1262   0.990   .     S
O1263  H1264   0.988   .     S
N1265  C1267   1.446   .     S
N1265  H1266   1.031   .     S
C1267  H1270   1.109   .     S
C1267  H1268   1.101   .     S
C1267  H1269   1.113   .     S
N1271  H1272   1.030   .     S
N1271  C1273   1.447   .     S
C1273  H1274   1.109   .     S
C1273  H1275   1.108   .     S
C1273  H1276   1.112   .     S
N1277  H1278   1.028   .     S
N1277  C1279   1.448   .     S
C1279  H1280   1.110   .     S
C1279  H1281   1.112   .     S
C1279  H1282   1.108   .     S
N1283  H1284   1.030   .     S
N1283  C1285   1.447   .     S
C1285  H1288   1.103   .     S
C1285  H1287   1.113   .     S
C1285  H1286   1.108   .     S
C1289  C1298   1.402   .     S
C1289  O1327   1.282   .     A
C1289  O1330   1.283   .     A
C1290  O1329   1.283   .     A
C1290  O1328   1.284   .     A
C1290  C1297   1.406   .     S
C1291  N1337   1.435   .     S
C1291  C1316   1.416   .     A
C1292  N1343   1.425   .     S
C1292  C1315   1.416   .     A
C1292  C490    1.392   1_556 S
C1293  O1349   1.384   .     S
C1293  C1298   1.396   .     A
C1294  C1297   1.410   .     A
C1294  O1351   1.386   .     S
C1294  C1112   1.378   1_655 S
C1295  O1353   1.383   .     S
C1295  C1297   1.399   .     A
C1295  C1109   1.393   1_655 S
C1296  O1355   1.386   .     S
C1296  C1298   1.409   .     A
C1299  N1326   1.368   .     A
C1299  N1357   1.419   .     S
C1300  N1325   1.370   .     A
C1300  N1363   1.422   .     S
C1300  C1577   1.440   .     S
C1301  N1369   1.419   .     S
C1301  N1326   1.372   .     A
C1302  N1375   1.419   .     S
C1302  N1325   1.373   .     A
C1302  C1575   1.430   .     S
C1303  C1308   1.433   .     S
C1303  O1331   1.292   .     A
C1303  O1334   1.292   .     A
C1304  O1332   1.290   .     A
C1304  O1333   1.294   .     A
C1304  C1307   1.433   .     S
C1305  C1315   1.391   .     A
C1305  H1319   1.077   .     S
C1305  C1307   1.392   .     A
C1306  C1316   1.391   .     A
C1306  C1308   1.392   .     A
C1306  H1320   1.078   .     S
C1307  C1309   1.391   .     A
C1308  C1310   1.391   .     A
C1309  H1321   1.085   .     S
C1309  C1311   1.382   .     A
C1310  H1322   1.085   .     S
C1310  C1312   1.382   .     A
C1311  C1317   1.397   .     A
C1311  C1313   1.410   .     A
C1312  C1314   1.412   .     A
C1312  C1318   1.397   .     A
C1313  C1315   1.419   .     A
C1313  C486    1.391   1_556 S
C1314  C1316   1.419   .     A
C1317  H1323   1.082   .     S
C1317  C463    1.401   1_556 S
C1318  H1324   1.085   .     S
N1325  Zn1335  2.025   .     S
N1326  Zn1336  2.025   .     S
O1327  Zn1335  1.979   .     S
O1328  Zn1336  1.979   .     S
O1329  Zn1335  1.980   .     S
O1330  Zn1336  1.980   .     S
O1331  Zn1335  2.013   .     S
O1332  Zn1336  2.013   .     S
O1333  Zn1335  2.015   .     S
O1334  Zn1336  2.015   .     S
N1337  C1339   1.448   .     S
N1337  H1338   1.031   .     S
C1339  H1341   1.110   .     S
H1340  C1615   1.110   .     S
H1342  C511    1.111   1_556 S
N1343  H1344   1.030   .     S
N1343  C1345   1.446   .     S
C1345  H1348   1.110   .     S
C1345  H1346   1.111   .     S
C1345  H1623   1.111   .     S
O1349  H1350   0.990   .     S
O1351  H1352   0.988   .     S
O1353  H1354   0.990   .     S
O1355  H1356   0.988   .     S
N1357  C1359   1.446   .     S
N1357  H1358   1.031   .     S
C1359  H1362   1.109   .     S
C1359  H1360   1.101   .     S
C1359  H1361   1.113   .     S
N1363  H1364   1.030   .     S
N1363  C1365   1.447   .     S
C1365  H1366   1.109   .     S
C1365  H1367   1.108   .     S
C1365  H1368   1.112   .     S
N1369  H1370   1.028   .     S
N1369  C1371   1.448   .     S
C1371  H1372   1.110   .     S
C1371  H1373   1.112   .     S
C1371  H1374   1.108   .     S
N1375  H1376   1.030   .     S
N1375  C1377   1.447   .     S
C1377  H1380   1.103   .     S
C1377  H1379   1.113   .     S
C1377  H1378   1.108   .     S
C1381  C1390   1.402   .     S
C1381  O1419   1.282   .     A
C1381  O1422   1.283   .     A
C1382  O1421   1.283   .     A
C1382  O1420   1.284   .     A
C1382  C1389   1.406   .     S
C1383  N1429   1.435   .     S
C1383  C1408   1.416   .     A
C1384  N1435   1.425   .     S
C1384  C1407   1.416   .     A
C1384  C582    1.392   1_556 S
C1385  O1441   1.384   .     S
C1385  C1390   1.396   .     A
C1385  C1571   1.393   1_455 S
C1386  C1389   1.410   .     A
C1386  O1443   1.386   .     S
C1386  C1480   1.378   .     S
C1387  O1445   1.383   .     S
C1387  C1389   1.399   .     A
C1387  C1477   1.393   .     S
C1388  O1447   1.386   .     S
C1388  C1390   1.409   .     A
C1388  C1570   1.378   1_455 S
C1391  N1418   1.368   .     A
C1391  N1449   1.419   .     S
C1392  N1417   1.370   .     A
C1392  N1455   1.422   .     S
C1392  C841    1.440   1_565 S
C1393  N1461   1.419   .     S
C1393  N1418   1.372   .     A
C1394  N1467   1.419   .     S
C1394  N1417   1.373   .     A
C1394  C839    1.430   1_565 S
C1395  C1400   1.433   .     S
C1395  O1423   1.292   .     A
C1395  O1426   1.292   .     A
C1396  O1424   1.290   .     A
C1396  O1425   1.294   .     A
C1396  C1399   1.433   .     S
C1397  C1407   1.391   .     A
C1397  H1411   1.077   .     S
C1397  C1399   1.392   .     A
C1398  C1408   1.391   .     A
C1398  C1400   1.392   .     A
C1398  H1412   1.078   .     S
C1399  C1401   1.391   .     A
C1400  C1402   1.391   .     A
C1401  H1413   1.085   .     S
C1401  C1403   1.382   .     A
C1402  H1414   1.085   .     S
C1402  C1404   1.382   .     A
C1403  C1409   1.397   .     A
C1403  C1405   1.410   .     A
C1404  C1406   1.412   .     A
C1404  C1410   1.397   .     A
C1405  C1407   1.419   .     A
C1405  C578    1.391   1_556 S
C1406  C1408   1.419   .     A
C1409  H1415   1.082   .     S
C1409  C555    1.401   1_556 S
C1410  H1416   1.085   .     S
N1417  Zn1427  2.025   .     S
N1418  Zn1428  2.025   .     S
O1419  Zn1427  1.979   .     S
O1420  Zn1428  1.979   .     S
O1421  Zn1427  1.980   .     S
O1422  Zn1428  1.980   .     S
O1423  Zn1427  2.013   .     S
O1424  Zn1428  2.013   .     S
O1425  Zn1427  2.015   .     S
O1426  Zn1428  2.015   .     S
N1429  C1431   1.448   .     S
N1429  H1430   1.031   .     S
C1431  H1433   1.110   .     S
H1432  C879    1.110   1_565 S
H1434  C603    1.111   1_556 S
N1435  H1436   1.030   .     S
N1435  C1437   1.446   .     S
C1437  H1440   1.110   .     S
C1437  H1438   1.111   .     S
C1437  H887    1.111   1_565 S
O1441  H1442   0.990   .     S
O1443  H1444   0.988   .     S
O1445  H1446   0.990   .     S
O1447  H1448   0.988   .     S
N1449  C1451   1.446   .     S
N1449  H1450   1.031   .     S
C1451  H1454   1.109   .     S
C1451  H1452   1.101   .     S
C1451  H1453   1.113   .     S
N1455  H1456   1.030   .     S
N1455  C1457   1.447   .     S
C1457  H1458   1.109   .     S
C1457  H1459   1.108   .     S
C1457  H1460   1.112   .     S
N1461  H1462   1.028   .     S
N1461  C1463   1.448   .     S
C1463  H1464   1.110   .     S
C1463  H1465   1.112   .     S
C1463  H1466   1.108   .     S
N1467  H1468   1.030   .     S
N1467  C1469   1.447   .     S
C1469  H1472   1.103   .     S
C1469  H1471   1.113   .     S
C1469  H1470   1.108   .     S
C1473  C1482   1.402   .     S
C1473  O1511   1.282   .     A
C1473  O1514   1.283   .     A
C1474  O1513   1.283   .     A
C1474  O1512   1.284   .     A
C1474  C1481   1.406   .     S
C1475  N1521   1.435   .     S
C1475  C1500   1.416   .     A
C1476  N1527   1.425   .     S
C1476  C1499   1.416   .     A
C1476  C674    1.392   1_556 S
C1477  O1533   1.384   .     S
C1477  C1482   1.396   .     A
C1478  C1481   1.410   .     A
C1478  O1535   1.386   .     S
C1478  C1572   1.378   .     S
C1479  O1537   1.383   .     S
C1479  C1481   1.399   .     A
C1479  C1569   1.393   .     S
C1480  O1539   1.386   .     S
C1480  C1482   1.409   .     A
C1483  N1510   1.368   .     A
C1483  N1541   1.419   .     S
C1484  N1509   1.370   .     A
C1484  N1547   1.422   .     S
C1484  C933    1.440   1_565 S
C1485  N1553   1.419   .     S
C1485  N1510   1.372   .     A
C1486  N1559   1.419   .     S
C1486  N1509   1.373   .     A
C1486  C931    1.430   1_565 S
C1487  C1492   1.433   .     S
C1487  O1515   1.292   .     A
C1487  O1518   1.292   .     A
C1488  O1516   1.290   .     A
C1488  O1517   1.294   .     A
C1488  C1491   1.433   .     S
C1489  C1499   1.391   .     A
C1489  H1503   1.077   .     S
C1489  C1491   1.392   .     A
C1490  C1500   1.391   .     A
C1490  C1492   1.392   .     A
C1490  H1504   1.078   .     S
C1491  C1493   1.391   .     A
C1492  C1494   1.391   .     A
C1493  H1505   1.085   .     S
C1493  C1495   1.382   .     A
C1494  H1506   1.085   .     S
C1494  C1496   1.382   .     A
C1495  C1501   1.397   .     A
C1495  C1497   1.410   .     A
C1496  C1498   1.412   .     A
C1496  C1502   1.397   .     A
C1497  C1499   1.419   .     A
C1497  C670    1.391   1_556 S
C1498  C1500   1.419   .     A
C1501  H1507   1.082   .     S
C1501  C647    1.401   1_556 S
C1502  H1508   1.085   .     S
N1509  Zn1519  2.025   .     S
N1510  Zn1520  2.025   .     S
O1511  Zn1519  1.979   .     S
O1512  Zn1520  1.979   .     S
O1513  Zn1519  1.980   .     S
O1514  Zn1520  1.980   .     S
O1515  Zn1519  2.013   .     S
O1516  Zn1520  2.013   .     S
O1517  Zn1519  2.015   .     S
O1518  Zn1520  2.015   .     S
N1521  C1523   1.448   .     S
N1521  H1522   1.031   .     S
C1523  H1525   1.110   .     S
H1524  C971    1.110   1_565 S
H1526  C695    1.111   1_556 S
N1527  H1528   1.030   .     S
N1527  C1529   1.446   .     S
C1529  H1532   1.110   .     S
C1529  H1530   1.111   .     S
C1529  H979    1.111   1_565 S
O1533  H1534   0.990   .     S
O1535  H1536   0.988   .     S
O1537  H1538   0.990   .     S
O1539  H1540   0.988   .     S
N1541  C1543   1.446   .     S
N1541  H1542   1.031   .     S
C1543  H1546   1.109   .     S
C1543  H1544   1.101   .     S
C1543  H1545   1.113   .     S
N1547  H1548   1.030   .     S
N1547  C1549   1.447   .     S
C1549  H1550   1.109   .     S
C1549  H1551   1.108   .     S
C1549  H1552   1.112   .     S
N1553  H1554   1.028   .     S
N1553  C1555   1.448   .     S
C1555  H1556   1.110   .     S
C1555  H1557   1.112   .     S
C1555  H1558   1.108   .     S
N1559  H1560   1.030   .     S
N1559  C1561   1.447   .     S
C1561  H1564   1.103   .     S
C1561  H1563   1.113   .     S
C1561  H1562   1.108   .     S
C1565  C1574   1.402   .     S
C1565  O1603   1.282   .     A
C1565  O1606   1.283   .     A
C1566  O1605   1.283   .     A
C1566  O1604   1.284   .     A
C1566  C1573   1.406   .     S
C1567  N1613   1.435   .     S
C1567  C1592   1.416   .     A
C1568  N1619   1.425   .     S
C1568  C1591   1.416   .     A
C1568  C766    1.392   1_556 S
C1569  O1625   1.384   .     S
C1569  C1574   1.396   .     A
C1570  C1573   1.410   .     A
C1570  O1627   1.386   .     S
C1570  C1388   1.378   1_655 S
C1571  O1629   1.383   .     S
C1571  C1573   1.399   .     A
C1571  C1385   1.393   1_655 S
C1572  O1631   1.386   .     S
C1572  C1574   1.409   .     A
C1575  N1602   1.368   .     A
C1575  N1633   1.419   .     S
C1576  N1601   1.370   .     A
C1576  N1639   1.422   .     S
C1576  C1025   1.440   1_565 S
C1577  N1645   1.419   .     S
C1577  N1602   1.372   .     A
C1578  N1651   1.419   .     S
C1578  N1601   1.373   .     A
C1578  C1023   1.430   1_565 S
C1579  C1584   1.433   .     S
C1579  O1607   1.292   .     A
C1579  O1610   1.292   .     A
C1580  O1608   1.290   .     A
C1580  O1609   1.294   .     A
C1580  C1583   1.433   .     S
C1581  C1591   1.391   .     A
C1581  H1595   1.077   .     S
C1581  C1583   1.392   .     A
C1582  C1592   1.391   .     A
C1582  C1584   1.392   .     A
C1582  H1596   1.078   .     S
C1583  C1585   1.391   .     A
C1584  C1586   1.391   .     A
C1585  H1597   1.085   .     S
C1585  C1587   1.382   .     A
C1586  H1598   1.085   .     S
C1586  C1588   1.382   .     A
C1587  C1593   1.397   .     A
C1587  C1589   1.410   .     A
C1588  C1590   1.412   .     A
C1588  C1594   1.397   .     A
C1589  C1591   1.419   .     A
C1589  C762    1.391   1_556 S
C1590  C1592   1.419   .     A
C1593  H1599   1.082   .     S
C1593  C739    1.401   1_556 S
C1594  H1600   1.085   .     S
N1601  Zn1611  2.025   .     S
N1602  Zn1612  2.025   .     S
O1603  Zn1611  1.979   .     S
O1604  Zn1612  1.979   .     S
O1605  Zn1611  1.980   .     S
O1606  Zn1612  1.980   .     S
O1607  Zn1611  2.013   .     S
O1608  Zn1612  2.013   .     S
O1609  Zn1611  2.015   .     S
O1610  Zn1612  2.015   .     S
N1613  C1615   1.448   .     S
N1613  H1614   1.031   .     S
C1615  H1617   1.110   .     S
H1616  C1063   1.110   1_565 S
H1618  C787    1.111   1_556 S
N1619  H1620   1.030   .     S
N1619  C1621   1.446   .     S
C1621  H1624   1.110   .     S
C1621  H1622   1.111   .     S
C1621  H1071   1.111   1_565 S
O1625  H1626   0.990   .     S
O1627  H1628   0.988   .     S
O1629  H1630   0.990   .     S
O1631  H1632   0.988   .     S
N1633  C1635   1.446   .     S
N1633  H1634   1.031   .     S
C1635  H1638   1.109   .     S
C1635  H1636   1.101   .     S
C1635  H1637   1.113   .     S
N1639  H1640   1.030   .     S
N1639  C1641   1.447   .     S
C1641  H1642   1.109   .     S
C1641  H1643   1.108   .     S
C1641  H1644   1.112   .     S
N1645  H1646   1.028   .     S
N1645  C1647   1.448   .     S
C1647  H1648   1.110   .     S
C1647  H1649   1.112   .     S
C1647  H1650   1.108   .     S
N1651  H1652   1.030   .     S
N1651  C1653   1.447   .     S
C1653  H1656   1.103   .     S
C1653  H1655   1.113   .     S
C1653  H1654   1.108   .     S
