data_str_m3_o1_o17_pcu_sym.70
_audit_creation_date              2020-01-03
_audit_creation_method            'Materials Studio'
_symmetry_space_group_name_H-M    'P1'
_symmetry_Int_Tables_number       1
_symmetry_cell_setting            triclinic
loop_
_symmetry_equiv_pos_as_xyz
  x,y,z
_cell_length_a                    32.2406
_cell_length_b                    29.7528
_cell_length_c                    29.8296
_cell_angle_alpha                 88.6547
_cell_angle_beta                  92.1448
_cell_angle_gamma                 86.9097
loop_
_atom_site_label
_atom_site_type_symbol
_atom_site_fract_x
_atom_site_fract_y
_atom_site_fract_z
_atom_site_U_iso_or_equiv
_atom_site_adp_type
_atom_site_occupancy
C1     C     0.08669   0.16798   0.25108   0.00000  Uiso   1.00
C2     C     0.04228   0.17069   0.25436   0.00000  Uiso   1.00
C3     C     0.18660   0.02149   0.28397   0.00000  Uiso   1.00
C4     C     0.14673   0.31184   0.21603   0.00000  Uiso   1.00
C5     C     0.14601   0.02635   0.21668   0.00000  Uiso   1.00
C6     C     0.18731   0.30698   0.28332   0.00000  Uiso   1.00
C7     C     0.16637   0.16715   0.16369   0.00000  Uiso   1.00
C8     C     0.16697   0.16622   0.33631   0.00000  Uiso   1.00
C9     C     0.20498   0.15489   0.40806   0.00000  Uiso   1.00
C10    C     0.12824   0.17863   0.09207   0.00000  Uiso   1.00
C11    C     0.16785   0.16558   0.38398   0.00000  Uiso   1.00
C12    C     0.24665   0.16538   0.24897   0.00000  Uiso   1.00
C13    C     0.16550   0.16836   0.11603   0.00000  Uiso   1.00
C14    C     0.13151   0.17812   0.40422   0.00000  Uiso   1.00
C15    C     0.20252   0.15956   0.09559   0.00000  Uiso   1.00
C16    C     0.13035   0.17855   0.45052   0.00000  Uiso   1.00
C17    C     0.20391   0.16109   0.04926   0.00000  Uiso   1.00
C18    C     0.16777   0.16942   0.47642   0.00000  Uiso   1.00
C19    C     0.16648   0.16997   0.02336   0.00000  Uiso   1.00
C20    C     0.20633   0.15962   0.45522   0.00000  Uiso   1.00
C21    C     0.12787   0.17902   0.04458   0.00000  Uiso   1.00
C22    C     0.09233   0.18794   0.47106   0.00000  Uiso   1.00
C23    C     0.09090   0.18794   0.01773   0.00000  Uiso   1.00
C24    C     0.24229   0.15486   0.02866   0.00000  Uiso   1.00
C25    C     0.05025   0.10931   0.31419   0.00000  Uiso   1.00
C26    C     0.28314   0.22442   0.18626   0.00000  Uiso   1.00
C27    C     0.29712   0.09224   0.29502   0.00000  Uiso   1.00
C28    C     0.03615   0.24168   0.20588   0.00000  Uiso   1.00
C29    C     0.24386   0.15533   0.48215   0.00000  Uiso   1.00
C30    C     0.02435   0.13683   0.27970   0.00000  Uiso   1.00
C31    C     0.30902   0.19672   0.22065   0.00000  Uiso   1.00
C32    C     0.31533   0.13123   0.27329   0.00000  Uiso   1.00
C33    C     0.01801   0.20238   0.22717   0.00000  Uiso   1.00
C34    C     0.29108   0.16277   0.24590   0.00000  Uiso   1.00
H35    H     0.10401   0.18633   0.38301   0.00000  Uiso   1.00
H36    H     0.28427   0.17684   0.07476   0.00000  Uiso   1.00
H37    H     0.03914   0.22840   0.02599   0.00000  Uiso   1.00
H38    H     0.03115   0.17240   0.02642   0.00000  Uiso   1.00
H39    H     0.28696   0.18421   0.44367   0.00000  Uiso   1.00
H40    H     0.29242   0.12561   0.44864   0.00000  Uiso   1.00
H41    H     0.07626   0.12411   0.33135   0.00000  Uiso   1.00
H42    H     0.25715   0.20970   0.16899   0.00000  Uiso   1.00
H43    H     0.29429   0.09078   0.33110   0.00000  Uiso   1.00
H44    H     0.03840   0.24387   0.16976   0.00000  Uiso   1.00
H45    H     0.22023   0.06991   0.31137   0.00000  Uiso   1.00
H46    H     0.23022   0.15203   0.11668   0.00000  Uiso   1.00
H47    H     0.18186   0.05149   0.34335   0.00000  Uiso   1.00
H48    H     0.11303   0.26343   0.18858   0.00000  Uiso   1.00
H49    H     0.15147   0.28181   0.15665   0.00000  Uiso   1.00
H50    H     0.09216   0.04429   0.18253   0.00000  Uiso   1.00
H51    H     0.13506   0.04440   0.15139   0.00000  Uiso   1.00
H52    H     0.24115   0.28905   0.31751   0.00000  Uiso   1.00
H53    H     0.19823   0.28892   0.34862   0.00000  Uiso   1.00
H54    H     0.26262   0.15856   0.38112   0.00000  Uiso   1.00
H55    H     0.24895   0.10465   0.39710   0.00000  Uiso   1.00
H56    H     0.07993   0.22095   0.10923   0.00000  Uiso   1.00
H57    H     0.07018   0.16422   0.11153   0.00000  Uiso   1.00
H58    H     0.04834   0.16932   0.42539   0.00000  Uiso   1.00
H59    H     0.05689   0.22558   0.42465   0.00000  Uiso   1.00
H60    H     0.28052   0.11973   0.07446   0.00000  Uiso   1.00
N61    N     0.16667   0.28573   0.25000   0.00000  Uiso   1.00
N62    N     0.12787   0.29167   0.17798   0.00000  Uiso   1.00
N63    N     0.12321   0.05278   0.18244   0.00000  Uiso   1.00
N64    N     0.21010   0.28055   0.31758   0.00000  Uiso   1.00
N65    N     0.16667   0.04760   0.25000   0.00000  Uiso   1.00
N66    N     0.23895   0.13622   0.38348   0.00000  Uiso   1.00
N67    N     0.09197   0.18837   0.11742   0.00000  Uiso   1.00
N68    N     0.05413   0.19702   0.44518   0.00000  Uiso   1.00
N69    N     0.28089   0.14900   0.05444   0.00000  Uiso   1.00
N70    N     0.05133   0.19666   0.03721   0.00000  Uiso   1.00
N71    N     0.28456   0.15567   0.46428   0.00000  Uiso   1.00
N72    N     0.20546   0.04165   0.32201   0.00000  Uiso   1.00
O73    O     0.10559   0.20487   0.25000   0.00000  Uiso   1.00
O74    O     0.28938   0.26381   0.17802   0.00000  Uiso   1.00
O75    O     0.28790   0.06014   0.27266   0.00000  Uiso   1.00
O76    O     0.04591   0.27325   0.22871   0.00000  Uiso   1.00
O77    O     0.22774   0.12846   0.25000   0.00000  Uiso   1.00
O78    O     0.22774   0.20487   0.25001   0.00000  Uiso   1.00
O79    O     0.10559   0.12846   0.25000   0.00000  Uiso   1.00
O80    O     0.16666   0.20489   0.18393   0.00000  Uiso   1.00
O81    O     0.16667   0.12844   0.31608   0.00000  Uiso   1.00
O82    O     0.16667   0.20489   0.31608   0.00000  Uiso   1.00
O83    O     0.16666   0.12844   0.18393   0.00000  Uiso   1.00
O84    O     0.04395   0.06998   0.32269   0.00000  Uiso   1.00
Zn85   Zn    0.16667   0.21771   0.25000   0.00000  Uiso   1.00
Zn86   Zn    0.16667   0.11563   0.25000   0.00000  Uiso   1.00
C87    C     0.42002   0.16798   0.25108   0.00000  Uiso   1.00
C88    C     0.37561   0.17069   0.25436   0.00000  Uiso   1.00
C89    C     0.51993   0.02149   0.28397   0.00000  Uiso   1.00
C90    C     0.48006   0.31184   0.21603   0.00000  Uiso   1.00
C91    C     0.47934   0.02635   0.21668   0.00000  Uiso   1.00
C92    C     0.52065   0.30698   0.28332   0.00000  Uiso   1.00
C93    C     0.49970   0.16715   0.16369   0.00000  Uiso   1.00
C94    C     0.50031   0.16622   0.33631   0.00000  Uiso   1.00
C95    C     0.53831   0.15489   0.40806   0.00000  Uiso   1.00
C96    C     0.46157   0.17863   0.09207   0.00000  Uiso   1.00
C97    C     0.50118   0.16558   0.38398   0.00000  Uiso   1.00
C98    C     0.57998   0.16538   0.24897   0.00000  Uiso   1.00
C99    C     0.49883   0.16836   0.11603   0.00000  Uiso   1.00
C100   C     0.46485   0.17812   0.40422   0.00000  Uiso   1.00
C101   C     0.53585   0.15956   0.09559   0.00000  Uiso   1.00
C102   C     0.46368   0.17855   0.45052   0.00000  Uiso   1.00
C103   C     0.53724   0.16109   0.04926   0.00000  Uiso   1.00
C104   C     0.50111   0.16942   0.47642   0.00000  Uiso   1.00
C105   C     0.49981   0.16997   0.02336   0.00000  Uiso   1.00
C106   C     0.53966   0.15962   0.45522   0.00000  Uiso   1.00
C107   C     0.46121   0.17902   0.04458   0.00000  Uiso   1.00
C108   C     0.42567   0.18794   0.47106   0.00000  Uiso   1.00
C109   C     0.42424   0.18794   0.01773   0.00000  Uiso   1.00
C110   C     0.57562   0.15486   0.02866   0.00000  Uiso   1.00
C111   C     0.38358   0.10931   0.31419   0.00000  Uiso   1.00
C112   C     0.61647   0.22442   0.18626   0.00000  Uiso   1.00
C113   C     0.63045   0.09224   0.29502   0.00000  Uiso   1.00
C114   C     0.36948   0.24168   0.20588   0.00000  Uiso   1.00
C115   C     0.57719   0.15533   0.48215   0.00000  Uiso   1.00
C116   C     0.35768   0.13683   0.27970   0.00000  Uiso   1.00
C117   C     0.64235   0.19672   0.22065   0.00000  Uiso   1.00
C118   C     0.64867   0.13123   0.27329   0.00000  Uiso   1.00
C119   C     0.35134   0.20238   0.22717   0.00000  Uiso   1.00
C120   C     0.62441   0.16277   0.24590   0.00000  Uiso   1.00
H121   H     0.43734   0.18633   0.38301   0.00000  Uiso   1.00
H122   H     0.61761   0.17684   0.07476   0.00000  Uiso   1.00
H123   H     0.37247   0.22840   0.02599   0.00000  Uiso   1.00
H124   H     0.36449   0.17240   0.02642   0.00000  Uiso   1.00
H125   H     0.62029   0.18421   0.44367   0.00000  Uiso   1.00
H126   H     0.62576   0.12561   0.44864   0.00000  Uiso   1.00
H127   H     0.40960   0.12411   0.33135   0.00000  Uiso   1.00
H128   H     0.59049   0.20970   0.16899   0.00000  Uiso   1.00
H129   H     0.62762   0.09078   0.33110   0.00000  Uiso   1.00
H130   H     0.37173   0.24387   0.16976   0.00000  Uiso   1.00
H131   H     0.55357   0.06991   0.31137   0.00000  Uiso   1.00
H132   H     0.56355   0.15203   0.11668   0.00000  Uiso   1.00
H133   H     0.51519   0.05149   0.34335   0.00000  Uiso   1.00
H134   H     0.44637   0.26343   0.18858   0.00000  Uiso   1.00
H135   H     0.48480   0.28181   0.15665   0.00000  Uiso   1.00
H136   H     0.42550   0.04429   0.18253   0.00000  Uiso   1.00
H137   H     0.46840   0.04440   0.15139   0.00000  Uiso   1.00
H138   H     0.57448   0.28905   0.31751   0.00000  Uiso   1.00
H139   H     0.53156   0.28892   0.34862   0.00000  Uiso   1.00
H140   H     0.59596   0.15856   0.38112   0.00000  Uiso   1.00
H141   H     0.58228   0.10465   0.39710   0.00000  Uiso   1.00
H142   H     0.41326   0.22095   0.10923   0.00000  Uiso   1.00
H143   H     0.40352   0.16422   0.11153   0.00000  Uiso   1.00
H144   H     0.38167   0.16932   0.42539   0.00000  Uiso   1.00
H145   H     0.39023   0.22558   0.42465   0.00000  Uiso   1.00
H146   H     0.61385   0.11973   0.07446   0.00000  Uiso   1.00
N147   N     0.50000   0.28573   0.25000   0.00000  Uiso   1.00
N148   N     0.46120   0.29167   0.17798   0.00000  Uiso   1.00
N149   N     0.45654   0.05278   0.18244   0.00000  Uiso   1.00
N150   N     0.54344   0.28055   0.31758   0.00000  Uiso   1.00
N151   N     0.50000   0.04760   0.25000   0.00000  Uiso   1.00
N152   N     0.57228   0.13622   0.38348   0.00000  Uiso   1.00
N153   N     0.42530   0.18837   0.11742   0.00000  Uiso   1.00
N154   N     0.38746   0.19702   0.44518   0.00000  Uiso   1.00
N155   N     0.61422   0.14900   0.05444   0.00000  Uiso   1.00
N156   N     0.38466   0.19666   0.03721   0.00000  Uiso   1.00
N157   N     0.61789   0.15567   0.46428   0.00000  Uiso   1.00
N158   N     0.53879   0.04165   0.32201   0.00000  Uiso   1.00
O159   O     0.43892   0.20487   0.25000   0.00000  Uiso   1.00
O160   O     0.62272   0.26381   0.17802   0.00000  Uiso   1.00
O161   O     0.62123   0.06014   0.27266   0.00000  Uiso   1.00
O162   O     0.37925   0.27325   0.22871   0.00000  Uiso   1.00
O163   O     0.56108   0.12846   0.25000   0.00000  Uiso   1.00
O164   O     0.56108   0.20487   0.25001   0.00000  Uiso   1.00
O165   O     0.43892   0.12846   0.25000   0.00000  Uiso   1.00
O166   O     0.49999   0.20489   0.18393   0.00000  Uiso   1.00
O167   O     0.50001   0.12844   0.31608   0.00000  Uiso   1.00
O168   O     0.50001   0.20489   0.31608   0.00000  Uiso   1.00
O169   O     0.49999   0.12844   0.18393   0.00000  Uiso   1.00
O170   O     0.37728   0.06998   0.32269   0.00000  Uiso   1.00
Zn171  Zn    0.50000   0.21771   0.25000   0.00000  Uiso   1.00
Zn172  Zn    0.50000   0.11563   0.25000   0.00000  Uiso   1.00
C173   C     0.75336   0.16798   0.25108   0.00000  Uiso   1.00
C174   C     0.70895   0.17069   0.25436   0.00000  Uiso   1.00
C175   C     0.85326   0.02149   0.28397   0.00000  Uiso   1.00
C176   C     0.81339   0.31184   0.21603   0.00000  Uiso   1.00
C177   C     0.81268   0.02635   0.21668   0.00000  Uiso   1.00
C178   C     0.85398   0.30698   0.28332   0.00000  Uiso   1.00
C179   C     0.83303   0.16715   0.16369   0.00000  Uiso   1.00
C180   C     0.83364   0.16622   0.33631   0.00000  Uiso   1.00
C181   C     0.87165   0.15489   0.40806   0.00000  Uiso   1.00
C182   C     0.79490   0.17863   0.09207   0.00000  Uiso   1.00
C183   C     0.83452   0.16558   0.38398   0.00000  Uiso   1.00
C184   C     0.91331   0.16538   0.24897   0.00000  Uiso   1.00
C185   C     0.83216   0.16836   0.11603   0.00000  Uiso   1.00
C186   C     0.79818   0.17812   0.40422   0.00000  Uiso   1.00
C187   C     0.86919   0.15956   0.09559   0.00000  Uiso   1.00
C188   C     0.79701   0.17855   0.45052   0.00000  Uiso   1.00
C189   C     0.87058   0.16109   0.04926   0.00000  Uiso   1.00
C190   C     0.83444   0.16942   0.47642   0.00000  Uiso   1.00
C191   C     0.83315   0.16997   0.02336   0.00000  Uiso   1.00
C192   C     0.87299   0.15962   0.45522   0.00000  Uiso   1.00
C193   C     0.79454   0.17902   0.04458   0.00000  Uiso   1.00
C194   C     0.75900   0.18794   0.47106   0.00000  Uiso   1.00
C195   C     0.75757   0.18794   0.01773   0.00000  Uiso   1.00
C196   C     0.90896   0.15486   0.02866   0.00000  Uiso   1.00
C197   C     0.71691   0.10931   0.31419   0.00000  Uiso   1.00
C198   C     0.94981   0.22442   0.18626   0.00000  Uiso   1.00
C199   C     0.96378   0.09224   0.29502   0.00000  Uiso   1.00
C200   C     0.70281   0.24168   0.20588   0.00000  Uiso   1.00
C201   C     0.91052   0.15533   0.48215   0.00000  Uiso   1.00
C202   C     0.69102   0.13683   0.27970   0.00000  Uiso   1.00
C203   C     0.97569   0.19672   0.22065   0.00000  Uiso   1.00
C204   C     0.98200   0.13123   0.27329   0.00000  Uiso   1.00
C205   C     0.68467   0.20238   0.22717   0.00000  Uiso   1.00
C206   C     0.95775   0.16277   0.24590   0.00000  Uiso   1.00
H207   H     0.77068   0.18633   0.38301   0.00000  Uiso   1.00
H208   H     0.95094   0.17684   0.07476   0.00000  Uiso   1.00
H209   H     0.70581   0.22840   0.02599   0.00000  Uiso   1.00
H210   H     0.69782   0.17240   0.02642   0.00000  Uiso   1.00
H211   H     0.95363   0.18421   0.44367   0.00000  Uiso   1.00
H212   H     0.95909   0.12561   0.44864   0.00000  Uiso   1.00
H213   H     0.74293   0.12411   0.33135   0.00000  Uiso   1.00
H214   H     0.92382   0.20970   0.16899   0.00000  Uiso   1.00
H215   H     0.96096   0.09078   0.33110   0.00000  Uiso   1.00
H216   H     0.70506   0.24387   0.16976   0.00000  Uiso   1.00
H217   H     0.88690   0.06991   0.31137   0.00000  Uiso   1.00
H218   H     0.89688   0.15203   0.11668   0.00000  Uiso   1.00
H219   H     0.84852   0.05149   0.34335   0.00000  Uiso   1.00
H220   H     0.77970   0.26343   0.18858   0.00000  Uiso   1.00
H221   H     0.81813   0.28181   0.15665   0.00000  Uiso   1.00
H222   H     0.75883   0.04429   0.18253   0.00000  Uiso   1.00
H223   H     0.80173   0.04440   0.15139   0.00000  Uiso   1.00
H224   H     0.90781   0.28905   0.31751   0.00000  Uiso   1.00
H225   H     0.86490   0.28892   0.34862   0.00000  Uiso   1.00
H226   H     0.92929   0.15856   0.38112   0.00000  Uiso   1.00
H227   H     0.91561   0.10465   0.39710   0.00000  Uiso   1.00
H228   H     0.74659   0.22095   0.10923   0.00000  Uiso   1.00
H229   H     0.73685   0.16422   0.11153   0.00000  Uiso   1.00
H230   H     0.71500   0.16932   0.42539   0.00000  Uiso   1.00
H231   H     0.72356   0.22558   0.42465   0.00000  Uiso   1.00
H232   H     0.94719   0.11973   0.07446   0.00000  Uiso   1.00
N233   N     0.83333   0.28573   0.25000   0.00000  Uiso   1.00
N234   N     0.79453   0.29167   0.17798   0.00000  Uiso   1.00
N235   N     0.78988   0.05278   0.18244   0.00000  Uiso   1.00
N236   N     0.87677   0.28055   0.31758   0.00000  Uiso   1.00
N237   N     0.83333   0.04760   0.25000   0.00000  Uiso   1.00
N238   N     0.90561   0.13622   0.38348   0.00000  Uiso   1.00
N239   N     0.75864   0.18837   0.11742   0.00000  Uiso   1.00
N240   N     0.72080   0.19702   0.44518   0.00000  Uiso   1.00
N241   N     0.94755   0.14900   0.05444   0.00000  Uiso   1.00
N242   N     0.71800   0.19666   0.03721   0.00000  Uiso   1.00
N243   N     0.95122   0.15567   0.46428   0.00000  Uiso   1.00
N244   N     0.87212   0.04165   0.32201   0.00000  Uiso   1.00
O245   O     0.77226   0.20487   0.25000   0.00000  Uiso   1.00
O246   O     0.95605   0.26381   0.17802   0.00000  Uiso   1.00
O247   O     0.95456   0.06014   0.27266   0.00000  Uiso   1.00
O248   O     0.71258   0.27325   0.22871   0.00000  Uiso   1.00
O249   O     0.89441   0.12846   0.25000   0.00000  Uiso   1.00
O250   O     0.89441   0.20487   0.25001   0.00000  Uiso   1.00
O251   O     0.77226   0.12846   0.25000   0.00000  Uiso   1.00
O252   O     0.83333   0.20489   0.18393   0.00000  Uiso   1.00
O253   O     0.83334   0.12844   0.31608   0.00000  Uiso   1.00
O254   O     0.83334   0.20489   0.31608   0.00000  Uiso   1.00
O255   O     0.83333   0.12844   0.18393   0.00000  Uiso   1.00
O256   O     0.71061   0.06998   0.32269   0.00000  Uiso   1.00
Zn257  Zn    0.83333   0.21771   0.25000   0.00000  Uiso   1.00
Zn258  Zn    0.83333   0.11563   0.25000   0.00000  Uiso   1.00
C259   C     0.08669   0.50131   0.25108   0.00000  Uiso   1.00
C260   C     0.04228   0.50403   0.25436   0.00000  Uiso   1.00
C261   C     0.18660   0.35482   0.28397   0.00000  Uiso   1.00
C262   C     0.14673   0.64517   0.21603   0.00000  Uiso   1.00
C263   C     0.14601   0.35968   0.21668   0.00000  Uiso   1.00
C264   C     0.18731   0.64032   0.28332   0.00000  Uiso   1.00
C265   C     0.16637   0.50048   0.16369   0.00000  Uiso   1.00
C266   C     0.16697   0.49955   0.33631   0.00000  Uiso   1.00
C267   C     0.20498   0.48822   0.40806   0.00000  Uiso   1.00
C268   C     0.12824   0.51197   0.09207   0.00000  Uiso   1.00
C269   C     0.16785   0.49891   0.38398   0.00000  Uiso   1.00
C270   C     0.24665   0.49871   0.24897   0.00000  Uiso   1.00
C271   C     0.16550   0.50169   0.11603   0.00000  Uiso   1.00
C272   C     0.13151   0.51145   0.40422   0.00000  Uiso   1.00
C273   C     0.20252   0.49289   0.09559   0.00000  Uiso   1.00
C274   C     0.13035   0.51188   0.45052   0.00000  Uiso   1.00
C275   C     0.20391   0.49442   0.04926   0.00000  Uiso   1.00
C276   C     0.16777   0.50275   0.47642   0.00000  Uiso   1.00
C277   C     0.16648   0.50331   0.02336   0.00000  Uiso   1.00
C278   C     0.20633   0.49295   0.45522   0.00000  Uiso   1.00
C279   C     0.12787   0.51235   0.04458   0.00000  Uiso   1.00
C280   C     0.09233   0.52128   0.47106   0.00000  Uiso   1.00
C281   C     0.09090   0.52128   0.01773   0.00000  Uiso   1.00
C282   C     0.24229   0.48819   0.02866   0.00000  Uiso   1.00
C283   C     0.05025   0.44264   0.31419   0.00000  Uiso   1.00
C284   C     0.28314   0.55775   0.18626   0.00000  Uiso   1.00
C285   C     0.29712   0.42557   0.29502   0.00000  Uiso   1.00
C286   C     0.03615   0.57501   0.20588   0.00000  Uiso   1.00
C287   C     0.24386   0.48866   0.48215   0.00000  Uiso   1.00
C288   C     0.02435   0.47017   0.27970   0.00000  Uiso   1.00
C289   C     0.30902   0.53006   0.22065   0.00000  Uiso   1.00
C290   C     0.31533   0.46457   0.27329   0.00000  Uiso   1.00
C291   C     0.01801   0.53572   0.22717   0.00000  Uiso   1.00
C292   C     0.29108   0.49610   0.24590   0.00000  Uiso   1.00
H293   H     0.10401   0.51966   0.38301   0.00000  Uiso   1.00
H294   H     0.28427   0.51017   0.07476   0.00000  Uiso   1.00
H295   H     0.03914   0.56174   0.02599   0.00000  Uiso   1.00
H296   H     0.03115   0.50574   0.02642   0.00000  Uiso   1.00
H297   H     0.28696   0.51754   0.44367   0.00000  Uiso   1.00
H298   H     0.29242   0.45895   0.44864   0.00000  Uiso   1.00
H299   H     0.07626   0.45745   0.33135   0.00000  Uiso   1.00
H300   H     0.25715   0.54303   0.16899   0.00000  Uiso   1.00
H301   H     0.29429   0.42411   0.33110   0.00000  Uiso   1.00
H302   H     0.03840   0.57720   0.16976   0.00000  Uiso   1.00
H303   H     0.22023   0.40324   0.31137   0.00000  Uiso   1.00
H304   H     0.23022   0.48536   0.11668   0.00000  Uiso   1.00
H305   H     0.18186   0.38482   0.34335   0.00000  Uiso   1.00
H306   H     0.11303   0.59676   0.18858   0.00000  Uiso   1.00
H307   H     0.15147   0.61515   0.15665   0.00000  Uiso   1.00
H308   H     0.09216   0.37762   0.18253   0.00000  Uiso   1.00
H309   H     0.13506   0.37774   0.15139   0.00000  Uiso   1.00
H310   H     0.24115   0.62238   0.31751   0.00000  Uiso   1.00
H311   H     0.19823   0.62225   0.34862   0.00000  Uiso   1.00
H312   H     0.26262   0.49190   0.38112   0.00000  Uiso   1.00
H313   H     0.24895   0.43799   0.39710   0.00000  Uiso   1.00
H314   H     0.07993   0.55429   0.10923   0.00000  Uiso   1.00
H315   H     0.07018   0.49755   0.11153   0.00000  Uiso   1.00
H316   H     0.04834   0.50266   0.42539   0.00000  Uiso   1.00
H317   H     0.05689   0.55891   0.42465   0.00000  Uiso   1.00
H318   H     0.28052   0.45306   0.07446   0.00000  Uiso   1.00
N319   N     0.16667   0.61907   0.25000   0.00000  Uiso   1.00
N320   N     0.12787   0.62501   0.17798   0.00000  Uiso   1.00
N321   N     0.12321   0.38612   0.18244   0.00000  Uiso   1.00
N322   N     0.21010   0.61388   0.31758   0.00000  Uiso   1.00
N323   N     0.16667   0.38093   0.25000   0.00000  Uiso   1.00
N324   N     0.23895   0.46955   0.38348   0.00000  Uiso   1.00
N325   N     0.09197   0.52171   0.11742   0.00000  Uiso   1.00
N326   N     0.05413   0.53035   0.44518   0.00000  Uiso   1.00
N327   N     0.28089   0.48234   0.05444   0.00000  Uiso   1.00
N328   N     0.05133   0.52999   0.03721   0.00000  Uiso   1.00
N329   N     0.28456   0.48900   0.46428   0.00000  Uiso   1.00
N330   N     0.20546   0.37498   0.32201   0.00000  Uiso   1.00
O331   O     0.10559   0.53821   0.25000   0.00000  Uiso   1.00
O332   O     0.28938   0.59714   0.17802   0.00000  Uiso   1.00
O333   O     0.28790   0.39347   0.27266   0.00000  Uiso   1.00
O334   O     0.04591   0.60658   0.22871   0.00000  Uiso   1.00
O335   O     0.22774   0.46179   0.25000   0.00000  Uiso   1.00
O336   O     0.22774   0.53821   0.25001   0.00000  Uiso   1.00
O337   O     0.10559   0.46179   0.25000   0.00000  Uiso   1.00
O338   O     0.16666   0.53823   0.18393   0.00000  Uiso   1.00
O339   O     0.16667   0.46177   0.31608   0.00000  Uiso   1.00
O340   O     0.16667   0.53823   0.31608   0.00000  Uiso   1.00
O341   O     0.16666   0.46177   0.18393   0.00000  Uiso   1.00
O342   O     0.04395   0.40331   0.32269   0.00000  Uiso   1.00
Zn343  Zn    0.16667   0.55104   0.25000   0.00000  Uiso   1.00
Zn344  Zn    0.16667   0.44896   0.25000   0.00000  Uiso   1.00
C345   C     0.42002   0.50131   0.25108   0.00000  Uiso   1.00
C346   C     0.37561   0.50403   0.25436   0.00000  Uiso   1.00
C347   C     0.51993   0.35482   0.28397   0.00000  Uiso   1.00
C348   C     0.48006   0.64517   0.21603   0.00000  Uiso   1.00
C349   C     0.47934   0.35968   0.21668   0.00000  Uiso   1.00
C350   C     0.52065   0.64032   0.28332   0.00000  Uiso   1.00
C351   C     0.49970   0.50048   0.16369   0.00000  Uiso   1.00
C352   C     0.50031   0.49955   0.33631   0.00000  Uiso   1.00
C353   C     0.53831   0.48822   0.40806   0.00000  Uiso   1.00
C354   C     0.46157   0.51197   0.09207   0.00000  Uiso   1.00
C355   C     0.50118   0.49891   0.38398   0.00000  Uiso   1.00
C356   C     0.57998   0.49871   0.24897   0.00000  Uiso   1.00
C357   C     0.49883   0.50169   0.11603   0.00000  Uiso   1.00
C358   C     0.46485   0.51145   0.40422   0.00000  Uiso   1.00
C359   C     0.53585   0.49289   0.09559   0.00000  Uiso   1.00
C360   C     0.46368   0.51188   0.45052   0.00000  Uiso   1.00
C361   C     0.53724   0.49442   0.04926   0.00000  Uiso   1.00
C362   C     0.50111   0.50275   0.47642   0.00000  Uiso   1.00
C363   C     0.49981   0.50331   0.02336   0.00000  Uiso   1.00
C364   C     0.53966   0.49295   0.45522   0.00000  Uiso   1.00
C365   C     0.46121   0.51235   0.04458   0.00000  Uiso   1.00
C366   C     0.42567   0.52128   0.47106   0.00000  Uiso   1.00
C367   C     0.42424   0.52128   0.01773   0.00000  Uiso   1.00
C368   C     0.57562   0.48819   0.02866   0.00000  Uiso   1.00
C369   C     0.38358   0.44264   0.31419   0.00000  Uiso   1.00
C370   C     0.61647   0.55775   0.18626   0.00000  Uiso   1.00
C371   C     0.63045   0.42557   0.29502   0.00000  Uiso   1.00
C372   C     0.36948   0.57501   0.20588   0.00000  Uiso   1.00
C373   C     0.57719   0.48866   0.48215   0.00000  Uiso   1.00
C374   C     0.35768   0.47017   0.27970   0.00000  Uiso   1.00
C375   C     0.64235   0.53006   0.22065   0.00000  Uiso   1.00
C376   C     0.64867   0.46457   0.27329   0.00000  Uiso   1.00
C377   C     0.35134   0.53572   0.22717   0.00000  Uiso   1.00
C378   C     0.62441   0.49610   0.24590   0.00000  Uiso   1.00
H379   H     0.43734   0.51966   0.38301   0.00000  Uiso   1.00
H380   H     0.61761   0.51017   0.07476   0.00000  Uiso   1.00
H381   H     0.37247   0.56174   0.02599   0.00000  Uiso   1.00
H382   H     0.36449   0.50574   0.02642   0.00000  Uiso   1.00
H383   H     0.62029   0.51754   0.44367   0.00000  Uiso   1.00
H384   H     0.62576   0.45895   0.44864   0.00000  Uiso   1.00
H385   H     0.40960   0.45745   0.33135   0.00000  Uiso   1.00
H386   H     0.59049   0.54303   0.16899   0.00000  Uiso   1.00
H387   H     0.62762   0.42411   0.33110   0.00000  Uiso   1.00
H388   H     0.37173   0.57720   0.16976   0.00000  Uiso   1.00
H389   H     0.55357   0.40324   0.31137   0.00000  Uiso   1.00
H390   H     0.56355   0.48536   0.11668   0.00000  Uiso   1.00
H391   H     0.51519   0.38482   0.34335   0.00000  Uiso   1.00
H392   H     0.44637   0.59676   0.18858   0.00000  Uiso   1.00
H393   H     0.48480   0.61515   0.15665   0.00000  Uiso   1.00
H394   H     0.42550   0.37762   0.18253   0.00000  Uiso   1.00
H395   H     0.46840   0.37774   0.15139   0.00000  Uiso   1.00
H396   H     0.57448   0.62238   0.31751   0.00000  Uiso   1.00
H397   H     0.53156   0.62225   0.34862   0.00000  Uiso   1.00
H398   H     0.59596   0.49190   0.38112   0.00000  Uiso   1.00
H399   H     0.58228   0.43799   0.39710   0.00000  Uiso   1.00
H400   H     0.41326   0.55429   0.10923   0.00000  Uiso   1.00
H401   H     0.40352   0.49755   0.11153   0.00000  Uiso   1.00
H402   H     0.38167   0.50266   0.42539   0.00000  Uiso   1.00
H403   H     0.39023   0.55891   0.42465   0.00000  Uiso   1.00
H404   H     0.61385   0.45306   0.07446   0.00000  Uiso   1.00
N405   N     0.50000   0.61907   0.25000   0.00000  Uiso   1.00
N406   N     0.46120   0.62501   0.17798   0.00000  Uiso   1.00
N407   N     0.45654   0.38612   0.18244   0.00000  Uiso   1.00
N408   N     0.54344   0.61388   0.31758   0.00000  Uiso   1.00
N409   N     0.50000   0.38093   0.25000   0.00000  Uiso   1.00
N410   N     0.57228   0.46955   0.38348   0.00000  Uiso   1.00
N411   N     0.42530   0.52171   0.11742   0.00000  Uiso   1.00
N412   N     0.38746   0.53035   0.44518   0.00000  Uiso   1.00
N413   N     0.61422   0.48234   0.05444   0.00000  Uiso   1.00
N414   N     0.38466   0.52999   0.03721   0.00000  Uiso   1.00
N415   N     0.61789   0.48900   0.46428   0.00000  Uiso   1.00
N416   N     0.53879   0.37498   0.32201   0.00000  Uiso   1.00
O417   O     0.43892   0.53821   0.25000   0.00000  Uiso   1.00
O418   O     0.62272   0.59714   0.17802   0.00000  Uiso   1.00
O419   O     0.62123   0.39347   0.27266   0.00000  Uiso   1.00
O420   O     0.37925   0.60658   0.22871   0.00000  Uiso   1.00
O421   O     0.56108   0.46179   0.25000   0.00000  Uiso   1.00
O422   O     0.56108   0.53821   0.25001   0.00000  Uiso   1.00
O423   O     0.43892   0.46179   0.25000   0.00000  Uiso   1.00
O424   O     0.49999   0.53823   0.18393   0.00000  Uiso   1.00
O425   O     0.50001   0.46177   0.31608   0.00000  Uiso   1.00
O426   O     0.50001   0.53823   0.31608   0.00000  Uiso   1.00
O427   O     0.49999   0.46177   0.18393   0.00000  Uiso   1.00
O428   O     0.37728   0.40331   0.32269   0.00000  Uiso   1.00
Zn429  Zn    0.50000   0.55104   0.25000   0.00000  Uiso   1.00
Zn430  Zn    0.50000   0.44896   0.25000   0.00000  Uiso   1.00
C431   C     0.75336   0.50131   0.25108   0.00000  Uiso   1.00
C432   C     0.70895   0.50403   0.25436   0.00000  Uiso   1.00
C433   C     0.85326   0.35482   0.28397   0.00000  Uiso   1.00
C434   C     0.81339   0.64517   0.21603   0.00000  Uiso   1.00
C435   C     0.81268   0.35968   0.21668   0.00000  Uiso   1.00
C436   C     0.85398   0.64032   0.28332   0.00000  Uiso   1.00
C437   C     0.83303   0.50048   0.16369   0.00000  Uiso   1.00
C438   C     0.83364   0.49955   0.33631   0.00000  Uiso   1.00
C439   C     0.87165   0.48822   0.40806   0.00000  Uiso   1.00
C440   C     0.79490   0.51197   0.09207   0.00000  Uiso   1.00
C441   C     0.83452   0.49891   0.38398   0.00000  Uiso   1.00
C442   C     0.91331   0.49871   0.24897   0.00000  Uiso   1.00
C443   C     0.83216   0.50169   0.11603   0.00000  Uiso   1.00
C444   C     0.79818   0.51145   0.40422   0.00000  Uiso   1.00
C445   C     0.86919   0.49289   0.09559   0.00000  Uiso   1.00
C446   C     0.79701   0.51188   0.45052   0.00000  Uiso   1.00
C447   C     0.87058   0.49442   0.04926   0.00000  Uiso   1.00
C448   C     0.83444   0.50275   0.47642   0.00000  Uiso   1.00
C449   C     0.83315   0.50331   0.02336   0.00000  Uiso   1.00
C450   C     0.87299   0.49295   0.45522   0.00000  Uiso   1.00
C451   C     0.79454   0.51235   0.04458   0.00000  Uiso   1.00
C452   C     0.75900   0.52128   0.47106   0.00000  Uiso   1.00
C453   C     0.75757   0.52128   0.01773   0.00000  Uiso   1.00
C454   C     0.90896   0.48819   0.02866   0.00000  Uiso   1.00
C455   C     0.71691   0.44264   0.31419   0.00000  Uiso   1.00
C456   C     0.94981   0.55775   0.18626   0.00000  Uiso   1.00
C457   C     0.96378   0.42557   0.29502   0.00000  Uiso   1.00
C458   C     0.70281   0.57501   0.20588   0.00000  Uiso   1.00
C459   C     0.91052   0.48866   0.48215   0.00000  Uiso   1.00
C460   C     0.69102   0.47017   0.27970   0.00000  Uiso   1.00
C461   C     0.97569   0.53006   0.22065   0.00000  Uiso   1.00
C462   C     0.98200   0.46457   0.27329   0.00000  Uiso   1.00
C463   C     0.68467   0.53572   0.22717   0.00000  Uiso   1.00
C464   C     0.95775   0.49610   0.24590   0.00000  Uiso   1.00
H465   H     0.77068   0.51966   0.38301   0.00000  Uiso   1.00
H466   H     0.95094   0.51017   0.07476   0.00000  Uiso   1.00
H467   H     0.70581   0.56174   0.02599   0.00000  Uiso   1.00
H468   H     0.69782   0.50574   0.02642   0.00000  Uiso   1.00
H469   H     0.95363   0.51754   0.44367   0.00000  Uiso   1.00
H470   H     0.95909   0.45895   0.44864   0.00000  Uiso   1.00
H471   H     0.74293   0.45745   0.33135   0.00000  Uiso   1.00
H472   H     0.92382   0.54303   0.16899   0.00000  Uiso   1.00
H473   H     0.96096   0.42411   0.33110   0.00000  Uiso   1.00
H474   H     0.70506   0.57720   0.16976   0.00000  Uiso   1.00
H475   H     0.88690   0.40324   0.31137   0.00000  Uiso   1.00
H476   H     0.89688   0.48536   0.11668   0.00000  Uiso   1.00
H477   H     0.84852   0.38482   0.34335   0.00000  Uiso   1.00
H478   H     0.77970   0.59676   0.18858   0.00000  Uiso   1.00
H479   H     0.81813   0.61515   0.15665   0.00000  Uiso   1.00
H480   H     0.75883   0.37762   0.18253   0.00000  Uiso   1.00
H481   H     0.80173   0.37774   0.15139   0.00000  Uiso   1.00
H482   H     0.90781   0.62238   0.31751   0.00000  Uiso   1.00
H483   H     0.86490   0.62225   0.34862   0.00000  Uiso   1.00
H484   H     0.92929   0.49190   0.38112   0.00000  Uiso   1.00
H485   H     0.91561   0.43799   0.39710   0.00000  Uiso   1.00
H486   H     0.74659   0.55429   0.10923   0.00000  Uiso   1.00
H487   H     0.73685   0.49755   0.11153   0.00000  Uiso   1.00
H488   H     0.71500   0.50266   0.42539   0.00000  Uiso   1.00
H489   H     0.72356   0.55891   0.42465   0.00000  Uiso   1.00
H490   H     0.94719   0.45306   0.07446   0.00000  Uiso   1.00
N491   N     0.83333   0.61907   0.25000   0.00000  Uiso   1.00
N492   N     0.79453   0.62501   0.17798   0.00000  Uiso   1.00
N493   N     0.78988   0.38612   0.18244   0.00000  Uiso   1.00
N494   N     0.87677   0.61388   0.31758   0.00000  Uiso   1.00
N495   N     0.83333   0.38093   0.25000   0.00000  Uiso   1.00
N496   N     0.90561   0.46955   0.38348   0.00000  Uiso   1.00
N497   N     0.75864   0.52171   0.11742   0.00000  Uiso   1.00
N498   N     0.72080   0.53035   0.44518   0.00000  Uiso   1.00
N499   N     0.94755   0.48234   0.05444   0.00000  Uiso   1.00
N500   N     0.71800   0.52999   0.03721   0.00000  Uiso   1.00
N501   N     0.95122   0.48900   0.46428   0.00000  Uiso   1.00
N502   N     0.87212   0.37498   0.32201   0.00000  Uiso   1.00
O503   O     0.77226   0.53821   0.25000   0.00000  Uiso   1.00
O504   O     0.95605   0.59714   0.17802   0.00000  Uiso   1.00
O505   O     0.95456   0.39347   0.27266   0.00000  Uiso   1.00
O506   O     0.71258   0.60658   0.22871   0.00000  Uiso   1.00
O507   O     0.89441   0.46179   0.25000   0.00000  Uiso   1.00
O508   O     0.89441   0.53821   0.25001   0.00000  Uiso   1.00
O509   O     0.77226   0.46179   0.25000   0.00000  Uiso   1.00
O510   O     0.83333   0.53823   0.18393   0.00000  Uiso   1.00
O511   O     0.83334   0.46177   0.31608   0.00000  Uiso   1.00
O512   O     0.83334   0.53823   0.31608   0.00000  Uiso   1.00
O513   O     0.83333   0.46177   0.18393   0.00000  Uiso   1.00
O514   O     0.71061   0.40331   0.32269   0.00000  Uiso   1.00
Zn515  Zn    0.83333   0.55104   0.25000   0.00000  Uiso   1.00
Zn516  Zn    0.83333   0.44896   0.25000   0.00000  Uiso   1.00
C517   C     0.08669   0.83464   0.25108   0.00000  Uiso   1.00
C518   C     0.04228   0.83736   0.25436   0.00000  Uiso   1.00
C519   C     0.18660   0.68815   0.28397   0.00000  Uiso   1.00
C520   C     0.14673   0.97851   0.21603   0.00000  Uiso   1.00
C521   C     0.14601   0.69301   0.21668   0.00000  Uiso   1.00
C522   C     0.18731   0.97365   0.28332   0.00000  Uiso   1.00
C523   C     0.16637   0.83382   0.16369   0.00000  Uiso   1.00
C524   C     0.16697   0.83288   0.33631   0.00000  Uiso   1.00
C525   C     0.20498   0.82155   0.40806   0.00000  Uiso   1.00
C526   C     0.12824   0.84530   0.09207   0.00000  Uiso   1.00
C527   C     0.16785   0.83224   0.38398   0.00000  Uiso   1.00
C528   C     0.24665   0.83204   0.24897   0.00000  Uiso   1.00
C529   C     0.16550   0.83502   0.11603   0.00000  Uiso   1.00
C530   C     0.13151   0.84478   0.40422   0.00000  Uiso   1.00
C531   C     0.20252   0.82622   0.09559   0.00000  Uiso   1.00
C532   C     0.13035   0.84522   0.45052   0.00000  Uiso   1.00
C533   C     0.20391   0.82776   0.04926   0.00000  Uiso   1.00
C534   C     0.16777   0.83609   0.47642   0.00000  Uiso   1.00
C535   C     0.16648   0.83664   0.02336   0.00000  Uiso   1.00
C536   C     0.20633   0.82629   0.45522   0.00000  Uiso   1.00
C537   C     0.12787   0.84569   0.04458   0.00000  Uiso   1.00
C538   C     0.09233   0.85461   0.47106   0.00000  Uiso   1.00
C539   C     0.09090   0.85461   0.01773   0.00000  Uiso   1.00
C540   C     0.24229   0.82153   0.02866   0.00000  Uiso   1.00
C541   C     0.05025   0.77597   0.31419   0.00000  Uiso   1.00
C542   C     0.28314   0.89108   0.18626   0.00000  Uiso   1.00
C543   C     0.29712   0.75890   0.29502   0.00000  Uiso   1.00
C544   C     0.03615   0.90835   0.20588   0.00000  Uiso   1.00
C545   C     0.24386   0.82199   0.48215   0.00000  Uiso   1.00
C546   C     0.02435   0.80350   0.27970   0.00000  Uiso   1.00
C547   C     0.30902   0.86339   0.22065   0.00000  Uiso   1.00
C548   C     0.31533   0.79790   0.27329   0.00000  Uiso   1.00
C549   C     0.01801   0.86905   0.22717   0.00000  Uiso   1.00
C550   C     0.29108   0.82944   0.24590   0.00000  Uiso   1.00
H551   H     0.10401   0.85299   0.38301   0.00000  Uiso   1.00
H552   H     0.28427   0.84350   0.07476   0.00000  Uiso   1.00
H553   H     0.03914   0.89507   0.02599   0.00000  Uiso   1.00
H554   H     0.03115   0.83907   0.02642   0.00000  Uiso   1.00
H555   H     0.28696   0.85087   0.44367   0.00000  Uiso   1.00
H556   H     0.29242   0.79228   0.44864   0.00000  Uiso   1.00
H557   H     0.07626   0.79078   0.33135   0.00000  Uiso   1.00
H558   H     0.25715   0.87637   0.16899   0.00000  Uiso   1.00
H559   H     0.29429   0.75745   0.33110   0.00000  Uiso   1.00
H560   H     0.03840   0.91054   0.16976   0.00000  Uiso   1.00
H561   H     0.22023   0.73658   0.31137   0.00000  Uiso   1.00
H562   H     0.23022   0.81869   0.11668   0.00000  Uiso   1.00
H563   H     0.18186   0.71815   0.34335   0.00000  Uiso   1.00
H564   H     0.11303   0.93009   0.18858   0.00000  Uiso   1.00
H565   H     0.15147   0.94848   0.15665   0.00000  Uiso   1.00
H566   H     0.09216   0.71096   0.18253   0.00000  Uiso   1.00
H567   H     0.13506   0.71107   0.15139   0.00000  Uiso   1.00
H568   H     0.24115   0.95572   0.31751   0.00000  Uiso   1.00
H569   H     0.19823   0.95559   0.34862   0.00000  Uiso   1.00
H570   H     0.26262   0.82523   0.38112   0.00000  Uiso   1.00
H571   H     0.24895   0.77132   0.39710   0.00000  Uiso   1.00
H572   H     0.07993   0.88762   0.10923   0.00000  Uiso   1.00
H573   H     0.07018   0.83089   0.11153   0.00000  Uiso   1.00
H574   H     0.04834   0.83599   0.42539   0.00000  Uiso   1.00
H575   H     0.05689   0.89225   0.42465   0.00000  Uiso   1.00
H576   H     0.28052   0.78640   0.07446   0.00000  Uiso   1.00
N577   N     0.16667   0.95240   0.25000   0.00000  Uiso   1.00
N578   N     0.12787   0.95834   0.17798   0.00000  Uiso   1.00
N579   N     0.12321   0.71945   0.18244   0.00000  Uiso   1.00
N580   N     0.21010   0.94721   0.31758   0.00000  Uiso   1.00
N581   N     0.16667   0.71427   0.25000   0.00000  Uiso   1.00
N582   N     0.23895   0.80289   0.38348   0.00000  Uiso   1.00
N583   N     0.09197   0.85504   0.11742   0.00000  Uiso   1.00
N584   N     0.05413   0.86369   0.44518   0.00000  Uiso   1.00
N585   N     0.28089   0.81567   0.05444   0.00000  Uiso   1.00
N586   N     0.05133   0.86333   0.03721   0.00000  Uiso   1.00
N587   N     0.28456   0.82234   0.46428   0.00000  Uiso   1.00
N588   N     0.20546   0.70832   0.32201   0.00000  Uiso   1.00
O589   O     0.10559   0.87154   0.25000   0.00000  Uiso   1.00
O590   O     0.28938   0.93048   0.17802   0.00000  Uiso   1.00
O591   O     0.28790   0.72680   0.27266   0.00000  Uiso   1.00
O592   O     0.04591   0.93991   0.22871   0.00000  Uiso   1.00
O593   O     0.22774   0.79513   0.25000   0.00000  Uiso   1.00
O594   O     0.22774   0.87154   0.25001   0.00000  Uiso   1.00
O595   O     0.10559   0.79513   0.25000   0.00000  Uiso   1.00
O596   O     0.16666   0.87156   0.18393   0.00000  Uiso   1.00
O597   O     0.16667   0.79511   0.31608   0.00000  Uiso   1.00
O598   O     0.16667   0.87156   0.31608   0.00000  Uiso   1.00
O599   O     0.16666   0.79511   0.18393   0.00000  Uiso   1.00
O600   O     0.04395   0.73664   0.32269   0.00000  Uiso   1.00
Zn601  Zn    0.16667   0.88437   0.25000   0.00000  Uiso   1.00
Zn602  Zn    0.16667   0.78229   0.25000   0.00000  Uiso   1.00
C603   C     0.42002   0.83464   0.25108   0.00000  Uiso   1.00
C604   C     0.37561   0.83736   0.25436   0.00000  Uiso   1.00
C605   C     0.51993   0.68815   0.28397   0.00000  Uiso   1.00
C606   C     0.48006   0.97851   0.21603   0.00000  Uiso   1.00
C607   C     0.47934   0.69301   0.21668   0.00000  Uiso   1.00
C608   C     0.52065   0.97365   0.28332   0.00000  Uiso   1.00
C609   C     0.49970   0.83382   0.16369   0.00000  Uiso   1.00
C610   C     0.50031   0.83288   0.33631   0.00000  Uiso   1.00
C611   C     0.53831   0.82155   0.40806   0.00000  Uiso   1.00
C612   C     0.46157   0.84530   0.09207   0.00000  Uiso   1.00
C613   C     0.50118   0.83224   0.38398   0.00000  Uiso   1.00
C614   C     0.57998   0.83204   0.24897   0.00000  Uiso   1.00
C615   C     0.49883   0.83502   0.11603   0.00000  Uiso   1.00
C616   C     0.46485   0.84478   0.40422   0.00000  Uiso   1.00
C617   C     0.53585   0.82622   0.09559   0.00000  Uiso   1.00
C618   C     0.46368   0.84522   0.45052   0.00000  Uiso   1.00
C619   C     0.53724   0.82776   0.04926   0.00000  Uiso   1.00
C620   C     0.50111   0.83609   0.47642   0.00000  Uiso   1.00
C621   C     0.49981   0.83664   0.02336   0.00000  Uiso   1.00
C622   C     0.53966   0.82629   0.45522   0.00000  Uiso   1.00
C623   C     0.46121   0.84569   0.04458   0.00000  Uiso   1.00
C624   C     0.42567   0.85461   0.47106   0.00000  Uiso   1.00
C625   C     0.42424   0.85461   0.01773   0.00000  Uiso   1.00
C626   C     0.57562   0.82153   0.02866   0.00000  Uiso   1.00
C627   C     0.38358   0.77597   0.31419   0.00000  Uiso   1.00
C628   C     0.61647   0.89108   0.18626   0.00000  Uiso   1.00
C629   C     0.63045   0.75890   0.29502   0.00000  Uiso   1.00
C630   C     0.36948   0.90835   0.20588   0.00000  Uiso   1.00
C631   C     0.57719   0.82199   0.48215   0.00000  Uiso   1.00
C632   C     0.35768   0.80350   0.27970   0.00000  Uiso   1.00
C633   C     0.64235   0.86339   0.22065   0.00000  Uiso   1.00
C634   C     0.64867   0.79790   0.27329   0.00000  Uiso   1.00
C635   C     0.35134   0.86905   0.22717   0.00000  Uiso   1.00
C636   C     0.62441   0.82944   0.24590   0.00000  Uiso   1.00
H637   H     0.43734   0.85299   0.38301   0.00000  Uiso   1.00
H638   H     0.61761   0.84350   0.07476   0.00000  Uiso   1.00
H639   H     0.37247   0.89507   0.02599   0.00000  Uiso   1.00
H640   H     0.36449   0.83907   0.02642   0.00000  Uiso   1.00
H641   H     0.62029   0.85087   0.44367   0.00000  Uiso   1.00
H642   H     0.62576   0.79228   0.44864   0.00000  Uiso   1.00
H643   H     0.40960   0.79078   0.33135   0.00000  Uiso   1.00
H644   H     0.59049   0.87637   0.16899   0.00000  Uiso   1.00
H645   H     0.62762   0.75745   0.33110   0.00000  Uiso   1.00
H646   H     0.37173   0.91054   0.16976   0.00000  Uiso   1.00
H647   H     0.55357   0.73658   0.31137   0.00000  Uiso   1.00
H648   H     0.56355   0.81869   0.11668   0.00000  Uiso   1.00
H649   H     0.51519   0.71815   0.34335   0.00000  Uiso   1.00
H650   H     0.44637   0.93009   0.18858   0.00000  Uiso   1.00
H651   H     0.48480   0.94848   0.15665   0.00000  Uiso   1.00
H652   H     0.42550   0.71096   0.18253   0.00000  Uiso   1.00
H653   H     0.46840   0.71107   0.15139   0.00000  Uiso   1.00
H654   H     0.57448   0.95572   0.31751   0.00000  Uiso   1.00
H655   H     0.53156   0.95559   0.34862   0.00000  Uiso   1.00
H656   H     0.59596   0.82523   0.38112   0.00000  Uiso   1.00
H657   H     0.58228   0.77132   0.39710   0.00000  Uiso   1.00
H658   H     0.41326   0.88762   0.10923   0.00000  Uiso   1.00
H659   H     0.40352   0.83089   0.11153   0.00000  Uiso   1.00
H660   H     0.38167   0.83599   0.42539   0.00000  Uiso   1.00
H661   H     0.39023   0.89225   0.42465   0.00000  Uiso   1.00
H662   H     0.61385   0.78640   0.07446   0.00000  Uiso   1.00
N663   N     0.50000   0.95240   0.25000   0.00000  Uiso   1.00
N664   N     0.46120   0.95834   0.17798   0.00000  Uiso   1.00
N665   N     0.45654   0.71945   0.18244   0.00000  Uiso   1.00
N666   N     0.54344   0.94721   0.31758   0.00000  Uiso   1.00
N667   N     0.50000   0.71427   0.25000   0.00000  Uiso   1.00
N668   N     0.57228   0.80289   0.38348   0.00000  Uiso   1.00
N669   N     0.42530   0.85504   0.11742   0.00000  Uiso   1.00
N670   N     0.38746   0.86369   0.44518   0.00000  Uiso   1.00
N671   N     0.61422   0.81567   0.05444   0.00000  Uiso   1.00
N672   N     0.38466   0.86333   0.03721   0.00000  Uiso   1.00
N673   N     0.61789   0.82234   0.46428   0.00000  Uiso   1.00
N674   N     0.53879   0.70832   0.32201   0.00000  Uiso   1.00
O675   O     0.43892   0.87154   0.25000   0.00000  Uiso   1.00
O676   O     0.62272   0.93048   0.17802   0.00000  Uiso   1.00
O677   O     0.62123   0.72680   0.27266   0.00000  Uiso   1.00
O678   O     0.37925   0.93991   0.22871   0.00000  Uiso   1.00
O679   O     0.56108   0.79513   0.25000   0.00000  Uiso   1.00
O680   O     0.56108   0.87154   0.25001   0.00000  Uiso   1.00
O681   O     0.43892   0.79513   0.25000   0.00000  Uiso   1.00
O682   O     0.49999   0.87156   0.18393   0.00000  Uiso   1.00
O683   O     0.50001   0.79511   0.31608   0.00000  Uiso   1.00
O684   O     0.50001   0.87156   0.31608   0.00000  Uiso   1.00
O685   O     0.49999   0.79511   0.18393   0.00000  Uiso   1.00
O686   O     0.37728   0.73664   0.32269   0.00000  Uiso   1.00
Zn687  Zn    0.50000   0.88437   0.25000   0.00000  Uiso   1.00
Zn688  Zn    0.50000   0.78229   0.25000   0.00000  Uiso   1.00
C689   C     0.75336   0.83464   0.25108   0.00000  Uiso   1.00
C690   C     0.70895   0.83736   0.25436   0.00000  Uiso   1.00
C691   C     0.85326   0.68815   0.28397   0.00000  Uiso   1.00
C692   C     0.81339   0.97851   0.21603   0.00000  Uiso   1.00
C693   C     0.81268   0.69301   0.21668   0.00000  Uiso   1.00
C694   C     0.85398   0.97365   0.28332   0.00000  Uiso   1.00
C695   C     0.83303   0.83382   0.16369   0.00000  Uiso   1.00
C696   C     0.83364   0.83288   0.33631   0.00000  Uiso   1.00
C697   C     0.87165   0.82155   0.40806   0.00000  Uiso   1.00
C698   C     0.79490   0.84530   0.09207   0.00000  Uiso   1.00
C699   C     0.83452   0.83224   0.38398   0.00000  Uiso   1.00
C700   C     0.91331   0.83204   0.24897   0.00000  Uiso   1.00
C701   C     0.83216   0.83502   0.11603   0.00000  Uiso   1.00
C702   C     0.79818   0.84478   0.40422   0.00000  Uiso   1.00
C703   C     0.86919   0.82622   0.09559   0.00000  Uiso   1.00
C704   C     0.79701   0.84522   0.45052   0.00000  Uiso   1.00
C705   C     0.87058   0.82776   0.04926   0.00000  Uiso   1.00
C706   C     0.83444   0.83609   0.47642   0.00000  Uiso   1.00
C707   C     0.83315   0.83664   0.02336   0.00000  Uiso   1.00
C708   C     0.87299   0.82629   0.45522   0.00000  Uiso   1.00
C709   C     0.79454   0.84569   0.04458   0.00000  Uiso   1.00
C710   C     0.75900   0.85461   0.47106   0.00000  Uiso   1.00
C711   C     0.75757   0.85461   0.01773   0.00000  Uiso   1.00
C712   C     0.90896   0.82153   0.02866   0.00000  Uiso   1.00
C713   C     0.71691   0.77597   0.31419   0.00000  Uiso   1.00
C714   C     0.94981   0.89108   0.18626   0.00000  Uiso   1.00
C715   C     0.96378   0.75890   0.29502   0.00000  Uiso   1.00
C716   C     0.70281   0.90835   0.20588   0.00000  Uiso   1.00
C717   C     0.91052   0.82199   0.48215   0.00000  Uiso   1.00
C718   C     0.69102   0.80350   0.27970   0.00000  Uiso   1.00
C719   C     0.97569   0.86339   0.22065   0.00000  Uiso   1.00
C720   C     0.98200   0.79790   0.27329   0.00000  Uiso   1.00
C721   C     0.68467   0.86905   0.22717   0.00000  Uiso   1.00
C722   C     0.95775   0.82944   0.24590   0.00000  Uiso   1.00
H723   H     0.77068   0.85299   0.38301   0.00000  Uiso   1.00
H724   H     0.95094   0.84350   0.07476   0.00000  Uiso   1.00
H725   H     0.70581   0.89507   0.02599   0.00000  Uiso   1.00
H726   H     0.69782   0.83907   0.02642   0.00000  Uiso   1.00
H727   H     0.95363   0.85087   0.44367   0.00000  Uiso   1.00
H728   H     0.95909   0.79228   0.44864   0.00000  Uiso   1.00
H729   H     0.74293   0.79078   0.33135   0.00000  Uiso   1.00
H730   H     0.92382   0.87637   0.16899   0.00000  Uiso   1.00
H731   H     0.96096   0.75745   0.33110   0.00000  Uiso   1.00
H732   H     0.70506   0.91054   0.16976   0.00000  Uiso   1.00
H733   H     0.88690   0.73658   0.31137   0.00000  Uiso   1.00
H734   H     0.89688   0.81869   0.11668   0.00000  Uiso   1.00
H735   H     0.84852   0.71815   0.34335   0.00000  Uiso   1.00
H736   H     0.77970   0.93009   0.18858   0.00000  Uiso   1.00
H737   H     0.81813   0.94848   0.15665   0.00000  Uiso   1.00
H738   H     0.75883   0.71096   0.18253   0.00000  Uiso   1.00
H739   H     0.80173   0.71107   0.15139   0.00000  Uiso   1.00
H740   H     0.90781   0.95572   0.31751   0.00000  Uiso   1.00
H741   H     0.86490   0.95559   0.34862   0.00000  Uiso   1.00
H742   H     0.92929   0.82523   0.38112   0.00000  Uiso   1.00
H743   H     0.91561   0.77132   0.39710   0.00000  Uiso   1.00
H744   H     0.74659   0.88762   0.10923   0.00000  Uiso   1.00
H745   H     0.73685   0.83089   0.11153   0.00000  Uiso   1.00
H746   H     0.71500   0.83599   0.42539   0.00000  Uiso   1.00
H747   H     0.72356   0.89225   0.42465   0.00000  Uiso   1.00
H748   H     0.94719   0.78640   0.07446   0.00000  Uiso   1.00
N749   N     0.83333   0.95240   0.25000   0.00000  Uiso   1.00
N750   N     0.79453   0.95834   0.17798   0.00000  Uiso   1.00
N751   N     0.78988   0.71945   0.18244   0.00000  Uiso   1.00
N752   N     0.87677   0.94721   0.31758   0.00000  Uiso   1.00
N753   N     0.83333   0.71427   0.25000   0.00000  Uiso   1.00
N754   N     0.90561   0.80289   0.38348   0.00000  Uiso   1.00
N755   N     0.75864   0.85504   0.11742   0.00000  Uiso   1.00
N756   N     0.72080   0.86369   0.44518   0.00000  Uiso   1.00
N757   N     0.94755   0.81567   0.05444   0.00000  Uiso   1.00
N758   N     0.71800   0.86333   0.03721   0.00000  Uiso   1.00
N759   N     0.95122   0.82234   0.46428   0.00000  Uiso   1.00
N760   N     0.87212   0.70832   0.32201   0.00000  Uiso   1.00
O761   O     0.77226   0.87154   0.25000   0.00000  Uiso   1.00
O762   O     0.95605   0.93048   0.17802   0.00000  Uiso   1.00
O763   O     0.95456   0.72680   0.27266   0.00000  Uiso   1.00
O764   O     0.71258   0.93991   0.22871   0.00000  Uiso   1.00
O765   O     0.89441   0.79513   0.25000   0.00000  Uiso   1.00
O766   O     0.89441   0.87154   0.25001   0.00000  Uiso   1.00
O767   O     0.77226   0.79513   0.25000   0.00000  Uiso   1.00
O768   O     0.83333   0.87156   0.18393   0.00000  Uiso   1.00
O769   O     0.83334   0.79511   0.31608   0.00000  Uiso   1.00
O770   O     0.83334   0.87156   0.31608   0.00000  Uiso   1.00
O771   O     0.83333   0.79511   0.18393   0.00000  Uiso   1.00
O772   O     0.71061   0.73664   0.32269   0.00000  Uiso   1.00
Zn773  Zn    0.83333   0.88437   0.25000   0.00000  Uiso   1.00
Zn774  Zn    0.83333   0.78229   0.25000   0.00000  Uiso   1.00
C775   C     0.08669   0.16798   0.75108   0.00000  Uiso   1.00
C776   C     0.04228   0.17069   0.75436   0.00000  Uiso   1.00
C777   C     0.18660   0.02149   0.78397   0.00000  Uiso   1.00
C778   C     0.14673   0.31184   0.71603   0.00000  Uiso   1.00
C779   C     0.14601   0.02635   0.71668   0.00000  Uiso   1.00
C780   C     0.18731   0.30698   0.78332   0.00000  Uiso   1.00
C781   C     0.16637   0.16715   0.66369   0.00000  Uiso   1.00
C782   C     0.16697   0.16622   0.83631   0.00000  Uiso   1.00
C783   C     0.20498   0.15489   0.90806   0.00000  Uiso   1.00
C784   C     0.12824   0.17863   0.59207   0.00000  Uiso   1.00
C785   C     0.16785   0.16558   0.88398   0.00000  Uiso   1.00
C786   C     0.24665   0.16538   0.74897   0.00000  Uiso   1.00
C787   C     0.16550   0.16836   0.61603   0.00000  Uiso   1.00
C788   C     0.13151   0.17812   0.90422   0.00000  Uiso   1.00
C789   C     0.20252   0.15956   0.59559   0.00000  Uiso   1.00
C790   C     0.13035   0.17855   0.95052   0.00000  Uiso   1.00
C791   C     0.20391   0.16109   0.54926   0.00000  Uiso   1.00
C792   C     0.16777   0.16942   0.97642   0.00000  Uiso   1.00
C793   C     0.16648   0.16997   0.52336   0.00000  Uiso   1.00
C794   C     0.20633   0.15962   0.95522   0.00000  Uiso   1.00
C795   C     0.12787   0.17902   0.54458   0.00000  Uiso   1.00
C796   C     0.09233   0.18794   0.97106   0.00000  Uiso   1.00
C797   C     0.09090   0.18794   0.51773   0.00000  Uiso   1.00
C798   C     0.24229   0.15486   0.52866   0.00000  Uiso   1.00
C799   C     0.05025   0.10931   0.81419   0.00000  Uiso   1.00
C800   C     0.28314   0.22442   0.68626   0.00000  Uiso   1.00
C801   C     0.29712   0.09224   0.79502   0.00000  Uiso   1.00
C802   C     0.03615   0.24168   0.70588   0.00000  Uiso   1.00
C803   C     0.24386   0.15533   0.98215   0.00000  Uiso   1.00
C804   C     0.02435   0.13683   0.77970   0.00000  Uiso   1.00
C805   C     0.30902   0.19672   0.72065   0.00000  Uiso   1.00
C806   C     0.31533   0.13123   0.77329   0.00000  Uiso   1.00
C807   C     0.01801   0.20238   0.72717   0.00000  Uiso   1.00
C808   C     0.29108   0.16277   0.74590   0.00000  Uiso   1.00
H809   H     0.10401   0.18633   0.88301   0.00000  Uiso   1.00
H810   H     0.28427   0.17684   0.57476   0.00000  Uiso   1.00
H811   H     0.03914   0.22840   0.52599   0.00000  Uiso   1.00
H812   H     0.03115   0.17240   0.52642   0.00000  Uiso   1.00
H813   H     0.28696   0.18421   0.94367   0.00000  Uiso   1.00
H814   H     0.29242   0.12561   0.94864   0.00000  Uiso   1.00
H815   H     0.07626   0.12411   0.83135   0.00000  Uiso   1.00
H816   H     0.25715   0.20970   0.66899   0.00000  Uiso   1.00
H817   H     0.29429   0.09078   0.83110   0.00000  Uiso   1.00
H818   H     0.03840   0.24387   0.66976   0.00000  Uiso   1.00
H819   H     0.22023   0.06991   0.81137   0.00000  Uiso   1.00
H820   H     0.23022   0.15203   0.61668   0.00000  Uiso   1.00
H821   H     0.18186   0.05149   0.84335   0.00000  Uiso   1.00
H822   H     0.11303   0.26343   0.68858   0.00000  Uiso   1.00
H823   H     0.15147   0.28181   0.65665   0.00000  Uiso   1.00
H824   H     0.09216   0.04429   0.68253   0.00000  Uiso   1.00
H825   H     0.13506   0.04440   0.65139   0.00000  Uiso   1.00
H826   H     0.24115   0.28905   0.81751   0.00000  Uiso   1.00
H827   H     0.19823   0.28892   0.84862   0.00000  Uiso   1.00
H828   H     0.26262   0.15856   0.88112   0.00000  Uiso   1.00
H829   H     0.24895   0.10465   0.89710   0.00000  Uiso   1.00
H830   H     0.07993   0.22095   0.60923   0.00000  Uiso   1.00
H831   H     0.07018   0.16422   0.61153   0.00000  Uiso   1.00
H832   H     0.04834   0.16932   0.92539   0.00000  Uiso   1.00
H833   H     0.05689   0.22558   0.92465   0.00000  Uiso   1.00
H834   H     0.28052   0.11973   0.57446   0.00000  Uiso   1.00
N835   N     0.16667   0.28573   0.75000   0.00000  Uiso   1.00
N836   N     0.12787   0.29167   0.67798   0.00000  Uiso   1.00
N837   N     0.12321   0.05278   0.68244   0.00000  Uiso   1.00
N838   N     0.21010   0.28055   0.81758   0.00000  Uiso   1.00
N839   N     0.16667   0.04760   0.75000   0.00000  Uiso   1.00
N840   N     0.23895   0.13622   0.88348   0.00000  Uiso   1.00
N841   N     0.09197   0.18837   0.61742   0.00000  Uiso   1.00
N842   N     0.05413   0.19702   0.94518   0.00000  Uiso   1.00
N843   N     0.28089   0.14900   0.55444   0.00000  Uiso   1.00
N844   N     0.05133   0.19666   0.53721   0.00000  Uiso   1.00
N845   N     0.28456   0.15567   0.96428   0.00000  Uiso   1.00
N846   N     0.20546   0.04165   0.82201   0.00000  Uiso   1.00
O847   O     0.10559   0.20487   0.75000   0.00000  Uiso   1.00
O848   O     0.28938   0.26381   0.67802   0.00000  Uiso   1.00
O849   O     0.28790   0.06014   0.77266   0.00000  Uiso   1.00
O850   O     0.04591   0.27325   0.72871   0.00000  Uiso   1.00
O851   O     0.22774   0.12846   0.75000   0.00000  Uiso   1.00
O852   O     0.22774   0.20487   0.75001   0.00000  Uiso   1.00
O853   O     0.10559   0.12846   0.75000   0.00000  Uiso   1.00
O854   O     0.16666   0.20489   0.68393   0.00000  Uiso   1.00
O855   O     0.16667   0.12844   0.81608   0.00000  Uiso   1.00
O856   O     0.16667   0.20489   0.81608   0.00000  Uiso   1.00
O857   O     0.16666   0.12844   0.68393   0.00000  Uiso   1.00
O858   O     0.04395   0.06998   0.82269   0.00000  Uiso   1.00
Zn859  Zn    0.16667   0.21771   0.75000   0.00000  Uiso   1.00
Zn860  Zn    0.16667   0.11563   0.75000   0.00000  Uiso   1.00
C861   C     0.42002   0.16798   0.75108   0.00000  Uiso   1.00
C862   C     0.37561   0.17069   0.75436   0.00000  Uiso   1.00
C863   C     0.51993   0.02149   0.78397   0.00000  Uiso   1.00
C864   C     0.48006   0.31184   0.71603   0.00000  Uiso   1.00
C865   C     0.47934   0.02635   0.71668   0.00000  Uiso   1.00
C866   C     0.52065   0.30698   0.78332   0.00000  Uiso   1.00
C867   C     0.49970   0.16715   0.66369   0.00000  Uiso   1.00
C868   C     0.50031   0.16622   0.83631   0.00000  Uiso   1.00
C869   C     0.53831   0.15489   0.90806   0.00000  Uiso   1.00
C870   C     0.46157   0.17863   0.59207   0.00000  Uiso   1.00
C871   C     0.50118   0.16558   0.88398   0.00000  Uiso   1.00
C872   C     0.57998   0.16538   0.74897   0.00000  Uiso   1.00
C873   C     0.49883   0.16836   0.61603   0.00000  Uiso   1.00
C874   C     0.46485   0.17812   0.90422   0.00000  Uiso   1.00
C875   C     0.53585   0.15956   0.59559   0.00000  Uiso   1.00
C876   C     0.46368   0.17855   0.95052   0.00000  Uiso   1.00
C877   C     0.53724   0.16109   0.54926   0.00000  Uiso   1.00
C878   C     0.50111   0.16942   0.97642   0.00000  Uiso   1.00
C879   C     0.49981   0.16997   0.52336   0.00000  Uiso   1.00
C880   C     0.53966   0.15962   0.95522   0.00000  Uiso   1.00
C881   C     0.46121   0.17902   0.54458   0.00000  Uiso   1.00
C882   C     0.42567   0.18794   0.97106   0.00000  Uiso   1.00
C883   C     0.42424   0.18794   0.51773   0.00000  Uiso   1.00
C884   C     0.57562   0.15486   0.52866   0.00000  Uiso   1.00
C885   C     0.38358   0.10931   0.81419   0.00000  Uiso   1.00
C886   C     0.61647   0.22442   0.68626   0.00000  Uiso   1.00
C887   C     0.63045   0.09224   0.79502   0.00000  Uiso   1.00
C888   C     0.36948   0.24168   0.70588   0.00000  Uiso   1.00
C889   C     0.57719   0.15533   0.98215   0.00000  Uiso   1.00
C890   C     0.35768   0.13683   0.77970   0.00000  Uiso   1.00
C891   C     0.64235   0.19672   0.72065   0.00000  Uiso   1.00
C892   C     0.64867   0.13123   0.77329   0.00000  Uiso   1.00
C893   C     0.35134   0.20238   0.72717   0.00000  Uiso   1.00
C894   C     0.62441   0.16277   0.74590   0.00000  Uiso   1.00
H895   H     0.43734   0.18633   0.88301   0.00000  Uiso   1.00
H896   H     0.61761   0.17684   0.57476   0.00000  Uiso   1.00
H897   H     0.37247   0.22840   0.52599   0.00000  Uiso   1.00
H898   H     0.36449   0.17240   0.52642   0.00000  Uiso   1.00
H899   H     0.62029   0.18421   0.94367   0.00000  Uiso   1.00
H900   H     0.62576   0.12561   0.94864   0.00000  Uiso   1.00
H901   H     0.40960   0.12411   0.83135   0.00000  Uiso   1.00
H902   H     0.59049   0.20970   0.66899   0.00000  Uiso   1.00
H903   H     0.62762   0.09078   0.83110   0.00000  Uiso   1.00
H904   H     0.37173   0.24387   0.66976   0.00000  Uiso   1.00
H905   H     0.55357   0.06991   0.81137   0.00000  Uiso   1.00
H906   H     0.56355   0.15203   0.61668   0.00000  Uiso   1.00
H907   H     0.51519   0.05149   0.84335   0.00000  Uiso   1.00
H908   H     0.44637   0.26343   0.68858   0.00000  Uiso   1.00
H909   H     0.48480   0.28181   0.65665   0.00000  Uiso   1.00
H910   H     0.42550   0.04429   0.68253   0.00000  Uiso   1.00
H911   H     0.46840   0.04440   0.65139   0.00000  Uiso   1.00
H912   H     0.57448   0.28905   0.81751   0.00000  Uiso   1.00
H913   H     0.53156   0.28892   0.84862   0.00000  Uiso   1.00
H914   H     0.59596   0.15856   0.88112   0.00000  Uiso   1.00
H915   H     0.58228   0.10465   0.89710   0.00000  Uiso   1.00
H916   H     0.41326   0.22095   0.60923   0.00000  Uiso   1.00
H917   H     0.40352   0.16422   0.61153   0.00000  Uiso   1.00
H918   H     0.38167   0.16932   0.92539   0.00000  Uiso   1.00
H919   H     0.39023   0.22558   0.92465   0.00000  Uiso   1.00
H920   H     0.61385   0.11973   0.57446   0.00000  Uiso   1.00
N921   N     0.50000   0.28573   0.75000   0.00000  Uiso   1.00
N922   N     0.46120   0.29167   0.67798   0.00000  Uiso   1.00
N923   N     0.45654   0.05278   0.68244   0.00000  Uiso   1.00
N924   N     0.54344   0.28055   0.81758   0.00000  Uiso   1.00
N925   N     0.50000   0.04760   0.75000   0.00000  Uiso   1.00
N926   N     0.57228   0.13622   0.88348   0.00000  Uiso   1.00
N927   N     0.42530   0.18837   0.61742   0.00000  Uiso   1.00
N928   N     0.38746   0.19702   0.94518   0.00000  Uiso   1.00
N929   N     0.61422   0.14900   0.55444   0.00000  Uiso   1.00
N930   N     0.38466   0.19666   0.53721   0.00000  Uiso   1.00
N931   N     0.61789   0.15567   0.96428   0.00000  Uiso   1.00
N932   N     0.53879   0.04165   0.82201   0.00000  Uiso   1.00
O933   O     0.43892   0.20487   0.75000   0.00000  Uiso   1.00
O934   O     0.62272   0.26381   0.67802   0.00000  Uiso   1.00
O935   O     0.62123   0.06014   0.77266   0.00000  Uiso   1.00
O936   O     0.37925   0.27325   0.72871   0.00000  Uiso   1.00
O937   O     0.56108   0.12846   0.75000   0.00000  Uiso   1.00
O938   O     0.56108   0.20487   0.75001   0.00000  Uiso   1.00
O939   O     0.43892   0.12846   0.75000   0.00000  Uiso   1.00
O940   O     0.49999   0.20489   0.68393   0.00000  Uiso   1.00
O941   O     0.50001   0.12844   0.81608   0.00000  Uiso   1.00
O942   O     0.50001   0.20489   0.81608   0.00000  Uiso   1.00
O943   O     0.49999   0.12844   0.68393   0.00000  Uiso   1.00
O944   O     0.37728   0.06998   0.82269   0.00000  Uiso   1.00
Zn945  Zn    0.50000   0.21771   0.75000   0.00000  Uiso   1.00
Zn946  Zn    0.50000   0.11563   0.75000   0.00000  Uiso   1.00
C947   C     0.75336   0.16798   0.75108   0.00000  Uiso   1.00
C948   C     0.70895   0.17069   0.75436   0.00000  Uiso   1.00
C949   C     0.85326   0.02149   0.78397   0.00000  Uiso   1.00
C950   C     0.81339   0.31184   0.71603   0.00000  Uiso   1.00
C951   C     0.81268   0.02635   0.71668   0.00000  Uiso   1.00
C952   C     0.85398   0.30698   0.78332   0.00000  Uiso   1.00
C953   C     0.83303   0.16715   0.66369   0.00000  Uiso   1.00
C954   C     0.83364   0.16622   0.83631   0.00000  Uiso   1.00
C955   C     0.87165   0.15489   0.90806   0.00000  Uiso   1.00
C956   C     0.79490   0.17863   0.59207   0.00000  Uiso   1.00
C957   C     0.83452   0.16558   0.88398   0.00000  Uiso   1.00
C958   C     0.91331   0.16538   0.74897   0.00000  Uiso   1.00
C959   C     0.83216   0.16836   0.61603   0.00000  Uiso   1.00
C960   C     0.79818   0.17812   0.90422   0.00000  Uiso   1.00
C961   C     0.86919   0.15956   0.59559   0.00000  Uiso   1.00
C962   C     0.79701   0.17855   0.95052   0.00000  Uiso   1.00
C963   C     0.87058   0.16109   0.54926   0.00000  Uiso   1.00
C964   C     0.83444   0.16942   0.97642   0.00000  Uiso   1.00
C965   C     0.83315   0.16997   0.52336   0.00000  Uiso   1.00
C966   C     0.87299   0.15962   0.95522   0.00000  Uiso   1.00
C967   C     0.79454   0.17902   0.54458   0.00000  Uiso   1.00
C968   C     0.75900   0.18794   0.97106   0.00000  Uiso   1.00
C969   C     0.75757   0.18794   0.51773   0.00000  Uiso   1.00
C970   C     0.90896   0.15486   0.52866   0.00000  Uiso   1.00
C971   C     0.71691   0.10931   0.81419   0.00000  Uiso   1.00
C972   C     0.94981   0.22442   0.68626   0.00000  Uiso   1.00
C973   C     0.96378   0.09224   0.79502   0.00000  Uiso   1.00
C974   C     0.70281   0.24168   0.70588   0.00000  Uiso   1.00
C975   C     0.91052   0.15533   0.98215   0.00000  Uiso   1.00
C976   C     0.69102   0.13683   0.77970   0.00000  Uiso   1.00
C977   C     0.97569   0.19672   0.72065   0.00000  Uiso   1.00
C978   C     0.98200   0.13123   0.77329   0.00000  Uiso   1.00
C979   C     0.68467   0.20238   0.72717   0.00000  Uiso   1.00
C980   C     0.95775   0.16277   0.74590   0.00000  Uiso   1.00
H981   H     0.77068   0.18633   0.88301   0.00000  Uiso   1.00
H982   H     0.95094   0.17684   0.57476   0.00000  Uiso   1.00
H983   H     0.70581   0.22840   0.52599   0.00000  Uiso   1.00
H984   H     0.69782   0.17240   0.52642   0.00000  Uiso   1.00
H985   H     0.95363   0.18421   0.94367   0.00000  Uiso   1.00
H986   H     0.95909   0.12561   0.94864   0.00000  Uiso   1.00
H987   H     0.74293   0.12411   0.83135   0.00000  Uiso   1.00
H988   H     0.92382   0.20970   0.66899   0.00000  Uiso   1.00
H989   H     0.96096   0.09078   0.83110   0.00000  Uiso   1.00
H990   H     0.70506   0.24387   0.66976   0.00000  Uiso   1.00
H991   H     0.88690   0.06991   0.81137   0.00000  Uiso   1.00
H992   H     0.89688   0.15203   0.61668   0.00000  Uiso   1.00
H993   H     0.84852   0.05149   0.84335   0.00000  Uiso   1.00
H994   H     0.77970   0.26343   0.68858   0.00000  Uiso   1.00
H995   H     0.81813   0.28181   0.65665   0.00000  Uiso   1.00
H996   H     0.75883   0.04429   0.68253   0.00000  Uiso   1.00
H997   H     0.80173   0.04440   0.65139   0.00000  Uiso   1.00
H998   H     0.90781   0.28905   0.81751   0.00000  Uiso   1.00
H999   H     0.86490   0.28892   0.84862   0.00000  Uiso   1.00
H1000  H     0.92929   0.15856   0.88112   0.00000  Uiso   1.00
H1001  H     0.91561   0.10465   0.89710   0.00000  Uiso   1.00
H1002  H     0.74659   0.22095   0.60923   0.00000  Uiso   1.00
H1003  H     0.73685   0.16422   0.61153   0.00000  Uiso   1.00
H1004  H     0.71500   0.16932   0.92539   0.00000  Uiso   1.00
H1005  H     0.72356   0.22558   0.92465   0.00000  Uiso   1.00
H1006  H     0.94719   0.11973   0.57446   0.00000  Uiso   1.00
N1007  N     0.83333   0.28573   0.75000   0.00000  Uiso   1.00
N1008  N     0.79453   0.29167   0.67798   0.00000  Uiso   1.00
N1009  N     0.78988   0.05278   0.68244   0.00000  Uiso   1.00
N1010  N     0.87677   0.28055   0.81758   0.00000  Uiso   1.00
N1011  N     0.83333   0.04760   0.75000   0.00000  Uiso   1.00
N1012  N     0.90561   0.13622   0.88348   0.00000  Uiso   1.00
N1013  N     0.75864   0.18837   0.61742   0.00000  Uiso   1.00
N1014  N     0.72080   0.19702   0.94518   0.00000  Uiso   1.00
N1015  N     0.94755   0.14900   0.55444   0.00000  Uiso   1.00
N1016  N     0.71800   0.19666   0.53721   0.00000  Uiso   1.00
N1017  N     0.95122   0.15567   0.96428   0.00000  Uiso   1.00
N1018  N     0.87212   0.04165   0.82201   0.00000  Uiso   1.00
O1019  O     0.77226   0.20487   0.75000   0.00000  Uiso   1.00
O1020  O     0.95605   0.26381   0.67802   0.00000  Uiso   1.00
O1021  O     0.95456   0.06014   0.77266   0.00000  Uiso   1.00
O1022  O     0.71258   0.27325   0.72871   0.00000  Uiso   1.00
O1023  O     0.89441   0.12846   0.75000   0.00000  Uiso   1.00
O1024  O     0.89441   0.20487   0.75001   0.00000  Uiso   1.00
O1025  O     0.77226   0.12846   0.75000   0.00000  Uiso   1.00
O1026  O     0.83333   0.20489   0.68393   0.00000  Uiso   1.00
O1027  O     0.83334   0.12844   0.81608   0.00000  Uiso   1.00
O1028  O     0.83334   0.20489   0.81608   0.00000  Uiso   1.00
O1029  O     0.83333   0.12844   0.68393   0.00000  Uiso   1.00
O1030  O     0.71061   0.06998   0.82269   0.00000  Uiso   1.00
Zn1031 Zn    0.83333   0.21771   0.75000   0.00000  Uiso   1.00
Zn1032 Zn    0.83333   0.11563   0.75000   0.00000  Uiso   1.00
C1033  C     0.08669   0.50131   0.75108   0.00000  Uiso   1.00
C1034  C     0.04228   0.50403   0.75436   0.00000  Uiso   1.00
C1035  C     0.18660   0.35482   0.78397   0.00000  Uiso   1.00
C1036  C     0.14673   0.64517   0.71603   0.00000  Uiso   1.00
C1037  C     0.14601   0.35968   0.71668   0.00000  Uiso   1.00
C1038  C     0.18731   0.64032   0.78332   0.00000  Uiso   1.00
C1039  C     0.16637   0.50048   0.66369   0.00000  Uiso   1.00
C1040  C     0.16697   0.49955   0.83631   0.00000  Uiso   1.00
C1041  C     0.20498   0.48822   0.90806   0.00000  Uiso   1.00
C1042  C     0.12824   0.51197   0.59207   0.00000  Uiso   1.00
C1043  C     0.16785   0.49891   0.88398   0.00000  Uiso   1.00
C1044  C     0.24665   0.49871   0.74897   0.00000  Uiso   1.00
C1045  C     0.16550   0.50169   0.61603   0.00000  Uiso   1.00
C1046  C     0.13151   0.51145   0.90422   0.00000  Uiso   1.00
C1047  C     0.20252   0.49289   0.59559   0.00000  Uiso   1.00
C1048  C     0.13035   0.51188   0.95052   0.00000  Uiso   1.00
C1049  C     0.20391   0.49442   0.54926   0.00000  Uiso   1.00
C1050  C     0.16777   0.50275   0.97642   0.00000  Uiso   1.00
C1051  C     0.16648   0.50331   0.52336   0.00000  Uiso   1.00
C1052  C     0.20633   0.49295   0.95522   0.00000  Uiso   1.00
C1053  C     0.12787   0.51235   0.54458   0.00000  Uiso   1.00
C1054  C     0.09233   0.52128   0.97106   0.00000  Uiso   1.00
C1055  C     0.09090   0.52128   0.51773   0.00000  Uiso   1.00
C1056  C     0.24229   0.48819   0.52866   0.00000  Uiso   1.00
C1057  C     0.05025   0.44264   0.81419   0.00000  Uiso   1.00
C1058  C     0.28314   0.55775   0.68626   0.00000  Uiso   1.00
C1059  C     0.29712   0.42557   0.79502   0.00000  Uiso   1.00
C1060  C     0.03615   0.57501   0.70588   0.00000  Uiso   1.00
C1061  C     0.24386   0.48866   0.98215   0.00000  Uiso   1.00
C1062  C     0.02435   0.47017   0.77970   0.00000  Uiso   1.00
C1063  C     0.30902   0.53006   0.72065   0.00000  Uiso   1.00
C1064  C     0.31533   0.46457   0.77329   0.00000  Uiso   1.00
C1065  C     0.01801   0.53572   0.72717   0.00000  Uiso   1.00
C1066  C     0.29108   0.49610   0.74590   0.00000  Uiso   1.00
H1067  H     0.10401   0.51966   0.88301   0.00000  Uiso   1.00
H1068  H     0.28427   0.51017   0.57476   0.00000  Uiso   1.00
H1069  H     0.03914   0.56174   0.52599   0.00000  Uiso   1.00
H1070  H     0.03115   0.50574   0.52642   0.00000  Uiso   1.00
H1071  H     0.28696   0.51754   0.94367   0.00000  Uiso   1.00
H1072  H     0.29242   0.45895   0.94864   0.00000  Uiso   1.00
H1073  H     0.07626   0.45745   0.83135   0.00000  Uiso   1.00
H1074  H     0.25715   0.54303   0.66899   0.00000  Uiso   1.00
H1075  H     0.29429   0.42411   0.83110   0.00000  Uiso   1.00
H1076  H     0.03840   0.57720   0.66976   0.00000  Uiso   1.00
H1077  H     0.22023   0.40324   0.81137   0.00000  Uiso   1.00
H1078  H     0.23022   0.48536   0.61668   0.00000  Uiso   1.00
H1079  H     0.18186   0.38482   0.84335   0.00000  Uiso   1.00
H1080  H     0.11303   0.59676   0.68858   0.00000  Uiso   1.00
H1081  H     0.15147   0.61515   0.65665   0.00000  Uiso   1.00
H1082  H     0.09216   0.37762   0.68253   0.00000  Uiso   1.00
H1083  H     0.13506   0.37774   0.65139   0.00000  Uiso   1.00
H1084  H     0.24115   0.62238   0.81751   0.00000  Uiso   1.00
H1085  H     0.19823   0.62225   0.84862   0.00000  Uiso   1.00
H1086  H     0.26262   0.49190   0.88112   0.00000  Uiso   1.00
H1087  H     0.24895   0.43799   0.89710   0.00000  Uiso   1.00
H1088  H     0.07993   0.55429   0.60923   0.00000  Uiso   1.00
H1089  H     0.07018   0.49755   0.61153   0.00000  Uiso   1.00
H1090  H     0.04834   0.50266   0.92539   0.00000  Uiso   1.00
H1091  H     0.05689   0.55891   0.92465   0.00000  Uiso   1.00
H1092  H     0.28052   0.45306   0.57446   0.00000  Uiso   1.00
N1093  N     0.16667   0.61907   0.75000   0.00000  Uiso   1.00
N1094  N     0.12787   0.62501   0.67798   0.00000  Uiso   1.00
N1095  N     0.12321   0.38612   0.68244   0.00000  Uiso   1.00
N1096  N     0.21010   0.61388   0.81758   0.00000  Uiso   1.00
N1097  N     0.16667   0.38093   0.75000   0.00000  Uiso   1.00
N1098  N     0.23895   0.46955   0.88348   0.00000  Uiso   1.00
N1099  N     0.09197   0.52171   0.61742   0.00000  Uiso   1.00
N1100  N     0.05413   0.53035   0.94518   0.00000  Uiso   1.00
N1101  N     0.28089   0.48234   0.55444   0.00000  Uiso   1.00
N1102  N     0.05133   0.52999   0.53721   0.00000  Uiso   1.00
N1103  N     0.28456   0.48900   0.96428   0.00000  Uiso   1.00
N1104  N     0.20546   0.37498   0.82201   0.00000  Uiso   1.00
O1105  O     0.10559   0.53821   0.75000   0.00000  Uiso   1.00
O1106  O     0.28938   0.59714   0.67802   0.00000  Uiso   1.00
O1107  O     0.28790   0.39347   0.77266   0.00000  Uiso   1.00
O1108  O     0.04591   0.60658   0.72871   0.00000  Uiso   1.00
O1109  O     0.22774   0.46179   0.75000   0.00000  Uiso   1.00
O1110  O     0.22774   0.53821   0.75001   0.00000  Uiso   1.00
O1111  O     0.10559   0.46179   0.75000   0.00000  Uiso   1.00
O1112  O     0.16666   0.53823   0.68393   0.00000  Uiso   1.00
O1113  O     0.16667   0.46177   0.81608   0.00000  Uiso   1.00
O1114  O     0.16667   0.53823   0.81608   0.00000  Uiso   1.00
O1115  O     0.16666   0.46177   0.68393   0.00000  Uiso   1.00
O1116  O     0.04395   0.40331   0.82269   0.00000  Uiso   1.00
Zn1117 Zn    0.16667   0.55104   0.75000   0.00000  Uiso   1.00
Zn1118 Zn    0.16667   0.44896   0.75000   0.00000  Uiso   1.00
C1119  C     0.42002   0.50131   0.75108   0.00000  Uiso   1.00
C1120  C     0.37561   0.50403   0.75436   0.00000  Uiso   1.00
C1121  C     0.51993   0.35482   0.78397   0.00000  Uiso   1.00
C1122  C     0.48006   0.64517   0.71603   0.00000  Uiso   1.00
C1123  C     0.47934   0.35968   0.71668   0.00000  Uiso   1.00
C1124  C     0.52065   0.64032   0.78332   0.00000  Uiso   1.00
C1125  C     0.49970   0.50048   0.66369   0.00000  Uiso   1.00
C1126  C     0.50031   0.49955   0.83631   0.00000  Uiso   1.00
C1127  C     0.53831   0.48822   0.90806   0.00000  Uiso   1.00
C1128  C     0.46157   0.51197   0.59207   0.00000  Uiso   1.00
C1129  C     0.50118   0.49891   0.88398   0.00000  Uiso   1.00
C1130  C     0.57998   0.49871   0.74897   0.00000  Uiso   1.00
C1131  C     0.49883   0.50169   0.61603   0.00000  Uiso   1.00
C1132  C     0.46485   0.51145   0.90422   0.00000  Uiso   1.00
C1133  C     0.53585   0.49289   0.59559   0.00000  Uiso   1.00
C1134  C     0.46368   0.51188   0.95052   0.00000  Uiso   1.00
C1135  C     0.53724   0.49442   0.54926   0.00000  Uiso   1.00
C1136  C     0.50111   0.50275   0.97642   0.00000  Uiso   1.00
C1137  C     0.49981   0.50331   0.52336   0.00000  Uiso   1.00
C1138  C     0.53966   0.49295   0.95522   0.00000  Uiso   1.00
C1139  C     0.46121   0.51235   0.54458   0.00000  Uiso   1.00
C1140  C     0.42567   0.52128   0.97106   0.00000  Uiso   1.00
C1141  C     0.42424   0.52128   0.51773   0.00000  Uiso   1.00
C1142  C     0.57562   0.48819   0.52866   0.00000  Uiso   1.00
C1143  C     0.38358   0.44264   0.81419   0.00000  Uiso   1.00
C1144  C     0.61647   0.55775   0.68626   0.00000  Uiso   1.00
C1145  C     0.63045   0.42557   0.79502   0.00000  Uiso   1.00
C1146  C     0.36948   0.57501   0.70588   0.00000  Uiso   1.00
C1147  C     0.57719   0.48866   0.98215   0.00000  Uiso   1.00
C1148  C     0.35768   0.47017   0.77970   0.00000  Uiso   1.00
C1149  C     0.64235   0.53006   0.72065   0.00000  Uiso   1.00
C1150  C     0.64867   0.46457   0.77329   0.00000  Uiso   1.00
C1151  C     0.35134   0.53572   0.72717   0.00000  Uiso   1.00
C1152  C     0.62441   0.49610   0.74590   0.00000  Uiso   1.00
H1153  H     0.43734   0.51966   0.88301   0.00000  Uiso   1.00
H1154  H     0.61761   0.51017   0.57476   0.00000  Uiso   1.00
H1155  H     0.37247   0.56174   0.52599   0.00000  Uiso   1.00
H1156  H     0.36449   0.50574   0.52642   0.00000  Uiso   1.00
H1157  H     0.62029   0.51754   0.94367   0.00000  Uiso   1.00
H1158  H     0.62576   0.45895   0.94864   0.00000  Uiso   1.00
H1159  H     0.40960   0.45745   0.83135   0.00000  Uiso   1.00
H1160  H     0.59049   0.54303   0.66899   0.00000  Uiso   1.00
H1161  H     0.62762   0.42411   0.83110   0.00000  Uiso   1.00
H1162  H     0.37173   0.57720   0.66976   0.00000  Uiso   1.00
H1163  H     0.55357   0.40324   0.81137   0.00000  Uiso   1.00
H1164  H     0.56355   0.48536   0.61668   0.00000  Uiso   1.00
H1165  H     0.51519   0.38482   0.84335   0.00000  Uiso   1.00
H1166  H     0.44637   0.59676   0.68858   0.00000  Uiso   1.00
H1167  H     0.48480   0.61515   0.65665   0.00000  Uiso   1.00
H1168  H     0.42550   0.37762   0.68253   0.00000  Uiso   1.00
H1169  H     0.46840   0.37774   0.65139   0.00000  Uiso   1.00
H1170  H     0.57448   0.62238   0.81751   0.00000  Uiso   1.00
H1171  H     0.53156   0.62225   0.84862   0.00000  Uiso   1.00
H1172  H     0.59596   0.49190   0.88112   0.00000  Uiso   1.00
H1173  H     0.58228   0.43799   0.89710   0.00000  Uiso   1.00
H1174  H     0.41326   0.55429   0.60923   0.00000  Uiso   1.00
H1175  H     0.40352   0.49755   0.61153   0.00000  Uiso   1.00
H1176  H     0.38167   0.50266   0.92539   0.00000  Uiso   1.00
H1177  H     0.39023   0.55891   0.92465   0.00000  Uiso   1.00
H1178  H     0.61385   0.45306   0.57446   0.00000  Uiso   1.00
N1179  N     0.50000   0.61907   0.75000   0.00000  Uiso   1.00
N1180  N     0.46120   0.62501   0.67798   0.00000  Uiso   1.00
N1181  N     0.45654   0.38612   0.68244   0.00000  Uiso   1.00
N1182  N     0.54344   0.61388   0.81758   0.00000  Uiso   1.00
N1183  N     0.50000   0.38093   0.75000   0.00000  Uiso   1.00
N1184  N     0.57228   0.46955   0.88348   0.00000  Uiso   1.00
N1185  N     0.42530   0.52171   0.61742   0.00000  Uiso   1.00
N1186  N     0.38746   0.53035   0.94518   0.00000  Uiso   1.00
N1187  N     0.61422   0.48234   0.55444   0.00000  Uiso   1.00
N1188  N     0.38466   0.52999   0.53721   0.00000  Uiso   1.00
N1189  N     0.61789   0.48900   0.96428   0.00000  Uiso   1.00
N1190  N     0.53879   0.37498   0.82201   0.00000  Uiso   1.00
O1191  O     0.43892   0.53821   0.75000   0.00000  Uiso   1.00
O1192  O     0.62272   0.59714   0.67802   0.00000  Uiso   1.00
O1193  O     0.62123   0.39347   0.77266   0.00000  Uiso   1.00
O1194  O     0.37925   0.60658   0.72871   0.00000  Uiso   1.00
O1195  O     0.56108   0.46179   0.75000   0.00000  Uiso   1.00
O1196  O     0.56108   0.53821   0.75001   0.00000  Uiso   1.00
O1197  O     0.43892   0.46179   0.75000   0.00000  Uiso   1.00
O1198  O     0.49999   0.53823   0.68393   0.00000  Uiso   1.00
O1199  O     0.50001   0.46177   0.81608   0.00000  Uiso   1.00
O1200  O     0.50001   0.53823   0.81608   0.00000  Uiso   1.00
O1201  O     0.49999   0.46177   0.68393   0.00000  Uiso   1.00
O1202  O     0.37728   0.40331   0.82269   0.00000  Uiso   1.00
Zn1203 Zn    0.50000   0.55104   0.75000   0.00000  Uiso   1.00
Zn1204 Zn    0.50000   0.44896   0.75000   0.00000  Uiso   1.00
C1205  C     0.75336   0.50131   0.75108   0.00000  Uiso   1.00
C1206  C     0.70895   0.50403   0.75436   0.00000  Uiso   1.00
C1207  C     0.85326   0.35482   0.78397   0.00000  Uiso   1.00
C1208  C     0.81339   0.64517   0.71603   0.00000  Uiso   1.00
C1209  C     0.81268   0.35968   0.71668   0.00000  Uiso   1.00
C1210  C     0.85398   0.64032   0.78332   0.00000  Uiso   1.00
C1211  C     0.83303   0.50048   0.66369   0.00000  Uiso   1.00
C1212  C     0.83364   0.49955   0.83631   0.00000  Uiso   1.00
C1213  C     0.87165   0.48822   0.90806   0.00000  Uiso   1.00
C1214  C     0.79490   0.51197   0.59207   0.00000  Uiso   1.00
C1215  C     0.83452   0.49891   0.88398   0.00000  Uiso   1.00
C1216  C     0.91331   0.49871   0.74897   0.00000  Uiso   1.00
C1217  C     0.83216   0.50169   0.61603   0.00000  Uiso   1.00
C1218  C     0.79818   0.51145   0.90422   0.00000  Uiso   1.00
C1219  C     0.86919   0.49289   0.59559   0.00000  Uiso   1.00
C1220  C     0.79701   0.51188   0.95052   0.00000  Uiso   1.00
C1221  C     0.87058   0.49442   0.54926   0.00000  Uiso   1.00
C1222  C     0.83444   0.50275   0.97642   0.00000  Uiso   1.00
C1223  C     0.83315   0.50331   0.52336   0.00000  Uiso   1.00
C1224  C     0.87299   0.49295   0.95522   0.00000  Uiso   1.00
C1225  C     0.79454   0.51235   0.54458   0.00000  Uiso   1.00
C1226  C     0.75900   0.52128   0.97106   0.00000  Uiso   1.00
C1227  C     0.75757   0.52128   0.51773   0.00000  Uiso   1.00
C1228  C     0.90896   0.48819   0.52866   0.00000  Uiso   1.00
C1229  C     0.71691   0.44264   0.81419   0.00000  Uiso   1.00
C1230  C     0.94981   0.55775   0.68626   0.00000  Uiso   1.00
C1231  C     0.96378   0.42557   0.79502   0.00000  Uiso   1.00
C1232  C     0.70281   0.57501   0.70588   0.00000  Uiso   1.00
C1233  C     0.91052   0.48866   0.98215   0.00000  Uiso   1.00
C1234  C     0.69102   0.47017   0.77970   0.00000  Uiso   1.00
C1235  C     0.97569   0.53006   0.72065   0.00000  Uiso   1.00
C1236  C     0.98200   0.46457   0.77329   0.00000  Uiso   1.00
C1237  C     0.68467   0.53572   0.72717   0.00000  Uiso   1.00
C1238  C     0.95775   0.49610   0.74590   0.00000  Uiso   1.00
H1239  H     0.77068   0.51966   0.88301   0.00000  Uiso   1.00
H1240  H     0.95094   0.51017   0.57476   0.00000  Uiso   1.00
H1241  H     0.70581   0.56174   0.52599   0.00000  Uiso   1.00
H1242  H     0.69782   0.50574   0.52642   0.00000  Uiso   1.00
H1243  H     0.95363   0.51754   0.94367   0.00000  Uiso   1.00
H1244  H     0.95909   0.45895   0.94864   0.00000  Uiso   1.00
H1245  H     0.74293   0.45745   0.83135   0.00000  Uiso   1.00
H1246  H     0.92382   0.54303   0.66899   0.00000  Uiso   1.00
H1247  H     0.96096   0.42411   0.83110   0.00000  Uiso   1.00
H1248  H     0.70506   0.57720   0.66976   0.00000  Uiso   1.00
H1249  H     0.88690   0.40324   0.81137   0.00000  Uiso   1.00
H1250  H     0.89688   0.48536   0.61668   0.00000  Uiso   1.00
H1251  H     0.84852   0.38482   0.84335   0.00000  Uiso   1.00
H1252  H     0.77970   0.59676   0.68858   0.00000  Uiso   1.00
H1253  H     0.81813   0.61515   0.65665   0.00000  Uiso   1.00
H1254  H     0.75883   0.37762   0.68253   0.00000  Uiso   1.00
H1255  H     0.80173   0.37774   0.65139   0.00000  Uiso   1.00
H1256  H     0.90781   0.62238   0.81751   0.00000  Uiso   1.00
H1257  H     0.86490   0.62225   0.84862   0.00000  Uiso   1.00
H1258  H     0.92929   0.49190   0.88112   0.00000  Uiso   1.00
H1259  H     0.91561   0.43799   0.89710   0.00000  Uiso   1.00
H1260  H     0.74659   0.55429   0.60923   0.00000  Uiso   1.00
H1261  H     0.73685   0.49755   0.61153   0.00000  Uiso   1.00
H1262  H     0.71500   0.50266   0.92539   0.00000  Uiso   1.00
H1263  H     0.72356   0.55891   0.92465   0.00000  Uiso   1.00
H1264  H     0.94719   0.45306   0.57446   0.00000  Uiso   1.00
N1265  N     0.83333   0.61907   0.75000   0.00000  Uiso   1.00
N1266  N     0.79453   0.62501   0.67798   0.00000  Uiso   1.00
N1267  N     0.78988   0.38612   0.68244   0.00000  Uiso   1.00
N1268  N     0.87677   0.61388   0.81758   0.00000  Uiso   1.00
N1269  N     0.83333   0.38093   0.75000   0.00000  Uiso   1.00
N1270  N     0.90561   0.46955   0.88348   0.00000  Uiso   1.00
N1271  N     0.75864   0.52171   0.61742   0.00000  Uiso   1.00
N1272  N     0.72080   0.53035   0.94518   0.00000  Uiso   1.00
N1273  N     0.94755   0.48234   0.55444   0.00000  Uiso   1.00
N1274  N     0.71800   0.52999   0.53721   0.00000  Uiso   1.00
N1275  N     0.95122   0.48900   0.96428   0.00000  Uiso   1.00
N1276  N     0.87212   0.37498   0.82201   0.00000  Uiso   1.00
O1277  O     0.77226   0.53821   0.75000   0.00000  Uiso   1.00
O1278  O     0.95605   0.59714   0.67802   0.00000  Uiso   1.00
O1279  O     0.95456   0.39347   0.77266   0.00000  Uiso   1.00
O1280  O     0.71258   0.60658   0.72871   0.00000  Uiso   1.00
O1281  O     0.89441   0.46179   0.75000   0.00000  Uiso   1.00
O1282  O     0.89441   0.53821   0.75001   0.00000  Uiso   1.00
O1283  O     0.77226   0.46179   0.75000   0.00000  Uiso   1.00
O1284  O     0.83333   0.53823   0.68393   0.00000  Uiso   1.00
O1285  O     0.83334   0.46177   0.81608   0.00000  Uiso   1.00
O1286  O     0.83334   0.53823   0.81608   0.00000  Uiso   1.00
O1287  O     0.83333   0.46177   0.68393   0.00000  Uiso   1.00
O1288  O     0.71061   0.40331   0.82269   0.00000  Uiso   1.00
Zn1289 Zn    0.83333   0.55104   0.75000   0.00000  Uiso   1.00
Zn1290 Zn    0.83333   0.44896   0.75000   0.00000  Uiso   1.00
C1291  C     0.08669   0.83464   0.75108   0.00000  Uiso   1.00
C1292  C     0.04228   0.83736   0.75436   0.00000  Uiso   1.00
C1293  C     0.18660   0.68815   0.78397   0.00000  Uiso   1.00
C1294  C     0.14673   0.97851   0.71603   0.00000  Uiso   1.00
C1295  C     0.14601   0.69301   0.71668   0.00000  Uiso   1.00
C1296  C     0.18731   0.97365   0.78332   0.00000  Uiso   1.00
C1297  C     0.16637   0.83382   0.66369   0.00000  Uiso   1.00
C1298  C     0.16697   0.83288   0.83631   0.00000  Uiso   1.00
C1299  C     0.20498   0.82155   0.90806   0.00000  Uiso   1.00
C1300  C     0.12824   0.84530   0.59207   0.00000  Uiso   1.00
C1301  C     0.16785   0.83224   0.88398   0.00000  Uiso   1.00
C1302  C     0.24665   0.83204   0.74897   0.00000  Uiso   1.00
C1303  C     0.16550   0.83502   0.61603   0.00000  Uiso   1.00
C1304  C     0.13151   0.84478   0.90422   0.00000  Uiso   1.00
C1305  C     0.20252   0.82622   0.59559   0.00000  Uiso   1.00
C1306  C     0.13035   0.84522   0.95052   0.00000  Uiso   1.00
C1307  C     0.20391   0.82776   0.54926   0.00000  Uiso   1.00
C1308  C     0.16777   0.83609   0.97642   0.00000  Uiso   1.00
C1309  C     0.16648   0.83664   0.52336   0.00000  Uiso   1.00
C1310  C     0.20633   0.82629   0.95522   0.00000  Uiso   1.00
C1311  C     0.12787   0.84569   0.54458   0.00000  Uiso   1.00
C1312  C     0.09233   0.85461   0.97106   0.00000  Uiso   1.00
C1313  C     0.09090   0.85461   0.51773   0.00000  Uiso   1.00
C1314  C     0.24229   0.82153   0.52866   0.00000  Uiso   1.00
C1315  C     0.05025   0.77597   0.81419   0.00000  Uiso   1.00
C1316  C     0.28314   0.89108   0.68626   0.00000  Uiso   1.00
C1317  C     0.29712   0.75890   0.79502   0.00000  Uiso   1.00
C1318  C     0.03615   0.90835   0.70588   0.00000  Uiso   1.00
C1319  C     0.24386   0.82199   0.98215   0.00000  Uiso   1.00
C1320  C     0.02435   0.80350   0.77970   0.00000  Uiso   1.00
C1321  C     0.30902   0.86339   0.72065   0.00000  Uiso   1.00
C1322  C     0.31533   0.79790   0.77329   0.00000  Uiso   1.00
C1323  C     0.01801   0.86905   0.72717   0.00000  Uiso   1.00
C1324  C     0.29108   0.82944   0.74590   0.00000  Uiso   1.00
H1325  H     0.10401   0.85299   0.88301   0.00000  Uiso   1.00
H1326  H     0.28427   0.84350   0.57476   0.00000  Uiso   1.00
H1327  H     0.03914   0.89507   0.52599   0.00000  Uiso   1.00
H1328  H     0.03115   0.83907   0.52642   0.00000  Uiso   1.00
H1329  H     0.28696   0.85087   0.94367   0.00000  Uiso   1.00
H1330  H     0.29242   0.79228   0.94864   0.00000  Uiso   1.00
H1331  H     0.07626   0.79078   0.83135   0.00000  Uiso   1.00
H1332  H     0.25715   0.87637   0.66899   0.00000  Uiso   1.00
H1333  H     0.29429   0.75745   0.83110   0.00000  Uiso   1.00
H1334  H     0.03840   0.91054   0.66976   0.00000  Uiso   1.00
H1335  H     0.22023   0.73658   0.81137   0.00000  Uiso   1.00
H1336  H     0.23022   0.81869   0.61668   0.00000  Uiso   1.00
H1337  H     0.18186   0.71815   0.84335   0.00000  Uiso   1.00
H1338  H     0.11303   0.93009   0.68858   0.00000  Uiso   1.00
H1339  H     0.15147   0.94848   0.65665   0.00000  Uiso   1.00
H1340  H     0.09216   0.71096   0.68253   0.00000  Uiso   1.00
H1341  H     0.13506   0.71107   0.65139   0.00000  Uiso   1.00
H1342  H     0.24115   0.95572   0.81751   0.00000  Uiso   1.00
H1343  H     0.19823   0.95559   0.84862   0.00000  Uiso   1.00
H1344  H     0.26262   0.82523   0.88112   0.00000  Uiso   1.00
H1345  H     0.24895   0.77132   0.89710   0.00000  Uiso   1.00
H1346  H     0.07993   0.88762   0.60923   0.00000  Uiso   1.00
H1347  H     0.07018   0.83089   0.61153   0.00000  Uiso   1.00
H1348  H     0.04834   0.83599   0.92539   0.00000  Uiso   1.00
H1349  H     0.05689   0.89225   0.92465   0.00000  Uiso   1.00
H1350  H     0.28052   0.78640   0.57446   0.00000  Uiso   1.00
N1351  N     0.16667   0.95240   0.75000   0.00000  Uiso   1.00
N1352  N     0.12787   0.95834   0.67798   0.00000  Uiso   1.00
N1353  N     0.12321   0.71945   0.68244   0.00000  Uiso   1.00
N1354  N     0.21010   0.94721   0.81758   0.00000  Uiso   1.00
N1355  N     0.16667   0.71427   0.75000   0.00000  Uiso   1.00
N1356  N     0.23895   0.80289   0.88348   0.00000  Uiso   1.00
N1357  N     0.09197   0.85504   0.61742   0.00000  Uiso   1.00
N1358  N     0.05413   0.86369   0.94518   0.00000  Uiso   1.00
N1359  N     0.28089   0.81567   0.55444   0.00000  Uiso   1.00
N1360  N     0.05133   0.86333   0.53721   0.00000  Uiso   1.00
N1361  N     0.28456   0.82234   0.96428   0.00000  Uiso   1.00
N1362  N     0.20546   0.70832   0.82201   0.00000  Uiso   1.00
O1363  O     0.10559   0.87154   0.75000   0.00000  Uiso   1.00
O1364  O     0.28938   0.93048   0.67802   0.00000  Uiso   1.00
O1365  O     0.28790   0.72680   0.77266   0.00000  Uiso   1.00
O1366  O     0.04591   0.93991   0.72871   0.00000  Uiso   1.00
O1367  O     0.22774   0.79513   0.75000   0.00000  Uiso   1.00
O1368  O     0.22774   0.87154   0.75001   0.00000  Uiso   1.00
O1369  O     0.10559   0.79513   0.75000   0.00000  Uiso   1.00
O1370  O     0.16666   0.87156   0.68393   0.00000  Uiso   1.00
O1371  O     0.16667   0.79511   0.81608   0.00000  Uiso   1.00
O1372  O     0.16667   0.87156   0.81608   0.00000  Uiso   1.00
O1373  O     0.16666   0.79511   0.68393   0.00000  Uiso   1.00
O1374  O     0.04395   0.73664   0.82269   0.00000  Uiso   1.00
Zn1375 Zn    0.16667   0.88437   0.75000   0.00000  Uiso   1.00
Zn1376 Zn    0.16667   0.78229   0.75000   0.00000  Uiso   1.00
C1377  C     0.42002   0.83464   0.75108   0.00000  Uiso   1.00
C1378  C     0.37561   0.83736   0.75436   0.00000  Uiso   1.00
C1379  C     0.51993   0.68815   0.78397   0.00000  Uiso   1.00
C1380  C     0.48006   0.97851   0.71603   0.00000  Uiso   1.00
C1381  C     0.47934   0.69301   0.71668   0.00000  Uiso   1.00
C1382  C     0.52065   0.97365   0.78332   0.00000  Uiso   1.00
C1383  C     0.49970   0.83382   0.66369   0.00000  Uiso   1.00
C1384  C     0.50031   0.83288   0.83631   0.00000  Uiso   1.00
C1385  C     0.53831   0.82155   0.90806   0.00000  Uiso   1.00
C1386  C     0.46157   0.84530   0.59207   0.00000  Uiso   1.00
C1387  C     0.50118   0.83224   0.88398   0.00000  Uiso   1.00
C1388  C     0.57998   0.83204   0.74897   0.00000  Uiso   1.00
C1389  C     0.49883   0.83502   0.61603   0.00000  Uiso   1.00
C1390  C     0.46485   0.84478   0.90422   0.00000  Uiso   1.00
C1391  C     0.53585   0.82622   0.59559   0.00000  Uiso   1.00
C1392  C     0.46368   0.84522   0.95052   0.00000  Uiso   1.00
C1393  C     0.53724   0.82776   0.54926   0.00000  Uiso   1.00
C1394  C     0.50111   0.83609   0.97642   0.00000  Uiso   1.00
C1395  C     0.49981   0.83664   0.52336   0.00000  Uiso   1.00
C1396  C     0.53966   0.82629   0.95522   0.00000  Uiso   1.00
C1397  C     0.46121   0.84569   0.54458   0.00000  Uiso   1.00
C1398  C     0.42567   0.85461   0.97106   0.00000  Uiso   1.00
C1399  C     0.42424   0.85461   0.51773   0.00000  Uiso   1.00
C1400  C     0.57562   0.82153   0.52866   0.00000  Uiso   1.00
C1401  C     0.38358   0.77597   0.81419   0.00000  Uiso   1.00
C1402  C     0.61647   0.89108   0.68626   0.00000  Uiso   1.00
C1403  C     0.63045   0.75890   0.79502   0.00000  Uiso   1.00
C1404  C     0.36948   0.90835   0.70588   0.00000  Uiso   1.00
C1405  C     0.57719   0.82199   0.98215   0.00000  Uiso   1.00
C1406  C     0.35768   0.80350   0.77970   0.00000  Uiso   1.00
C1407  C     0.64235   0.86339   0.72065   0.00000  Uiso   1.00
C1408  C     0.64867   0.79790   0.77329   0.00000  Uiso   1.00
C1409  C     0.35134   0.86905   0.72717   0.00000  Uiso   1.00
C1410  C     0.62441   0.82944   0.74590   0.00000  Uiso   1.00
H1411  H     0.43734   0.85299   0.88301   0.00000  Uiso   1.00
H1412  H     0.61761   0.84350   0.57476   0.00000  Uiso   1.00
H1413  H     0.37247   0.89507   0.52599   0.00000  Uiso   1.00
H1414  H     0.36449   0.83907   0.52642   0.00000  Uiso   1.00
H1415  H     0.62029   0.85087   0.94367   0.00000  Uiso   1.00
H1416  H     0.62576   0.79228   0.94864   0.00000  Uiso   1.00
H1417  H     0.40960   0.79078   0.83135   0.00000  Uiso   1.00
H1418  H     0.59049   0.87637   0.66899   0.00000  Uiso   1.00
H1419  H     0.62762   0.75745   0.83110   0.00000  Uiso   1.00
H1420  H     0.37173   0.91054   0.66976   0.00000  Uiso   1.00
H1421  H     0.55357   0.73658   0.81137   0.00000  Uiso   1.00
H1422  H     0.56355   0.81869   0.61668   0.00000  Uiso   1.00
H1423  H     0.51519   0.71815   0.84335   0.00000  Uiso   1.00
H1424  H     0.44637   0.93009   0.68858   0.00000  Uiso   1.00
H1425  H     0.48480   0.94848   0.65665   0.00000  Uiso   1.00
H1426  H     0.42550   0.71096   0.68253   0.00000  Uiso   1.00
H1427  H     0.46840   0.71107   0.65139   0.00000  Uiso   1.00
H1428  H     0.57448   0.95572   0.81751   0.00000  Uiso   1.00
H1429  H     0.53156   0.95559   0.84862   0.00000  Uiso   1.00
H1430  H     0.59596   0.82523   0.88112   0.00000  Uiso   1.00
H1431  H     0.58228   0.77132   0.89710   0.00000  Uiso   1.00
H1432  H     0.41326   0.88762   0.60923   0.00000  Uiso   1.00
H1433  H     0.40352   0.83089   0.61153   0.00000  Uiso   1.00
H1434  H     0.38167   0.83599   0.92539   0.00000  Uiso   1.00
H1435  H     0.39023   0.89225   0.92465   0.00000  Uiso   1.00
H1436  H     0.61385   0.78640   0.57446   0.00000  Uiso   1.00
N1437  N     0.50000   0.95240   0.75000   0.00000  Uiso   1.00
N1438  N     0.46120   0.95834   0.67798   0.00000  Uiso   1.00
N1439  N     0.45654   0.71945   0.68244   0.00000  Uiso   1.00
N1440  N     0.54344   0.94721   0.81758   0.00000  Uiso   1.00
N1441  N     0.50000   0.71427   0.75000   0.00000  Uiso   1.00
N1442  N     0.57228   0.80289   0.88348   0.00000  Uiso   1.00
N1443  N     0.42530   0.85504   0.61742   0.00000  Uiso   1.00
N1444  N     0.38746   0.86369   0.94518   0.00000  Uiso   1.00
N1445  N     0.61422   0.81567   0.55444   0.00000  Uiso   1.00
N1446  N     0.38466   0.86333   0.53721   0.00000  Uiso   1.00
N1447  N     0.61789   0.82234   0.96428   0.00000  Uiso   1.00
N1448  N     0.53879   0.70832   0.82201   0.00000  Uiso   1.00
O1449  O     0.43892   0.87154   0.75000   0.00000  Uiso   1.00
O1450  O     0.62272   0.93048   0.67802   0.00000  Uiso   1.00
O1451  O     0.62123   0.72680   0.77266   0.00000  Uiso   1.00
O1452  O     0.37925   0.93991   0.72871   0.00000  Uiso   1.00
O1453  O     0.56108   0.79513   0.75000   0.00000  Uiso   1.00
O1454  O     0.56108   0.87154   0.75001   0.00000  Uiso   1.00
O1455  O     0.43892   0.79513   0.75000   0.00000  Uiso   1.00
O1456  O     0.49999   0.87156   0.68393   0.00000  Uiso   1.00
O1457  O     0.50001   0.79511   0.81608   0.00000  Uiso   1.00
O1458  O     0.50001   0.87156   0.81608   0.00000  Uiso   1.00
O1459  O     0.49999   0.79511   0.68393   0.00000  Uiso   1.00
O1460  O     0.37728   0.73664   0.82269   0.00000  Uiso   1.00
Zn1461 Zn    0.50000   0.88437   0.75000   0.00000  Uiso   1.00
Zn1462 Zn    0.50000   0.78229   0.75000   0.00000  Uiso   1.00
C1463  C     0.75336   0.83464   0.75108   0.00000  Uiso   1.00
C1464  C     0.70895   0.83736   0.75436   0.00000  Uiso   1.00
C1465  C     0.85326   0.68815   0.78397   0.00000  Uiso   1.00
C1466  C     0.81339   0.97851   0.71603   0.00000  Uiso   1.00
C1467  C     0.81268   0.69301   0.71668   0.00000  Uiso   1.00
C1468  C     0.85398   0.97365   0.78332   0.00000  Uiso   1.00
C1469  C     0.83303   0.83382   0.66369   0.00000  Uiso   1.00
C1470  C     0.83364   0.83288   0.83631   0.00000  Uiso   1.00
C1471  C     0.87165   0.82155   0.90806   0.00000  Uiso   1.00
C1472  C     0.79490   0.84530   0.59207   0.00000  Uiso   1.00
C1473  C     0.83452   0.83224   0.88398   0.00000  Uiso   1.00
C1474  C     0.91331   0.83204   0.74897   0.00000  Uiso   1.00
C1475  C     0.83216   0.83502   0.61603   0.00000  Uiso   1.00
C1476  C     0.79818   0.84478   0.90422   0.00000  Uiso   1.00
C1477  C     0.86919   0.82622   0.59559   0.00000  Uiso   1.00
C1478  C     0.79701   0.84522   0.95052   0.00000  Uiso   1.00
C1479  C     0.87058   0.82776   0.54926   0.00000  Uiso   1.00
C1480  C     0.83444   0.83609   0.97642   0.00000  Uiso   1.00
C1481  C     0.83315   0.83664   0.52336   0.00000  Uiso   1.00
C1482  C     0.87299   0.82629   0.95522   0.00000  Uiso   1.00
C1483  C     0.79454   0.84569   0.54458   0.00000  Uiso   1.00
C1484  C     0.75900   0.85461   0.97106   0.00000  Uiso   1.00
C1485  C     0.75757   0.85461   0.51773   0.00000  Uiso   1.00
C1486  C     0.90896   0.82153   0.52866   0.00000  Uiso   1.00
C1487  C     0.71691   0.77597   0.81419   0.00000  Uiso   1.00
C1488  C     0.94981   0.89108   0.68626   0.00000  Uiso   1.00
C1489  C     0.96378   0.75890   0.79502   0.00000  Uiso   1.00
C1490  C     0.70281   0.90835   0.70588   0.00000  Uiso   1.00
C1491  C     0.91052   0.82199   0.98215   0.00000  Uiso   1.00
C1492  C     0.69102   0.80350   0.77970   0.00000  Uiso   1.00
C1493  C     0.97569   0.86339   0.72065   0.00000  Uiso   1.00
C1494  C     0.98200   0.79790   0.77329   0.00000  Uiso   1.00
C1495  C     0.68467   0.86905   0.72717   0.00000  Uiso   1.00
C1496  C     0.95775   0.82944   0.74590   0.00000  Uiso   1.00
H1497  H     0.77068   0.85299   0.88301   0.00000  Uiso   1.00
H1498  H     0.95094   0.84350   0.57476   0.00000  Uiso   1.00
H1499  H     0.70581   0.89507   0.52599   0.00000  Uiso   1.00
H1500  H     0.69782   0.83907   0.52642   0.00000  Uiso   1.00
H1501  H     0.95363   0.85087   0.94367   0.00000  Uiso   1.00
H1502  H     0.95909   0.79228   0.94864   0.00000  Uiso   1.00
H1503  H     0.74293   0.79078   0.83135   0.00000  Uiso   1.00
H1504  H     0.92382   0.87637   0.66899   0.00000  Uiso   1.00
H1505  H     0.96096   0.75745   0.83110   0.00000  Uiso   1.00
H1506  H     0.70506   0.91054   0.66976   0.00000  Uiso   1.00
H1507  H     0.88690   0.73658   0.81137   0.00000  Uiso   1.00
H1508  H     0.89688   0.81869   0.61668   0.00000  Uiso   1.00
H1509  H     0.84852   0.71815   0.84335   0.00000  Uiso   1.00
H1510  H     0.77970   0.93009   0.68858   0.00000  Uiso   1.00
H1511  H     0.81813   0.94848   0.65665   0.00000  Uiso   1.00
H1512  H     0.75883   0.71096   0.68253   0.00000  Uiso   1.00
H1513  H     0.80173   0.71107   0.65139   0.00000  Uiso   1.00
H1514  H     0.90781   0.95572   0.81751   0.00000  Uiso   1.00
H1515  H     0.86490   0.95559   0.84862   0.00000  Uiso   1.00
H1516  H     0.92929   0.82523   0.88112   0.00000  Uiso   1.00
H1517  H     0.91561   0.77132   0.89710   0.00000  Uiso   1.00
H1518  H     0.74659   0.88762   0.60923   0.00000  Uiso   1.00
H1519  H     0.73685   0.83089   0.61153   0.00000  Uiso   1.00
H1520  H     0.71500   0.83599   0.92539   0.00000  Uiso   1.00
H1521  H     0.72356   0.89225   0.92465   0.00000  Uiso   1.00
H1522  H     0.94719   0.78640   0.57446   0.00000  Uiso   1.00
N1523  N     0.83333   0.95240   0.75000   0.00000  Uiso   1.00
N1524  N     0.79453   0.95834   0.67798   0.00000  Uiso   1.00
N1525  N     0.78988   0.71945   0.68244   0.00000  Uiso   1.00
N1526  N     0.87677   0.94721   0.81758   0.00000  Uiso   1.00
N1527  N     0.83333   0.71427   0.75000   0.00000  Uiso   1.00
N1528  N     0.90561   0.80289   0.88348   0.00000  Uiso   1.00
N1529  N     0.75864   0.85504   0.61742   0.00000  Uiso   1.00
N1530  N     0.72080   0.86369   0.94518   0.00000  Uiso   1.00
N1531  N     0.94755   0.81567   0.55444   0.00000  Uiso   1.00
N1532  N     0.71800   0.86333   0.53721   0.00000  Uiso   1.00
N1533  N     0.95122   0.82234   0.96428   0.00000  Uiso   1.00
N1534  N     0.87212   0.70832   0.82201   0.00000  Uiso   1.00
O1535  O     0.77226   0.87154   0.75000   0.00000  Uiso   1.00
O1536  O     0.95605   0.93048   0.67802   0.00000  Uiso   1.00
O1537  O     0.95456   0.72680   0.77266   0.00000  Uiso   1.00
O1538  O     0.71258   0.93991   0.72871   0.00000  Uiso   1.00
O1539  O     0.89441   0.79513   0.75000   0.00000  Uiso   1.00
O1540  O     0.89441   0.87154   0.75001   0.00000  Uiso   1.00
O1541  O     0.77226   0.79513   0.75000   0.00000  Uiso   1.00
O1542  O     0.83333   0.87156   0.68393   0.00000  Uiso   1.00
O1543  O     0.83334   0.79511   0.81608   0.00000  Uiso   1.00
O1544  O     0.83334   0.87156   0.81608   0.00000  Uiso   1.00
O1545  O     0.83333   0.79511   0.68393   0.00000  Uiso   1.00
O1546  O     0.71061   0.73664   0.82269   0.00000  Uiso   1.00
Zn1547 Zn    0.83333   0.88437   0.75000   0.00000  Uiso   1.00
Zn1548 Zn    0.83333   0.78229   0.75000   0.00000  Uiso   1.00
loop_
_geom_bond_atom_site_label_1
_geom_bond_atom_site_label_2
_geom_bond_distance
_geom_bond_site_symmetry_2
_ccdc_geom_bond_type
C1     C2      1.437   .     S
C1     O79     1.296   .     A
C1     O73     1.284   .     A
C2     C33     1.413   .     A
C2     C30     1.407   .     A
C3     N65     1.380   .     A
C3     N72     1.427   .     S
C3     C522    1.423   1_545 S
C4     N62     1.428   .     S
C4     N61     1.380   .     A
C4     C263    1.423   .     S
C5     N63     1.430   .     S
C5     N65     1.363   .     A
C5     C520    1.423   1_545 S
C6     N61     1.363   .     A
C6     N64     1.430   .     S
C6     C261    1.423   .     S
C7     O83     1.287   .     A
C7     C13     1.420   .     S
C7     O80     1.288   .     A
C8     O82     1.286   .     A
C8     O81     1.289   .     A
C8     C11     1.421   .     S
C9     N66     1.435   .     S
C9     C20     1.416   .     A
C9     C11     1.391   .     A
C10    N67     1.436   .     S
C10    C21     1.416   .     A
C10    C13     1.391   .     A
C11    C14     1.376   .     A
C12    O78     1.296   .     A
C12    O77     1.285   .     A
C12    C34     1.437   .     S
C13    C15     1.376   .     A
C14    H35     1.083   .     S
C14    C16     1.383   .     A
C15    C17     1.384   .     A
C15    H46     1.083   .     S
C16    C22     1.408   .     A
C16    C18     1.418   .     A
C17    C19     1.417   .     A
C17    C24     1.407   .     A
C18    C20     1.435   .     A
C18    C793    1.403   .     S
C19    C21     1.433   .     A
C19    C792    1.403   1_554 S
C20    C29     1.425   .     A
C21    C23     1.420   .     A
C22    N68     1.438   .     S
C22    C797    1.395   .     S
C23    N70     1.435   .     S
C23    C796    1.395   1_554 S
C24    N69     1.438   .     S
C24    C803    1.390   1_554 S
C25    O84     1.221   .     D
C25    H41     1.085   .     S
C25    C30     1.500   .     S
C26    H42     1.085   .     S
C26    C31     1.500   .     S
C26    O74     1.221   .     D
C27    O75     1.221   .     D
C27    C32     1.476   .     S
C27    H43     1.083   .     S
C28    H44     1.083   .     S
C28    C33     1.476   .     S
C28    O76     1.221   .     D
C29    N71     1.435   .     S
C29    C798    1.390   .     S
C30    C204    1.391   1_455 S
C31    C34     1.408   .     A
C31    C119    1.391   .     S
C32    C34     1.413   .     A
C32    C116    1.391   .     S
C33    C203    1.391   1_455 S
H36    N69     1.046   .     S
H37    N70     1.046   .     S
H38    N70     1.046   .     S
H39    N71     1.044   .     S
H40    N71     1.042   .     S
H45    N72     1.038   .     S
H47    N72     1.044   .     S
H48    N62     1.038   .     S
H49    N62     1.044   .     S
H50    N63     1.046   .     S
H51    N63     1.046   .     S
H52    N64     1.046   .     S
H53    N64     1.046   .     S
H54    N66     1.042   .     S
H55    N66     1.044   .     S
H56    N67     1.045   .     S
H57    N67     1.045   .     S
H58    N68     1.046   .     S
H59    N68     1.045   .     S
H60    N69     1.045   .     S
N61    Zn85    2.024   .     S
N65    Zn86    2.024   .     S
O73    Zn85    2.026   .     S
O77    Zn86    2.026   .     S
O78    Zn85    1.986   .     S
O79    Zn86    1.986   .     S
O80    Zn85    2.016   .     S
O81    Zn86    2.016   .     S
O82    Zn85    1.999   .     S
O83    Zn86    1.999   .     S
C87    C88     1.437   .     S
C87    O165    1.296   .     A
C87    O159    1.284   .     A
C88    C119    1.413   .     A
C88    C116    1.407   .     A
C89    N151    1.380   .     A
C89    N158    1.427   .     S
C89    C608    1.423   1_545 S
C90    N148    1.428   .     S
C90    N147    1.380   .     A
C90    C349    1.423   .     S
C91    N149    1.430   .     S
C91    N151    1.363   .     A
C91    C606    1.423   1_545 S
C92    N147    1.363   .     A
C92    N150    1.430   .     S
C92    C347    1.423   .     S
C93    O169    1.287   .     A
C93    C99     1.420   .     S
C93    O166    1.288   .     A
C94    O168    1.286   .     A
C94    O167    1.289   .     A
C94    C97     1.421   .     S
C95    N152    1.435   .     S
C95    C106    1.416   .     A
C95    C97     1.391   .     A
C96    N153    1.436   .     S
C96    C107    1.416   .     A
C96    C99     1.391   .     A
C97    C100    1.376   .     A
C98    O164    1.296   .     A
C98    O163    1.285   .     A
C98    C120    1.437   .     S
C99    C101    1.376   .     A
C100   H121    1.083   .     S
C100   C102    1.383   .     A
C101   C103    1.384   .     A
C101   H132    1.083   .     S
C102   C108    1.408   .     A
C102   C104    1.418   .     A
C103   C105    1.417   .     A
C103   C110    1.407   .     A
C104   C106    1.435   .     A
C104   C879    1.403   .     S
C105   C107    1.433   .     A
C105   C878    1.403   1_554 S
C106   C115    1.425   .     A
C107   C109    1.420   .     A
C108   N154    1.438   .     S
C108   C883    1.395   .     S
C109   N156    1.435   .     S
C109   C882    1.395   1_554 S
C110   N155    1.438   .     S
C110   C889    1.390   1_554 S
C111   O170    1.221   .     D
C111   H127    1.085   .     S
C111   C116    1.500   .     S
C112   H128    1.085   .     S
C112   C117    1.500   .     S
C112   O160    1.221   .     D
C113   O161    1.221   .     D
C113   C118    1.476   .     S
C113   H129    1.083   .     S
C114   H130    1.083   .     S
C114   C119    1.476   .     S
C114   O162    1.221   .     D
C115   N157    1.435   .     S
C115   C884    1.390   .     S
C117   C120    1.408   .     A
C117   C205    1.391   .     S
C118   C120    1.413   .     A
C118   C202    1.391   .     S
H122   N155    1.046   .     S
H123   N156    1.046   .     S
H124   N156    1.046   .     S
H125   N157    1.044   .     S
H126   N157    1.042   .     S
H131   N158    1.038   .     S
H133   N158    1.044   .     S
H134   N148    1.038   .     S
H135   N148    1.044   .     S
H136   N149    1.046   .     S
H137   N149    1.046   .     S
H138   N150    1.046   .     S
H139   N150    1.046   .     S
H140   N152    1.042   .     S
H141   N152    1.044   .     S
H142   N153    1.045   .     S
H143   N153    1.045   .     S
H144   N154    1.046   .     S
H145   N154    1.045   .     S
H146   N155    1.045   .     S
N147   Zn171   2.024   .     S
N151   Zn172   2.024   .     S
O159   Zn171   2.026   .     S
O163   Zn172   2.026   .     S
O164   Zn171   1.986   .     S
O165   Zn172   1.986   .     S
O166   Zn171   2.016   .     S
O167   Zn172   2.016   .     S
O168   Zn171   1.999   .     S
O169   Zn172   1.999   .     S
C173   C174    1.437   .     S
C173   O251    1.296   .     A
C173   O245    1.284   .     A
C174   C205    1.413   .     A
C174   C202    1.407   .     A
C175   N237    1.380   .     A
C175   N244    1.427   .     S
C175   C694    1.423   1_545 S
C176   N234    1.428   .     S
C176   N233    1.380   .     A
C176   C435    1.423   .     S
C177   N235    1.430   .     S
C177   N237    1.363   .     A
C177   C692    1.423   1_545 S
C178   N233    1.363   .     A
C178   N236    1.430   .     S
C178   C433    1.423   .     S
C179   O255    1.287   .     A
C179   C185    1.420   .     S
C179   O252    1.288   .     A
C180   O254    1.286   .     A
C180   O253    1.289   .     A
C180   C183    1.421   .     S
C181   N238    1.435   .     S
C181   C192    1.416   .     A
C181   C183    1.391   .     A
C182   N239    1.436   .     S
C182   C193    1.416   .     A
C182   C185    1.391   .     A
C183   C186    1.376   .     A
C184   O250    1.296   .     A
C184   O249    1.285   .     A
C184   C206    1.437   .     S
C185   C187    1.376   .     A
C186   H207    1.083   .     S
C186   C188    1.383   .     A
C187   C189    1.384   .     A
C187   H218    1.083   .     S
C188   C194    1.408   .     A
C188   C190    1.418   .     A
C189   C191    1.417   .     A
C189   C196    1.407   .     A
C190   C192    1.435   .     A
C190   C965    1.403   .     S
C191   C193    1.433   .     A
C191   C964    1.403   1_554 S
C192   C201    1.425   .     A
C193   C195    1.420   .     A
C194   N240    1.438   .     S
C194   C969    1.395   .     S
C195   N242    1.435   .     S
C195   C968    1.395   1_554 S
C196   N241    1.438   .     S
C196   C975    1.390   1_554 S
C197   O256    1.221   .     D
C197   H213    1.085   .     S
C197   C202    1.500   .     S
C198   H214    1.085   .     S
C198   C203    1.500   .     S
C198   O246    1.221   .     D
C199   O247    1.221   .     D
C199   C204    1.476   .     S
C199   H215    1.083   .     S
C200   H216    1.083   .     S
C200   C205    1.476   .     S
C200   O248    1.221   .     D
C201   N243    1.435   .     S
C201   C970    1.390   .     S
C203   C206    1.408   .     A
C203   C33     1.391   1_655 S
C204   C206    1.413   .     A
C204   C30     1.391   1_655 S
H208   N241    1.046   .     S
H209   N242    1.046   .     S
H210   N242    1.046   .     S
H211   N243    1.044   .     S
H212   N243    1.042   .     S
H217   N244    1.038   .     S
H219   N244    1.044   .     S
H220   N234    1.038   .     S
H221   N234    1.044   .     S
H222   N235    1.046   .     S
H223   N235    1.046   .     S
H224   N236    1.046   .     S
H225   N236    1.046   .     S
H226   N238    1.042   .     S
H227   N238    1.044   .     S
H228   N239    1.045   .     S
H229   N239    1.045   .     S
H230   N240    1.046   .     S
H231   N240    1.045   .     S
H232   N241    1.045   .     S
N233   Zn257   2.024   .     S
N237   Zn258   2.024   .     S
O245   Zn257   2.026   .     S
O249   Zn258   2.026   .     S
O250   Zn257   1.986   .     S
O251   Zn258   1.986   .     S
O252   Zn257   2.016   .     S
O253   Zn258   2.016   .     S
O254   Zn257   1.999   .     S
O255   Zn258   1.999   .     S
C259   C260    1.437   .     S
C259   O337    1.296   .     A
C259   O331    1.284   .     A
C260   C291    1.413   .     A
C260   C288    1.407   .     A
C261   N323    1.380   .     A
C261   N330    1.427   .     S
C262   N320    1.428   .     S
C262   N319    1.380   .     A
C262   C521    1.423   .     S
C263   N321    1.430   .     S
C263   N323    1.363   .     A
C264   N319    1.363   .     A
C264   N322    1.430   .     S
C264   C519    1.423   .     S
C265   O341    1.287   .     A
C265   C271    1.420   .     S
C265   O338    1.288   .     A
C266   O340    1.286   .     A
C266   O339    1.289   .     A
C266   C269    1.421   .     S
C267   N324    1.435   .     S
C267   C278    1.416   .     A
C267   C269    1.391   .     A
C268   N325    1.436   .     S
C268   C279    1.416   .     A
C268   C271    1.391   .     A
C269   C272    1.376   .     A
C270   O336    1.296   .     A
C270   O335    1.285   .     A
C270   C292    1.437   .     S
C271   C273    1.376   .     A
C272   H293    1.083   .     S
C272   C274    1.383   .     A
C273   C275    1.384   .     A
C273   H304    1.083   .     S
C274   C280    1.408   .     A
C274   C276    1.418   .     A
C275   C277    1.417   .     A
C275   C282    1.407   .     A
C276   C278    1.435   .     A
C276   C1051   1.403   .     S
C277   C279    1.433   .     A
C277   C1050   1.403   1_554 S
C278   C287    1.425   .     A
C279   C281    1.420   .     A
C280   N326    1.438   .     S
C280   C1055   1.395   .     S
C281   N328    1.435   .     S
C281   C1054   1.395   1_554 S
C282   N327    1.438   .     S
C282   C1061   1.390   1_554 S
C283   O342    1.221   .     D
C283   H299    1.085   .     S
C283   C288    1.500   .     S
C284   H300    1.085   .     S
C284   C289    1.500   .     S
C284   O332    1.221   .     D
C285   O333    1.221   .     D
C285   C290    1.476   .     S
C285   H301    1.083   .     S
C286   H302    1.083   .     S
C286   C291    1.476   .     S
C286   O334    1.221   .     D
C287   N329    1.435   .     S
C287   C1056   1.390   .     S
C288   C462    1.391   1_455 S
C289   C292    1.408   .     A
C289   C377    1.391   .     S
C290   C292    1.413   .     A
C290   C374    1.391   .     S
C291   C461    1.391   1_455 S
H294   N327    1.046   .     S
H295   N328    1.046   .     S
H296   N328    1.046   .     S
H297   N329    1.044   .     S
H298   N329    1.042   .     S
H303   N330    1.038   .     S
H305   N330    1.044   .     S
H306   N320    1.038   .     S
H307   N320    1.044   .     S
H308   N321    1.046   .     S
H309   N321    1.046   .     S
H310   N322    1.046   .     S
H311   N322    1.046   .     S
H312   N324    1.042   .     S
H313   N324    1.044   .     S
H314   N325    1.045   .     S
H315   N325    1.045   .     S
H316   N326    1.046   .     S
H317   N326    1.045   .     S
H318   N327    1.045   .     S
N319   Zn343   2.024   .     S
N323   Zn344   2.024   .     S
O331   Zn343   2.026   .     S
O335   Zn344   2.026   .     S
O336   Zn343   1.986   .     S
O337   Zn344   1.986   .     S
O338   Zn343   2.016   .     S
O339   Zn344   2.016   .     S
O340   Zn343   1.999   .     S
O341   Zn344   1.999   .     S
C345   C346    1.437   .     S
C345   O423    1.296   .     A
C345   O417    1.284   .     A
C346   C377    1.413   .     A
C346   C374    1.407   .     A
C347   N409    1.380   .     A
C347   N416    1.427   .     S
C348   N406    1.428   .     S
C348   N405    1.380   .     A
C348   C607    1.423   .     S
C349   N407    1.430   .     S
C349   N409    1.363   .     A
C350   N405    1.363   .     A
C350   N408    1.430   .     S
C350   C605    1.423   .     S
C351   O427    1.287   .     A
C351   C357    1.420   .     S
C351   O424    1.288   .     A
C352   O426    1.286   .     A
C352   O425    1.289   .     A
C352   C355    1.421   .     S
C353   N410    1.435   .     S
C353   C364    1.416   .     A
C353   C355    1.391   .     A
C354   N411    1.436   .     S
C354   C365    1.416   .     A
C354   C357    1.391   .     A
C355   C358    1.376   .     A
C356   O422    1.296   .     A
C356   O421    1.285   .     A
C356   C378    1.437   .     S
C357   C359    1.376   .     A
C358   H379    1.083   .     S
C358   C360    1.383   .     A
C359   C361    1.384   .     A
C359   H390    1.083   .     S
C360   C366    1.408   .     A
C360   C362    1.418   .     A
C361   C363    1.417   .     A
C361   C368    1.407   .     A
C362   C364    1.435   .     A
C362   C1137   1.403   .     S
C363   C365    1.433   .     A
C363   C1136   1.403   1_554 S
C364   C373    1.425   .     A
C365   C367    1.420   .     A
C366   N412    1.438   .     S
C366   C1141   1.395   .     S
C367   N414    1.435   .     S
C367   C1140   1.395   1_554 S
C368   N413    1.438   .     S
C368   C1147   1.390   1_554 S
C369   O428    1.221   .     D
C369   H385    1.085   .     S
C369   C374    1.500   .     S
C370   H386    1.085   .     S
C370   C375    1.500   .     S
C370   O418    1.221   .     D
C371   O419    1.221   .     D
C371   C376    1.476   .     S
C371   H387    1.083   .     S
C372   H388    1.083   .     S
C372   C377    1.476   .     S
C372   O420    1.221   .     D
C373   N415    1.435   .     S
C373   C1142   1.390   .     S
C375   C378    1.408   .     A
C375   C463    1.391   .     S
C376   C378    1.413   .     A
C376   C460    1.391   .     S
H380   N413    1.046   .     S
H381   N414    1.046   .     S
H382   N414    1.046   .     S
H383   N415    1.044   .     S
H384   N415    1.042   .     S
H389   N416    1.038   .     S
H391   N416    1.044   .     S
H392   N406    1.038   .     S
H393   N406    1.044   .     S
H394   N407    1.046   .     S
H395   N407    1.046   .     S
H396   N408    1.046   .     S
H397   N408    1.046   .     S
H398   N410    1.042   .     S
H399   N410    1.044   .     S
H400   N411    1.045   .     S
H401   N411    1.045   .     S
H402   N412    1.046   .     S
H403   N412    1.045   .     S
H404   N413    1.045   .     S
N405   Zn429   2.024   .     S
N409   Zn430   2.024   .     S
O417   Zn429   2.026   .     S
O421   Zn430   2.026   .     S
O422   Zn429   1.986   .     S
O423   Zn430   1.986   .     S
O424   Zn429   2.016   .     S
O425   Zn430   2.016   .     S
O426   Zn429   1.999   .     S
O427   Zn430   1.999   .     S
C431   C432    1.437   .     S
C431   O509    1.296   .     A
C431   O503    1.284   .     A
C432   C463    1.413   .     A
C432   C460    1.407   .     A
C433   N495    1.380   .     A
C433   N502    1.427   .     S
C434   N492    1.428   .     S
C434   N491    1.380   .     A
C434   C693    1.423   .     S
C435   N493    1.430   .     S
C435   N495    1.363   .     A
C436   N491    1.363   .     A
C436   N494    1.430   .     S
C436   C691    1.423   .     S
C437   O513    1.287   .     A
C437   C443    1.420   .     S
C437   O510    1.288   .     A
C438   O512    1.286   .     A
C438   O511    1.289   .     A
C438   C441    1.421   .     S
C439   N496    1.435   .     S
C439   C450    1.416   .     A
C439   C441    1.391   .     A
C440   N497    1.436   .     S
C440   C451    1.416   .     A
C440   C443    1.391   .     A
C441   C444    1.376   .     A
C442   O508    1.296   .     A
C442   O507    1.285   .     A
C442   C464    1.437   .     S
C443   C445    1.376   .     A
C444   H465    1.083   .     S
C444   C446    1.383   .     A
C445   C447    1.384   .     A
C445   H476    1.083   .     S
C446   C452    1.408   .     A
C446   C448    1.418   .     A
C447   C449    1.417   .     A
C447   C454    1.407   .     A
C448   C450    1.435   .     A
C448   C1223   1.403   .     S
C449   C451    1.433   .     A
C449   C1222   1.403   1_554 S
C450   C459    1.425   .     A
C451   C453    1.420   .     A
C452   N498    1.438   .     S
C452   C1227   1.395   .     S
C453   N500    1.435   .     S
C453   C1226   1.395   1_554 S
C454   N499    1.438   .     S
C454   C1233   1.390   1_554 S
C455   O514    1.221   .     D
C455   H471    1.085   .     S
C455   C460    1.500   .     S
C456   H472    1.085   .     S
C456   C461    1.500   .     S
C456   O504    1.221   .     D
C457   O505    1.221   .     D
C457   C462    1.476   .     S
C457   H473    1.083   .     S
C458   H474    1.083   .     S
C458   C463    1.476   .     S
C458   O506    1.221   .     D
C459   N501    1.435   .     S
C459   C1228   1.390   .     S
C461   C464    1.408   .     A
C461   C291    1.391   1_655 S
C462   C464    1.413   .     A
C462   C288    1.391   1_655 S
H466   N499    1.046   .     S
H467   N500    1.046   .     S
H468   N500    1.046   .     S
H469   N501    1.044   .     S
H470   N501    1.042   .     S
H475   N502    1.038   .     S
H477   N502    1.044   .     S
H478   N492    1.038   .     S
H479   N492    1.044   .     S
H480   N493    1.046   .     S
H481   N493    1.046   .     S
H482   N494    1.046   .     S
H483   N494    1.046   .     S
H484   N496    1.042   .     S
H485   N496    1.044   .     S
H486   N497    1.045   .     S
H487   N497    1.045   .     S
H488   N498    1.046   .     S
H489   N498    1.045   .     S
H490   N499    1.045   .     S
N491   Zn515   2.024   .     S
N495   Zn516   2.024   .     S
O503   Zn515   2.026   .     S
O507   Zn516   2.026   .     S
O508   Zn515   1.986   .     S
O509   Zn516   1.986   .     S
O510   Zn515   2.016   .     S
O511   Zn516   2.016   .     S
O512   Zn515   1.999   .     S
O513   Zn516   1.999   .     S
C517   C518    1.437   .     S
C517   O595    1.296   .     A
C517   O589    1.284   .     A
C518   C549    1.413   .     A
C518   C546    1.407   .     A
C519   N581    1.380   .     A
C519   N588    1.427   .     S
C520   N578    1.428   .     S
C520   N577    1.380   .     A
C520   C5      1.423   1_565 S
C521   N579    1.430   .     S
C521   N581    1.363   .     A
C522   N577    1.363   .     A
C522   N580    1.430   .     S
C522   C3      1.423   1_565 S
C523   O599    1.287   .     A
C523   C529    1.420   .     S
C523   O596    1.288   .     A
C524   O598    1.286   .     A
C524   O597    1.289   .     A
C524   C527    1.421   .     S
C525   N582    1.435   .     S
C525   C536    1.416   .     A
C525   C527    1.391   .     A
C526   N583    1.436   .     S
C526   C537    1.416   .     A
C526   C529    1.391   .     A
C527   C530    1.376   .     A
C528   O594    1.296   .     A
C528   O593    1.285   .     A
C528   C550    1.437   .     S
C529   C531    1.376   .     A
C530   H551    1.083   .     S
C530   C532    1.383   .     A
C531   C533    1.384   .     A
C531   H562    1.083   .     S
C532   C538    1.408   .     A
C532   C534    1.418   .     A
C533   C535    1.417   .     A
C533   C540    1.407   .     A
C534   C536    1.435   .     A
C534   C1309   1.403   .     S
C535   C537    1.433   .     A
C535   C1308   1.403   1_554 S
C536   C545    1.425   .     A
C537   C539    1.420   .     A
C538   N584    1.438   .     S
C538   C1313   1.395   .     S
C539   N586    1.435   .     S
C539   C1312   1.395   1_554 S
C540   N585    1.438   .     S
C540   C1319   1.390   1_554 S
C541   O600    1.221   .     D
C541   H557    1.085   .     S
C541   C546    1.500   .     S
C542   H558    1.085   .     S
C542   C547    1.500   .     S
C542   O590    1.221   .     D
C543   O591    1.221   .     D
C543   C548    1.476   .     S
C543   H559    1.083   .     S
C544   H560    1.083   .     S
C544   C549    1.476   .     S
C544   O592    1.221   .     D
C545   N587    1.435   .     S
C545   C1314   1.390   .     S
C546   C720    1.391   1_455 S
C547   C550    1.408   .     A
C547   C635    1.391   .     S
C548   C550    1.413   .     A
C548   C632    1.391   .     S
C549   C719    1.391   1_455 S
H552   N585    1.046   .     S
H553   N586    1.046   .     S
H554   N586    1.046   .     S
H555   N587    1.044   .     S
H556   N587    1.042   .     S
H561   N588    1.038   .     S
H563   N588    1.044   .     S
H564   N578    1.038   .     S
H565   N578    1.044   .     S
H566   N579    1.046   .     S
H567   N579    1.046   .     S
H568   N580    1.046   .     S
H569   N580    1.046   .     S
H570   N582    1.042   .     S
H571   N582    1.044   .     S
H572   N583    1.045   .     S
H573   N583    1.045   .     S
H574   N584    1.046   .     S
H575   N584    1.045   .     S
H576   N585    1.045   .     S
N577   Zn601   2.024   .     S
N581   Zn602   2.024   .     S
O589   Zn601   2.026   .     S
O593   Zn602   2.026   .     S
O594   Zn601   1.986   .     S
O595   Zn602   1.986   .     S
O596   Zn601   2.016   .     S
O597   Zn602   2.016   .     S
O598   Zn601   1.999   .     S
O599   Zn602   1.999   .     S
C603   C604    1.437   .     S
C603   O681    1.296   .     A
C603   O675    1.284   .     A
C604   C635    1.413   .     A
C604   C632    1.407   .     A
C605   N667    1.380   .     A
C605   N674    1.427   .     S
C606   N664    1.428   .     S
C606   N663    1.380   .     A
C606   C91     1.423   1_565 S
C607   N665    1.430   .     S
C607   N667    1.363   .     A
C608   N663    1.363   .     A
C608   N666    1.430   .     S
C608   C89     1.423   1_565 S
C609   O685    1.287   .     A
C609   C615    1.420   .     S
C609   O682    1.288   .     A
C610   O684    1.286   .     A
C610   O683    1.289   .     A
C610   C613    1.421   .     S
C611   N668    1.435   .     S
C611   C622    1.416   .     A
C611   C613    1.391   .     A
C612   N669    1.436   .     S
C612   C623    1.416   .     A
C612   C615    1.391   .     A
C613   C616    1.376   .     A
C614   O680    1.296   .     A
C614   O679    1.285   .     A
C614   C636    1.437   .     S
C615   C617    1.376   .     A
C616   H637    1.083   .     S
C616   C618    1.383   .     A
C617   C619    1.384   .     A
C617   H648    1.083   .     S
C618   C624    1.408   .     A
C618   C620    1.418   .     A
C619   C621    1.417   .     A
C619   C626    1.407   .     A
C620   C622    1.435   .     A
C620   C1395   1.403   .     S
C621   C623    1.433   .     A
C621   C1394   1.403   1_554 S
C622   C631    1.425   .     A
C623   C625    1.420   .     A
C624   N670    1.438   .     S
C624   C1399   1.395   .     S
C625   N672    1.435   .     S
C625   C1398   1.395   1_554 S
C626   N671    1.438   .     S
C626   C1405   1.390   1_554 S
C627   O686    1.221   .     D
C627   H643    1.085   .     S
C627   C632    1.500   .     S
C628   H644    1.085   .     S
C628   C633    1.500   .     S
C628   O676    1.221   .     D
C629   O677    1.221   .     D
C629   C634    1.476   .     S
C629   H645    1.083   .     S
C630   H646    1.083   .     S
C630   C635    1.476   .     S
C630   O678    1.221   .     D
C631   N673    1.435   .     S
C631   C1400   1.390   .     S
C633   C636    1.408   .     A
C633   C721    1.391   .     S
C634   C636    1.413   .     A
C634   C718    1.391   .     S
H638   N671    1.046   .     S
H639   N672    1.046   .     S
H640   N672    1.046   .     S
H641   N673    1.044   .     S
H642   N673    1.042   .     S
H647   N674    1.038   .     S
H649   N674    1.044   .     S
H650   N664    1.038   .     S
H651   N664    1.044   .     S
H652   N665    1.046   .     S
H653   N665    1.046   .     S
H654   N666    1.046   .     S
H655   N666    1.046   .     S
H656   N668    1.042   .     S
H657   N668    1.044   .     S
H658   N669    1.045   .     S
H659   N669    1.045   .     S
H660   N670    1.046   .     S
H661   N670    1.045   .     S
H662   N671    1.045   .     S
N663   Zn687   2.024   .     S
N667   Zn688   2.024   .     S
O675   Zn687   2.026   .     S
O679   Zn688   2.026   .     S
O680   Zn687   1.986   .     S
O681   Zn688   1.986   .     S
O682   Zn687   2.016   .     S
O683   Zn688   2.016   .     S
O684   Zn687   1.999   .     S
O685   Zn688   1.999   .     S
C689   C690    1.437   .     S
C689   O767    1.296   .     A
C689   O761    1.284   .     A
C690   C721    1.413   .     A
C690   C718    1.407   .     A
C691   N753    1.380   .     A
C691   N760    1.427   .     S
C692   N750    1.428   .     S
C692   N749    1.380   .     A
C692   C177    1.423   1_565 S
C693   N751    1.430   .     S
C693   N753    1.363   .     A
C694   N749    1.363   .     A
C694   N752    1.430   .     S
C694   C175    1.423   1_565 S
C695   O771    1.287   .     A
C695   C701    1.420   .     S
C695   O768    1.288   .     A
C696   O770    1.286   .     A
C696   O769    1.289   .     A
C696   C699    1.421   .     S
C697   N754    1.435   .     S
C697   C708    1.416   .     A
C697   C699    1.391   .     A
C698   N755    1.436   .     S
C698   C709    1.416   .     A
C698   C701    1.391   .     A
C699   C702    1.376   .     A
C700   O766    1.296   .     A
C700   O765    1.285   .     A
C700   C722    1.437   .     S
C701   C703    1.376   .     A
C702   H723    1.083   .     S
C702   C704    1.383   .     A
C703   C705    1.384   .     A
C703   H734    1.083   .     S
C704   C710    1.408   .     A
C704   C706    1.418   .     A
C705   C707    1.417   .     A
C705   C712    1.407   .     A
C706   C708    1.435   .     A
C706   C1481   1.403   .     S
C707   C709    1.433   .     A
C707   C1480   1.403   1_554 S
C708   C717    1.425   .     A
C709   C711    1.420   .     A
C710   N756    1.438   .     S
C710   C1485   1.395   .     S
C711   N758    1.435   .     S
C711   C1484   1.395   1_554 S
C712   N757    1.438   .     S
C712   C1491   1.390   1_554 S
C713   O772    1.221   .     D
C713   H729    1.085   .     S
C713   C718    1.500   .     S
C714   H730    1.085   .     S
C714   C719    1.500   .     S
C714   O762    1.221   .     D
C715   O763    1.221   .     D
C715   C720    1.476   .     S
C715   H731    1.083   .     S
C716   H732    1.083   .     S
C716   C721    1.476   .     S
C716   O764    1.221   .     D
C717   N759    1.435   .     S
C717   C1486   1.390   .     S
C719   C722    1.408   .     A
C719   C549    1.391   1_655 S
C720   C722    1.413   .     A
C720   C546    1.391   1_655 S
H724   N757    1.046   .     S
H725   N758    1.046   .     S
H726   N758    1.046   .     S
H727   N759    1.044   .     S
H728   N759    1.042   .     S
H733   N760    1.038   .     S
H735   N760    1.044   .     S
H736   N750    1.038   .     S
H737   N750    1.044   .     S
H738   N751    1.046   .     S
H739   N751    1.046   .     S
H740   N752    1.046   .     S
H741   N752    1.046   .     S
H742   N754    1.042   .     S
H743   N754    1.044   .     S
H744   N755    1.045   .     S
H745   N755    1.045   .     S
H746   N756    1.046   .     S
H747   N756    1.045   .     S
H748   N757    1.045   .     S
N749   Zn773   2.024   .     S
N753   Zn774   2.024   .     S
O761   Zn773   2.026   .     S
O765   Zn774   2.026   .     S
O766   Zn773   1.986   .     S
O767   Zn774   1.986   .     S
O768   Zn773   2.016   .     S
O769   Zn774   2.016   .     S
O770   Zn773   1.999   .     S
O771   Zn774   1.999   .     S
C775   C776    1.437   .     S
C775   O853    1.296   .     A
C775   O847    1.284   .     A
C776   C807    1.413   .     A
C776   C804    1.407   .     A
C777   N839    1.380   .     A
C777   N846    1.427   .     S
C777   C1296   1.423   1_545 S
C778   N836    1.428   .     S
C778   N835    1.380   .     A
C778   C1037   1.423   .     S
C779   N837    1.430   .     S
C779   N839    1.363   .     A
C779   C1294   1.423   1_545 S
C780   N835    1.363   .     A
C780   N838    1.430   .     S
C780   C1035   1.423   .     S
C781   O857    1.287   .     A
C781   C787    1.420   .     S
C781   O854    1.288   .     A
C782   O856    1.286   .     A
C782   O855    1.289   .     A
C782   C785    1.421   .     S
C783   N840    1.435   .     S
C783   C794    1.416   .     A
C783   C785    1.391   .     A
C784   N841    1.436   .     S
C784   C795    1.416   .     A
C784   C787    1.391   .     A
C785   C788    1.376   .     A
C786   O852    1.296   .     A
C786   O851    1.285   .     A
C786   C808    1.437   .     S
C787   C789    1.376   .     A
C788   H809    1.083   .     S
C788   C790    1.383   .     A
C789   C791    1.384   .     A
C789   H820    1.083   .     S
C790   C796    1.408   .     A
C790   C792    1.418   .     A
C791   C793    1.417   .     A
C791   C798    1.407   .     A
C792   C794    1.435   .     A
C792   C19     1.403   1_556 S
C793   C795    1.433   .     A
C794   C803    1.425   .     A
C795   C797    1.420   .     A
C796   N842    1.438   .     S
C796   C23     1.395   1_556 S
C797   N844    1.435   .     S
C798   N843    1.438   .     S
C799   O858    1.221   .     D
C799   H815    1.085   .     S
C799   C804    1.500   .     S
C800   H816    1.085   .     S
C800   C805    1.500   .     S
C800   O848    1.221   .     D
C801   O849    1.221   .     D
C801   C806    1.476   .     S
C801   H817    1.083   .     S
C802   H818    1.083   .     S
C802   C807    1.476   .     S
C802   O850    1.221   .     D
C803   N845    1.435   .     S
C803   C24     1.390   1_556 S
C804   C978    1.391   1_455 S
C805   C808    1.408   .     A
C805   C893    1.391   .     S
C806   C808    1.413   .     A
C806   C890    1.391   .     S
C807   C977    1.391   1_455 S
H810   N843    1.046   .     S
H811   N844    1.046   .     S
H812   N844    1.046   .     S
H813   N845    1.044   .     S
H814   N845    1.042   .     S
H819   N846    1.038   .     S
H821   N846    1.044   .     S
H822   N836    1.038   .     S
H823   N836    1.044   .     S
H824   N837    1.046   .     S
H825   N837    1.046   .     S
H826   N838    1.046   .     S
H827   N838    1.046   .     S
H828   N840    1.042   .     S
H829   N840    1.044   .     S
H830   N841    1.045   .     S
H831   N841    1.045   .     S
H832   N842    1.046   .     S
H833   N842    1.045   .     S
H834   N843    1.045   .     S
N835   Zn859   2.024   .     S
N839   Zn860   2.024   .     S
O847   Zn859   2.026   .     S
O851   Zn860   2.026   .     S
O852   Zn859   1.986   .     S
O853   Zn860   1.986   .     S
O854   Zn859   2.016   .     S
O855   Zn860   2.016   .     S
O856   Zn859   1.999   .     S
O857   Zn860   1.999   .     S
C861   C862    1.437   .     S
C861   O939    1.296   .     A
C861   O933    1.284   .     A
C862   C893    1.413   .     A
C862   C890    1.407   .     A
C863   N925    1.380   .     A
C863   N932    1.427   .     S
C863   C1382   1.423   1_545 S
C864   N922    1.428   .     S
C864   N921    1.380   .     A
C864   C1123   1.423   .     S
C865   N923    1.430   .     S
C865   N925    1.363   .     A
C865   C1380   1.423   1_545 S
C866   N921    1.363   .     A
C866   N924    1.430   .     S
C866   C1121   1.423   .     S
C867   O943    1.287   .     A
C867   C873    1.420   .     S
C867   O940    1.288   .     A
C868   O942    1.286   .     A
C868   O941    1.289   .     A
C868   C871    1.421   .     S
C869   N926    1.435   .     S
C869   C880    1.416   .     A
C869   C871    1.391   .     A
C870   N927    1.436   .     S
C870   C881    1.416   .     A
C870   C873    1.391   .     A
C871   C874    1.376   .     A
C872   O938    1.296   .     A
C872   O937    1.285   .     A
C872   C894    1.437   .     S
C873   C875    1.376   .     A
C874   H895    1.083   .     S
C874   C876    1.383   .     A
C875   C877    1.384   .     A
C875   H906    1.083   .     S
C876   C882    1.408   .     A
C876   C878    1.418   .     A
C877   C879    1.417   .     A
C877   C884    1.407   .     A
C878   C880    1.435   .     A
C878   C105    1.403   1_556 S
C879   C881    1.433   .     A
C880   C889    1.425   .     A
C881   C883    1.420   .     A
C882   N928    1.438   .     S
C882   C109    1.395   1_556 S
C883   N930    1.435   .     S
C884   N929    1.438   .     S
C885   O944    1.221   .     D
C885   H901    1.085   .     S
C885   C890    1.500   .     S
C886   H902    1.085   .     S
C886   C891    1.500   .     S
C886   O934    1.221   .     D
C887   O935    1.221   .     D
C887   C892    1.476   .     S
C887   H903    1.083   .     S
C888   H904    1.083   .     S
C888   C893    1.476   .     S
C888   O936    1.221   .     D
C889   N931    1.435   .     S
C889   C110    1.390   1_556 S
C891   C894    1.408   .     A
C891   C979    1.391   .     S
C892   C894    1.413   .     A
C892   C976    1.391   .     S
H896   N929    1.046   .     S
H897   N930    1.046   .     S
H898   N930    1.046   .     S
H899   N931    1.044   .     S
H900   N931    1.042   .     S
H905   N932    1.038   .     S
H907   N932    1.044   .     S
H908   N922    1.038   .     S
H909   N922    1.044   .     S
H910   N923    1.046   .     S
H911   N923    1.046   .     S
H912   N924    1.046   .     S
H913   N924    1.046   .     S
H914   N926    1.042   .     S
H915   N926    1.044   .     S
H916   N927    1.045   .     S
H917   N927    1.045   .     S
H918   N928    1.046   .     S
H919   N928    1.045   .     S
H920   N929    1.045   .     S
N921   Zn945   2.024   .     S
N925   Zn946   2.024   .     S
O933   Zn945   2.026   .     S
O937   Zn946   2.026   .     S
O938   Zn945   1.986   .     S
O939   Zn946   1.986   .     S
O940   Zn945   2.016   .     S
O941   Zn946   2.016   .     S
O942   Zn945   1.999   .     S
O943   Zn946   1.999   .     S
C947   C948    1.437   .     S
C947   O1025   1.296   .     A
C947   O1019   1.284   .     A
C948   C979    1.413   .     A
C948   C976    1.407   .     A
C949   N1011   1.380   .     A
C949   N1018   1.427   .     S
C949   C1468   1.423   1_545 S
C950   N1008   1.428   .     S
C950   N1007   1.380   .     A
C950   C1209   1.423   .     S
C951   N1009   1.430   .     S
C951   N1011   1.363   .     A
C951   C1466   1.423   1_545 S
C952   N1007   1.363   .     A
C952   N1010   1.430   .     S
C952   C1207   1.423   .     S
C953   O1029   1.287   .     A
C953   C959    1.420   .     S
C953   O1026   1.288   .     A
C954   O1028   1.286   .     A
C954   O1027   1.289   .     A
C954   C957    1.421   .     S
C955   N1012   1.435   .     S
C955   C966    1.416   .     A
C955   C957    1.391   .     A
C956   N1013   1.436   .     S
C956   C967    1.416   .     A
C956   C959    1.391   .     A
C957   C960    1.376   .     A
C958   O1024   1.296   .     A
C958   O1023   1.285   .     A
C958   C980    1.437   .     S
C959   C961    1.376   .     A
C960   H981    1.083   .     S
C960   C962    1.383   .     A
C961   C963    1.384   .     A
C961   H992    1.083   .     S
C962   C968    1.408   .     A
C962   C964    1.418   .     A
C963   C965    1.417   .     A
C963   C970    1.407   .     A
C964   C966    1.435   .     A
C964   C191    1.403   1_556 S
C965   C967    1.433   .     A
C966   C975    1.425   .     A
C967   C969    1.420   .     A
C968   N1014   1.438   .     S
C968   C195    1.395   1_556 S
C969   N1016   1.435   .     S
C970   N1015   1.438   .     S
C971   O1030   1.221   .     D
C971   H987    1.085   .     S
C971   C976    1.500   .     S
C972   H988    1.085   .     S
C972   C977    1.500   .     S
C972   O1020   1.221   .     D
C973   O1021   1.221   .     D
C973   C978    1.476   .     S
C973   H989    1.083   .     S
C974   H990    1.083   .     S
C974   C979    1.476   .     S
C974   O1022   1.221   .     D
C975   N1017   1.435   .     S
C975   C196    1.390   1_556 S
C977   C980    1.408   .     A
C977   C807    1.391   1_655 S
C978   C980    1.413   .     A
C978   C804    1.391   1_655 S
H982   N1015   1.046   .     S
H983   N1016   1.046   .     S
H984   N1016   1.046   .     S
H985   N1017   1.044   .     S
H986   N1017   1.042   .     S
H991   N1018   1.038   .     S
H993   N1018   1.044   .     S
H994   N1008   1.038   .     S
H995   N1008   1.044   .     S
H996   N1009   1.046   .     S
H997   N1009   1.046   .     S
H998   N1010   1.046   .     S
H999   N1010   1.046   .     S
H1000  N1012   1.042   .     S
H1001  N1012   1.044   .     S
H1002  N1013   1.045   .     S
H1003  N1013   1.045   .     S
H1004  N1014   1.046   .     S
H1005  N1014   1.045   .     S
H1006  N1015   1.045   .     S
N1007  Zn1031  2.024   .     S
N1011  Zn1032  2.024   .     S
O1019  Zn1031  2.026   .     S
O1023  Zn1032  2.026   .     S
O1024  Zn1031  1.986   .     S
O1025  Zn1032  1.986   .     S
O1026  Zn1031  2.016   .     S
O1027  Zn1032  2.016   .     S
O1028  Zn1031  1.999   .     S
O1029  Zn1032  1.999   .     S
C1033  C1034   1.437   .     S
C1033  O1111   1.296   .     A
C1033  O1105   1.284   .     A
C1034  C1065   1.413   .     A
C1034  C1062   1.407   .     A
C1035  N1097   1.380   .     A
C1035  N1104   1.427   .     S
C1036  N1094   1.428   .     S
C1036  N1093   1.380   .     A
C1036  C1295   1.423   .     S
C1037  N1095   1.430   .     S
C1037  N1097   1.363   .     A
C1038  N1093   1.363   .     A
C1038  N1096   1.430   .     S
C1038  C1293   1.423   .     S
C1039  O1115   1.287   .     A
C1039  C1045   1.420   .     S
C1039  O1112   1.288   .     A
C1040  O1114   1.286   .     A
C1040  O1113   1.289   .     A
C1040  C1043   1.421   .     S
C1041  N1098   1.435   .     S
C1041  C1052   1.416   .     A
C1041  C1043   1.391   .     A
C1042  N1099   1.436   .     S
C1042  C1053   1.416   .     A
C1042  C1045   1.391   .     A
C1043  C1046   1.376   .     A
C1044  O1110   1.296   .     A
C1044  O1109   1.285   .     A
C1044  C1066   1.437   .     S
C1045  C1047   1.376   .     A
C1046  H1067   1.083   .     S
C1046  C1048   1.383   .     A
C1047  C1049   1.384   .     A
C1047  H1078   1.083   .     S
C1048  C1054   1.408   .     A
C1048  C1050   1.418   .     A
C1049  C1051   1.417   .     A
C1049  C1056   1.407   .     A
C1050  C1052   1.435   .     A
C1050  C277    1.403   1_556 S
C1051  C1053   1.433   .     A
C1052  C1061   1.425   .     A
C1053  C1055   1.420   .     A
C1054  N1100   1.438   .     S
C1054  C281    1.395   1_556 S
C1055  N1102   1.435   .     S
C1056  N1101   1.438   .     S
C1057  O1116   1.221   .     D
C1057  H1073   1.085   .     S
C1057  C1062   1.500   .     S
C1058  H1074   1.085   .     S
C1058  C1063   1.500   .     S
C1058  O1106   1.221   .     D
C1059  O1107   1.221   .     D
C1059  C1064   1.476   .     S
C1059  H1075   1.083   .     S
C1060  H1076   1.083   .     S
C1060  C1065   1.476   .     S
C1060  O1108   1.221   .     D
C1061  N1103   1.435   .     S
C1061  C282    1.390   1_556 S
C1062  C1236   1.391   1_455 S
C1063  C1066   1.408   .     A
C1063  C1151   1.391   .     S
C1064  C1066   1.413   .     A
C1064  C1148   1.391   .     S
C1065  C1235   1.391   1_455 S
H1068  N1101   1.046   .     S
H1069  N1102   1.046   .     S
H1070  N1102   1.046   .     S
H1071  N1103   1.044   .     S
H1072  N1103   1.042   .     S
H1077  N1104   1.038   .     S
H1079  N1104   1.044   .     S
H1080  N1094   1.038   .     S
H1081  N1094   1.044   .     S
H1082  N1095   1.046   .     S
H1083  N1095   1.046   .     S
H1084  N1096   1.046   .     S
H1085  N1096   1.046   .     S
H1086  N1098   1.042   .     S
H1087  N1098   1.044   .     S
H1088  N1099   1.045   .     S
H1089  N1099   1.045   .     S
H1090  N1100   1.046   .     S
H1091  N1100   1.045   .     S
H1092  N1101   1.045   .     S
N1093  Zn1117  2.024   .     S
N1097  Zn1118  2.024   .     S
O1105  Zn1117  2.026   .     S
O1109  Zn1118  2.026   .     S
O1110  Zn1117  1.986   .     S
O1111  Zn1118  1.986   .     S
O1112  Zn1117  2.016   .     S
O1113  Zn1118  2.016   .     S
O1114  Zn1117  1.999   .     S
O1115  Zn1118  1.999   .     S
C1119  C1120   1.437   .     S
C1119  O1197   1.296   .     A
C1119  O1191   1.284   .     A
C1120  C1151   1.413   .     A
C1120  C1148   1.407   .     A
C1121  N1183   1.380   .     A
C1121  N1190   1.427   .     S
C1122  N1180   1.428   .     S
C1122  N1179   1.380   .     A
C1122  C1381   1.423   .     S
C1123  N1181   1.430   .     S
C1123  N1183   1.363   .     A
C1124  N1179   1.363   .     A
C1124  N1182   1.430   .     S
C1124  C1379   1.423   .     S
C1125  O1201   1.287   .     A
C1125  C1131   1.420   .     S
C1125  O1198   1.288   .     A
C1126  O1200   1.286   .     A
C1126  O1199   1.289   .     A
C1126  C1129   1.421   .     S
C1127  N1184   1.435   .     S
C1127  C1138   1.416   .     A
C1127  C1129   1.391   .     A
C1128  N1185   1.436   .     S
C1128  C1139   1.416   .     A
C1128  C1131   1.391   .     A
C1129  C1132   1.376   .     A
C1130  O1196   1.296   .     A
C1130  O1195   1.285   .     A
C1130  C1152   1.437   .     S
C1131  C1133   1.376   .     A
C1132  H1153   1.083   .     S
C1132  C1134   1.383   .     A
C1133  C1135   1.384   .     A
C1133  H1164   1.083   .     S
C1134  C1140   1.408   .     A
C1134  C1136   1.418   .     A
C1135  C1137   1.417   .     A
C1135  C1142   1.407   .     A
C1136  C1138   1.435   .     A
C1136  C363    1.403   1_556 S
C1137  C1139   1.433   .     A
C1138  C1147   1.425   .     A
C1139  C1141   1.420   .     A
C1140  N1186   1.438   .     S
C1140  C367    1.395   1_556 S
C1141  N1188   1.435   .     S
C1142  N1187   1.438   .     S
C1143  O1202   1.221   .     D
C1143  H1159   1.085   .     S
C1143  C1148   1.500   .     S
C1144  H1160   1.085   .     S
C1144  C1149   1.500   .     S
C1144  O1192   1.221   .     D
C1145  O1193   1.221   .     D
C1145  C1150   1.476   .     S
C1145  H1161   1.083   .     S
C1146  H1162   1.083   .     S
C1146  C1151   1.476   .     S
C1146  O1194   1.221   .     D
C1147  N1189   1.435   .     S
C1147  C368    1.390   1_556 S
C1149  C1152   1.408   .     A
C1149  C1237   1.391   .     S
C1150  C1152   1.413   .     A
C1150  C1234   1.391   .     S
H1154  N1187   1.046   .     S
H1155  N1188   1.046   .     S
H1156  N1188   1.046   .     S
H1157  N1189   1.044   .     S
H1158  N1189   1.042   .     S
H1163  N1190   1.038   .     S
H1165  N1190   1.044   .     S
H1166  N1180   1.038   .     S
H1167  N1180   1.044   .     S
H1168  N1181   1.046   .     S
H1169  N1181   1.046   .     S
H1170  N1182   1.046   .     S
H1171  N1182   1.046   .     S
H1172  N1184   1.042   .     S
H1173  N1184   1.044   .     S
H1174  N1185   1.045   .     S
H1175  N1185   1.045   .     S
H1176  N1186   1.046   .     S
H1177  N1186   1.045   .     S
H1178  N1187   1.045   .     S
N1179  Zn1203  2.024   .     S
N1183  Zn1204  2.024   .     S
O1191  Zn1203  2.026   .     S
O1195  Zn1204  2.026   .     S
O1196  Zn1203  1.986   .     S
O1197  Zn1204  1.986   .     S
O1198  Zn1203  2.016   .     S
O1199  Zn1204  2.016   .     S
O1200  Zn1203  1.999   .     S
O1201  Zn1204  1.999   .     S
C1205  C1206   1.437   .     S
C1205  O1283   1.296   .     A
C1205  O1277   1.284   .     A
C1206  C1237   1.413   .     A
C1206  C1234   1.407   .     A
C1207  N1269   1.380   .     A
C1207  N1276   1.427   .     S
C1208  N1266   1.428   .     S
C1208  N1265   1.380   .     A
C1208  C1467   1.423   .     S
C1209  N1267   1.430   .     S
C1209  N1269   1.363   .     A
C1210  N1265   1.363   .     A
C1210  N1268   1.430   .     S
C1210  C1465   1.423   .     S
C1211  O1287   1.287   .     A
C1211  C1217   1.420   .     S
C1211  O1284   1.288   .     A
C1212  O1286   1.286   .     A
C1212  O1285   1.289   .     A
C1212  C1215   1.421   .     S
C1213  N1270   1.435   .     S
C1213  C1224   1.416   .     A
C1213  C1215   1.391   .     A
C1214  N1271   1.436   .     S
C1214  C1225   1.416   .     A
C1214  C1217   1.391   .     A
C1215  C1218   1.376   .     A
C1216  O1282   1.296   .     A
C1216  O1281   1.285   .     A
C1216  C1238   1.437   .     S
C1217  C1219   1.376   .     A
C1218  H1239   1.083   .     S
C1218  C1220   1.383   .     A
C1219  C1221   1.384   .     A
C1219  H1250   1.083   .     S
C1220  C1226   1.408   .     A
C1220  C1222   1.418   .     A
C1221  C1223   1.417   .     A
C1221  C1228   1.407   .     A
C1222  C1224   1.435   .     A
C1222  C449    1.403   1_556 S
C1223  C1225   1.433   .     A
C1224  C1233   1.425   .     A
C1225  C1227   1.420   .     A
C1226  N1272   1.438   .     S
C1226  C453    1.395   1_556 S
C1227  N1274   1.435   .     S
C1228  N1273   1.438   .     S
C1229  O1288   1.221   .     D
C1229  H1245   1.085   .     S
C1229  C1234   1.500   .     S
C1230  H1246   1.085   .     S
C1230  C1235   1.500   .     S
C1230  O1278   1.221   .     D
C1231  O1279   1.221   .     D
C1231  C1236   1.476   .     S
C1231  H1247   1.083   .     S
C1232  H1248   1.083   .     S
C1232  C1237   1.476   .     S
C1232  O1280   1.221   .     D
C1233  N1275   1.435   .     S
C1233  C454    1.390   1_556 S
C1235  C1238   1.408   .     A
C1235  C1065   1.391   1_655 S
C1236  C1238   1.413   .     A
C1236  C1062   1.391   1_655 S
H1240  N1273   1.046   .     S
H1241  N1274   1.046   .     S
H1242  N1274   1.046   .     S
H1243  N1275   1.044   .     S
H1244  N1275   1.042   .     S
H1249  N1276   1.038   .     S
H1251  N1276   1.044   .     S
H1252  N1266   1.038   .     S
H1253  N1266   1.044   .     S
H1254  N1267   1.046   .     S
H1255  N1267   1.046   .     S
H1256  N1268   1.046   .     S
H1257  N1268   1.046   .     S
H1258  N1270   1.042   .     S
H1259  N1270   1.044   .     S
H1260  N1271   1.045   .     S
H1261  N1271   1.045   .     S
H1262  N1272   1.046   .     S
H1263  N1272   1.045   .     S
H1264  N1273   1.045   .     S
N1265  Zn1289  2.024   .     S
N1269  Zn1290  2.024   .     S
O1277  Zn1289  2.026   .     S
O1281  Zn1290  2.026   .     S
O1282  Zn1289  1.986   .     S
O1283  Zn1290  1.986   .     S
O1284  Zn1289  2.016   .     S
O1285  Zn1290  2.016   .     S
O1286  Zn1289  1.999   .     S
O1287  Zn1290  1.999   .     S
C1291  C1292   1.437   .     S
C1291  O1369   1.296   .     A
C1291  O1363   1.284   .     A
C1292  C1323   1.413   .     A
C1292  C1320   1.407   .     A
C1293  N1355   1.380   .     A
C1293  N1362   1.427   .     S
C1294  N1352   1.428   .     S
C1294  N1351   1.380   .     A
C1294  C779    1.423   1_565 S
C1295  N1353   1.430   .     S
C1295  N1355   1.363   .     A
C1296  N1351   1.363   .     A
C1296  N1354   1.430   .     S
C1296  C777    1.423   1_565 S
C1297  O1373   1.287   .     A
C1297  C1303   1.420   .     S
C1297  O1370   1.288   .     A
C1298  O1372   1.286   .     A
C1298  O1371   1.289   .     A
C1298  C1301   1.421   .     S
C1299  N1356   1.435   .     S
C1299  C1310   1.416   .     A
C1299  C1301   1.391   .     A
C1300  N1357   1.436   .     S
C1300  C1311   1.416   .     A
C1300  C1303   1.391   .     A
C1301  C1304   1.376   .     A
C1302  O1368   1.296   .     A
C1302  O1367   1.285   .     A
C1302  C1324   1.437   .     S
C1303  C1305   1.376   .     A
C1304  H1325   1.083   .     S
C1304  C1306   1.383   .     A
C1305  C1307   1.384   .     A
C1305  H1336   1.083   .     S
C1306  C1312   1.408   .     A
C1306  C1308   1.418   .     A
C1307  C1309   1.417   .     A
C1307  C1314   1.407   .     A
C1308  C1310   1.435   .     A
C1308  C535    1.403   1_556 S
C1309  C1311   1.433   .     A
C1310  C1319   1.425   .     A
C1311  C1313   1.420   .     A
C1312  N1358   1.438   .     S
C1312  C539    1.395   1_556 S
C1313  N1360   1.435   .     S
C1314  N1359   1.438   .     S
C1315  O1374   1.221   .     D
C1315  H1331   1.085   .     S
C1315  C1320   1.500   .     S
C1316  H1332   1.085   .     S
C1316  C1321   1.500   .     S
C1316  O1364   1.221   .     D
C1317  O1365   1.221   .     D
C1317  C1322   1.476   .     S
C1317  H1333   1.083   .     S
C1318  H1334   1.083   .     S
C1318  C1323   1.476   .     S
C1318  O1366   1.221   .     D
C1319  N1361   1.435   .     S
C1319  C540    1.390   1_556 S
C1320  C1494   1.391   1_455 S
C1321  C1324   1.408   .     A
C1321  C1409   1.391   .     S
C1322  C1324   1.413   .     A
C1322  C1406   1.391   .     S
C1323  C1493   1.391   1_455 S
H1326  N1359   1.046   .     S
H1327  N1360   1.046   .     S
H1328  N1360   1.046   .     S
H1329  N1361   1.044   .     S
H1330  N1361   1.042   .     S
H1335  N1362   1.038   .     S
H1337  N1362   1.044   .     S
H1338  N1352   1.038   .     S
H1339  N1352   1.044   .     S
H1340  N1353   1.046   .     S
H1341  N1353   1.046   .     S
H1342  N1354   1.046   .     S
H1343  N1354   1.046   .     S
H1344  N1356   1.042   .     S
H1345  N1356   1.044   .     S
H1346  N1357   1.045   .     S
H1347  N1357   1.045   .     S
H1348  N1358   1.046   .     S
H1349  N1358   1.045   .     S
H1350  N1359   1.045   .     S
N1351  Zn1375  2.024   .     S
N1355  Zn1376  2.024   .     S
O1363  Zn1375  2.026   .     S
O1367  Zn1376  2.026   .     S
O1368  Zn1375  1.986   .     S
O1369  Zn1376  1.986   .     S
O1370  Zn1375  2.016   .     S
O1371  Zn1376  2.016   .     S
O1372  Zn1375  1.999   .     S
O1373  Zn1376  1.999   .     S
C1377  C1378   1.437   .     S
C1377  O1455   1.296   .     A
C1377  O1449   1.284   .     A
C1378  C1409   1.413   .     A
C1378  C1406   1.407   .     A
C1379  N1441   1.380   .     A
C1379  N1448   1.427   .     S
C1380  N1438   1.428   .     S
C1380  N1437   1.380   .     A
C1380  C865    1.423   1_565 S
C1381  N1439   1.430   .     S
C1381  N1441   1.363   .     A
C1382  N1437   1.363   .     A
C1382  N1440   1.430   .     S
C1382  C863    1.423   1_565 S
C1383  O1459   1.287   .     A
C1383  C1389   1.420   .     S
C1383  O1456   1.288   .     A
C1384  O1458   1.286   .     A
C1384  O1457   1.289   .     A
C1384  C1387   1.421   .     S
C1385  N1442   1.435   .     S
C1385  C1396   1.416   .     A
C1385  C1387   1.391   .     A
C1386  N1443   1.436   .     S
C1386  C1397   1.416   .     A
C1386  C1389   1.391   .     A
C1387  C1390   1.376   .     A
C1388  O1454   1.296   .     A
C1388  O1453   1.285   .     A
C1388  C1410   1.437   .     S
C1389  C1391   1.376   .     A
C1390  H1411   1.083   .     S
C1390  C1392   1.383   .     A
C1391  C1393   1.384   .     A
C1391  H1422   1.083   .     S
C1392  C1398   1.408   .     A
C1392  C1394   1.418   .     A
C1393  C1395   1.417   .     A
C1393  C1400   1.407   .     A
C1394  C1396   1.435   .     A
C1394  C621    1.403   1_556 S
C1395  C1397   1.433   .     A
C1396  C1405   1.425   .     A
C1397  C1399   1.420   .     A
C1398  N1444   1.438   .     S
C1398  C625    1.395   1_556 S
C1399  N1446   1.435   .     S
C1400  N1445   1.438   .     S
C1401  O1460   1.221   .     D
C1401  H1417   1.085   .     S
C1401  C1406   1.500   .     S
C1402  H1418   1.085   .     S
C1402  C1407   1.500   .     S
C1402  O1450   1.221   .     D
C1403  O1451   1.221   .     D
C1403  C1408   1.476   .     S
C1403  H1419   1.083   .     S
C1404  H1420   1.083   .     S
C1404  C1409   1.476   .     S
C1404  O1452   1.221   .     D
C1405  N1447   1.435   .     S
C1405  C626    1.390   1_556 S
C1407  C1410   1.408   .     A
C1407  C1495   1.391   .     S
C1408  C1410   1.413   .     A
C1408  C1492   1.391   .     S
H1412  N1445   1.046   .     S
H1413  N1446   1.046   .     S
H1414  N1446   1.046   .     S
H1415  N1447   1.044   .     S
H1416  N1447   1.042   .     S
H1421  N1448   1.038   .     S
H1423  N1448   1.044   .     S
H1424  N1438   1.038   .     S
H1425  N1438   1.044   .     S
H1426  N1439   1.046   .     S
H1427  N1439   1.046   .     S
H1428  N1440   1.046   .     S
H1429  N1440   1.046   .     S
H1430  N1442   1.042   .     S
H1431  N1442   1.044   .     S
H1432  N1443   1.045   .     S
H1433  N1443   1.045   .     S
H1434  N1444   1.046   .     S
H1435  N1444   1.045   .     S
H1436  N1445   1.045   .     S
N1437  Zn1461  2.024   .     S
N1441  Zn1462  2.024   .     S
O1449  Zn1461  2.026   .     S
O1453  Zn1462  2.026   .     S
O1454  Zn1461  1.986   .     S
O1455  Zn1462  1.986   .     S
O1456  Zn1461  2.016   .     S
O1457  Zn1462  2.016   .     S
O1458  Zn1461  1.999   .     S
O1459  Zn1462  1.999   .     S
C1463  C1464   1.437   .     S
C1463  O1541   1.296   .     A
C1463  O1535   1.284   .     A
C1464  C1495   1.413   .     A
C1464  C1492   1.407   .     A
C1465  N1527   1.380   .     A
C1465  N1534   1.427   .     S
C1466  N1524   1.428   .     S
C1466  N1523   1.380   .     A
C1466  C951    1.423   1_565 S
C1467  N1525   1.430   .     S
C1467  N1527   1.363   .     A
C1468  N1523   1.363   .     A
C1468  N1526   1.430   .     S
C1468  C949    1.423   1_565 S
C1469  O1545   1.287   .     A
C1469  C1475   1.420   .     S
C1469  O1542   1.288   .     A
C1470  O1544   1.286   .     A
C1470  O1543   1.289   .     A
C1470  C1473   1.421   .     S
C1471  N1528   1.435   .     S
C1471  C1482   1.416   .     A
C1471  C1473   1.391   .     A
C1472  N1529   1.436   .     S
C1472  C1483   1.416   .     A
C1472  C1475   1.391   .     A
C1473  C1476   1.376   .     A
C1474  O1540   1.296   .     A
C1474  O1539   1.285   .     A
C1474  C1496   1.437   .     S
C1475  C1477   1.376   .     A
C1476  H1497   1.083   .     S
C1476  C1478   1.383   .     A
C1477  C1479   1.384   .     A
C1477  H1508   1.083   .     S
C1478  C1484   1.408   .     A
C1478  C1480   1.418   .     A
C1479  C1481   1.417   .     A
C1479  C1486   1.407   .     A
C1480  C1482   1.435   .     A
C1480  C707    1.403   1_556 S
C1481  C1483   1.433   .     A
C1482  C1491   1.425   .     A
C1483  C1485   1.420   .     A
C1484  N1530   1.438   .     S
C1484  C711    1.395   1_556 S
C1485  N1532   1.435   .     S
C1486  N1531   1.438   .     S
C1487  O1546   1.221   .     D
C1487  H1503   1.085   .     S
C1487  C1492   1.500   .     S
C1488  H1504   1.085   .     S
C1488  C1493   1.500   .     S
C1488  O1536   1.221   .     D
C1489  O1537   1.221   .     D
C1489  C1494   1.476   .     S
C1489  H1505   1.083   .     S
C1490  H1506   1.083   .     S
C1490  C1495   1.476   .     S
C1490  O1538   1.221   .     D
C1491  N1533   1.435   .     S
C1491  C712    1.390   1_556 S
C1493  C1496   1.408   .     A
C1493  C1323   1.391   1_655 S
C1494  C1496   1.413   .     A
C1494  C1320   1.391   1_655 S
H1498  N1531   1.046   .     S
H1499  N1532   1.046   .     S
H1500  N1532   1.046   .     S
H1501  N1533   1.044   .     S
H1502  N1533   1.042   .     S
H1507  N1534   1.038   .     S
H1509  N1534   1.044   .     S
H1510  N1524   1.038   .     S
H1511  N1524   1.044   .     S
H1512  N1525   1.046   .     S
H1513  N1525   1.046   .     S
H1514  N1526   1.046   .     S
H1515  N1526   1.046   .     S
H1516  N1528   1.042   .     S
H1517  N1528   1.044   .     S
H1518  N1529   1.045   .     S
H1519  N1529   1.045   .     S
H1520  N1530   1.046   .     S
H1521  N1530   1.045   .     S
H1522  N1531   1.045   .     S
N1523  Zn1547  2.024   .     S
N1527  Zn1548  2.024   .     S
O1535  Zn1547  2.026   .     S
O1539  Zn1548  2.026   .     S
O1540  Zn1547  1.986   .     S
O1541  Zn1548  1.986   .     S
O1542  Zn1547  2.016   .     S
O1543  Zn1548  2.016   .     S
O1544  Zn1547  1.999   .     S
O1545  Zn1548  1.999   .     S
