data_str_m3_o1_o17_pcu_sym.155
_audit_creation_date              2020-01-03
_audit_creation_method            'Materials Studio'
_symmetry_space_group_name_H-M    'P1'
_symmetry_Int_Tables_number       1
_symmetry_cell_setting            triclinic
loop_
_symmetry_equiv_pos_as_xyz
  x,y,z
_cell_length_a                    32.0816
_cell_length_b                    29.8563
_cell_length_c                    29.9451
_cell_angle_alpha                 89.1078
_cell_angle_beta                  92.2740
_cell_angle_gamma                 90.2744
loop_
_atom_site_label
_atom_site_type_symbol
_atom_site_fract_x
_atom_site_fract_y
_atom_site_fract_z
_atom_site_U_iso_or_equiv
_atom_site_adp_type
_atom_site_occupancy
C1     C     0.08675   0.16661   0.25000   0.00000  Uiso   1.00
C2     C     0.24658   0.16673   0.24999   0.00000  Uiso   1.00
C3     C     0.09074   0.16526   0.02021   0.00000  Uiso   1.00
C4     C     0.24260   0.16807   0.47979   0.00000  Uiso   1.00
C5     C     0.02082   0.12679   0.24156   0.00000  Uiso   1.00
C6     C     0.31252   0.20655   0.25843   0.00000  Uiso   1.00
C7     C     0.31148   0.12691   0.24131   0.00000  Uiso   1.00
C8     C     0.02185   0.20642   0.25867   0.00000  Uiso   1.00
C9     C     0.29079   0.16677   0.24983   0.00000  Uiso   1.00
C10    C     0.04254   0.16656   0.25016   0.00000  Uiso   1.00
C11    C     0.19387   0.02370   0.27769   0.00000  Uiso   1.00
C12    C     0.13946   0.30963   0.22232   0.00000  Uiso   1.00
C13    C     0.14086   0.02429   0.22081   0.00000  Uiso   1.00
C14    C     0.19248   0.30905   0.27918   0.00000  Uiso   1.00
C15    C     0.16655   0.16702   0.16375   0.00000  Uiso   1.00
C16    C     0.16679   0.16632   0.33625   0.00000  Uiso   1.00
C17    C     0.20475   0.16610   0.40793   0.00000  Uiso   1.00
C18    C     0.12858   0.16723   0.09207   0.00000  Uiso   1.00
C19    C     0.16645   0.16533   0.38390   0.00000  Uiso   1.00
C20    C     0.16688   0.16800   0.11610   0.00000  Uiso   1.00
C21    C     0.12802   0.16504   0.40483   0.00000  Uiso   1.00
C22    C     0.20531   0.16829   0.09516   0.00000  Uiso   1.00
C23    C     0.12808   0.16575   0.45160   0.00000  Uiso   1.00
C24    C     0.20525   0.16758   0.04840   0.00000  Uiso   1.00
C25    C     0.16658   0.16652   0.47649   0.00000  Uiso   1.00
C26    C     0.16675   0.16681   0.02351   0.00000  Uiso   1.00
C27    C     0.20493   0.16684   0.45455   0.00000  Uiso   1.00
C28    C     0.12841   0.16649   0.04544   0.00000  Uiso   1.00
C29    C     0.09054   0.16468   0.47413   0.00000  Uiso   1.00
C30    C     0.24279   0.16865   0.02587   0.00000  Uiso   1.00
H31    H     0.06046   0.16306   0.45660   0.00000  Uiso   1.00
H32    H     0.27287   0.17027   0.04340   0.00000  Uiso   1.00
H33    H     0.06080   0.16451   0.03542   0.00000  Uiso   1.00
H34    H     0.27253   0.16882   0.46458   0.00000  Uiso   1.00
H35    H     0.03661   0.09581   0.23469   0.00000  Uiso   1.00
H36    H     0.29672   0.23753   0.26528   0.00000  Uiso   1.00
H37    H     0.29484   0.09600   0.23425   0.00000  Uiso   1.00
H38    H     0.03849   0.23734   0.26574   0.00000  Uiso   1.00
N39    N     0.16667   0.28573   0.25000   0.00000  Uiso   1.00
N40    N     0.16667   0.04760   0.25000   0.00000  Uiso   1.00
O41    O     0.10559   0.20487   0.24999   0.00000  Uiso   1.00
O42    O     0.22774   0.12846   0.25000   0.00000  Uiso   1.00
O43    O     0.22774   0.20487   0.25000   0.00000  Uiso   1.00
O44    O     0.10559   0.12846   0.24999   0.00000  Uiso   1.00
O45    O     0.16666   0.20489   0.18392   0.00000  Uiso   1.00
O46    O     0.16667   0.12844   0.31607   0.00000  Uiso   1.00
O47    O     0.16667   0.20489   0.31607   0.00000  Uiso   1.00
O48    O     0.16666   0.12844   0.18392   0.00000  Uiso   1.00
Zn49   Zn    0.16667   0.21771   0.25000   0.00000  Uiso   1.00
Zn50   Zn    0.16667   0.11563   0.25000   0.00000  Uiso   1.00
I51    I     0.26190   0.16610   0.37251   0.00000  Uiso   1.00
I52    I     0.07143   0.16724   0.12748   0.00000  Uiso   1.00
C53    C     0.08802   0.16440   0.37782   0.00000  Uiso   1.00
H54    H     0.06349   0.18799   0.38451   0.00000  Uiso   1.00
O55    O     0.08180   0.13659   0.34885   0.00000  Uiso   1.00
C56    C     0.24532   0.16893   0.12218   0.00000  Uiso   1.00
H57    H     0.26984   0.14535   0.11550   0.00000  Uiso   1.00
O58    O     0.25154   0.19674   0.15114   0.00000  Uiso   1.00
C59    C     0.22737   0.04771   0.30318   0.00000  Uiso   1.00
H60    H     0.22154   0.07875   0.31938   0.00000  Uiso   1.00
O61    O     0.26287   0.03301   0.30558   0.00000  Uiso   1.00
C62    C     0.10594   0.28562   0.19685   0.00000  Uiso   1.00
H63    H     0.11175   0.25453   0.18073   0.00000  Uiso   1.00
O64    O     0.07047   0.30037   0.19437   0.00000  Uiso   1.00
C65    C     0.11722   0.04887   0.18476   0.00000  Uiso   1.00
H66    H     0.10168   0.07980   0.19093   0.00000  Uiso   1.00
O67    O     0.11558   0.03479   0.14665   0.00000  Uiso   1.00
C68    C     0.21613   0.28447   0.31523   0.00000  Uiso   1.00
H69    H     0.23177   0.25361   0.30901   0.00000  Uiso   1.00
O70    O     0.21766   0.29847   0.35336   0.00000  Uiso   1.00
C71    C     0.42009   0.16661   0.25000   0.00000  Uiso   1.00
C72    C     0.57991   0.16673   0.24999   0.00000  Uiso   1.00
C73    C     0.42407   0.16526   0.02021   0.00000  Uiso   1.00
C74    C     0.57593   0.16807   0.47979   0.00000  Uiso   1.00
C75    C     0.35415   0.12679   0.24156   0.00000  Uiso   1.00
C76    C     0.64585   0.20655   0.25843   0.00000  Uiso   1.00
C77    C     0.64482   0.12691   0.24131   0.00000  Uiso   1.00
C78    C     0.35518   0.20642   0.25867   0.00000  Uiso   1.00
C79    C     0.62413   0.16677   0.24983   0.00000  Uiso   1.00
C80    C     0.37587   0.16656   0.25016   0.00000  Uiso   1.00
C81    C     0.52721   0.02370   0.27769   0.00000  Uiso   1.00
C82    C     0.47279   0.30963   0.22232   0.00000  Uiso   1.00
C83    C     0.47419   0.02429   0.22081   0.00000  Uiso   1.00
C84    C     0.52581   0.30905   0.27918   0.00000  Uiso   1.00
C85    C     0.49988   0.16702   0.16375   0.00000  Uiso   1.00
C86    C     0.50012   0.16632   0.33625   0.00000  Uiso   1.00
C87    C     0.53808   0.16610   0.40793   0.00000  Uiso   1.00
C88    C     0.46192   0.16723   0.09207   0.00000  Uiso   1.00
C89    C     0.49978   0.16533   0.38390   0.00000  Uiso   1.00
C90    C     0.50022   0.16800   0.11610   0.00000  Uiso   1.00
C91    C     0.46135   0.16504   0.40483   0.00000  Uiso   1.00
C92    C     0.53865   0.16829   0.09516   0.00000  Uiso   1.00
C93    C     0.46141   0.16575   0.45160   0.00000  Uiso   1.00
C94    C     0.53859   0.16758   0.04840   0.00000  Uiso   1.00
C95    C     0.49992   0.16652   0.47649   0.00000  Uiso   1.00
C96    C     0.50008   0.16681   0.02351   0.00000  Uiso   1.00
C97    C     0.53826   0.16684   0.45455   0.00000  Uiso   1.00
C98    C     0.46174   0.16649   0.04544   0.00000  Uiso   1.00
C99    C     0.42388   0.16468   0.47413   0.00000  Uiso   1.00
C100   C     0.57612   0.16865   0.02587   0.00000  Uiso   1.00
H101   H     0.39380   0.16306   0.45660   0.00000  Uiso   1.00
H102   H     0.60620   0.17027   0.04340   0.00000  Uiso   1.00
H103   H     0.39413   0.16451   0.03542   0.00000  Uiso   1.00
H104   H     0.60587   0.16882   0.46458   0.00000  Uiso   1.00
H105   H     0.36994   0.09581   0.23469   0.00000  Uiso   1.00
H106   H     0.63006   0.23753   0.26528   0.00000  Uiso   1.00
H107   H     0.62818   0.09600   0.23425   0.00000  Uiso   1.00
H108   H     0.37182   0.23734   0.26574   0.00000  Uiso   1.00
N109   N     0.50000   0.28573   0.25000   0.00000  Uiso   1.00
N110   N     0.50000   0.04760   0.25000   0.00000  Uiso   1.00
O111   O     0.43892   0.20487   0.24999   0.00000  Uiso   1.00
O112   O     0.56108   0.12846   0.25000   0.00000  Uiso   1.00
O113   O     0.56108   0.20487   0.25000   0.00000  Uiso   1.00
O114   O     0.43892   0.12846   0.24999   0.00000  Uiso   1.00
O115   O     0.49999   0.20489   0.18392   0.00000  Uiso   1.00
O116   O     0.50001   0.12844   0.31607   0.00000  Uiso   1.00
O117   O     0.50001   0.20489   0.31607   0.00000  Uiso   1.00
O118   O     0.49999   0.12844   0.18392   0.00000  Uiso   1.00
Zn119  Zn    0.50000   0.21771   0.25000   0.00000  Uiso   1.00
Zn120  Zn    0.50000   0.11563   0.25000   0.00000  Uiso   1.00
I121   I     0.59524   0.16610   0.37251   0.00000  Uiso   1.00
I122   I     0.40476   0.16724   0.12748   0.00000  Uiso   1.00
C123   C     0.42135   0.16440   0.37782   0.00000  Uiso   1.00
H124   H     0.39682   0.18799   0.38451   0.00000  Uiso   1.00
O125   O     0.41513   0.13659   0.34885   0.00000  Uiso   1.00
C126   C     0.57865   0.16893   0.12218   0.00000  Uiso   1.00
H127   H     0.60317   0.14535   0.11550   0.00000  Uiso   1.00
O128   O     0.58487   0.19674   0.15114   0.00000  Uiso   1.00
C129   C     0.56071   0.04771   0.30318   0.00000  Uiso   1.00
H130   H     0.55487   0.07875   0.31938   0.00000  Uiso   1.00
O131   O     0.59620   0.03301   0.30558   0.00000  Uiso   1.00
C132   C     0.43928   0.28562   0.19685   0.00000  Uiso   1.00
H133   H     0.44508   0.25453   0.18073   0.00000  Uiso   1.00
O134   O     0.40380   0.30037   0.19437   0.00000  Uiso   1.00
C135   C     0.45055   0.04887   0.18476   0.00000  Uiso   1.00
H136   H     0.43502   0.07980   0.19093   0.00000  Uiso   1.00
O137   O     0.44891   0.03479   0.14665   0.00000  Uiso   1.00
C138   C     0.54946   0.28447   0.31523   0.00000  Uiso   1.00
H139   H     0.56510   0.25361   0.30901   0.00000  Uiso   1.00
O140   O     0.55099   0.29847   0.35336   0.00000  Uiso   1.00
C141   C     0.75342   0.16661   0.25000   0.00000  Uiso   1.00
C142   C     0.91325   0.16673   0.24999   0.00000  Uiso   1.00
C143   C     0.75740   0.16526   0.02021   0.00000  Uiso   1.00
C144   C     0.90926   0.16807   0.47979   0.00000  Uiso   1.00
C145   C     0.68748   0.12679   0.24156   0.00000  Uiso   1.00
C146   C     0.97918   0.20655   0.25843   0.00000  Uiso   1.00
C147   C     0.97815   0.12691   0.24131   0.00000  Uiso   1.00
C148   C     0.68852   0.20642   0.25867   0.00000  Uiso   1.00
C149   C     0.95746   0.16677   0.24983   0.00000  Uiso   1.00
C150   C     0.70921   0.16656   0.25016   0.00000  Uiso   1.00
C151   C     0.86054   0.02370   0.27769   0.00000  Uiso   1.00
C152   C     0.80612   0.30963   0.22232   0.00000  Uiso   1.00
C153   C     0.80752   0.02429   0.22081   0.00000  Uiso   1.00
C154   C     0.85915   0.30905   0.27918   0.00000  Uiso   1.00
C155   C     0.83321   0.16702   0.16375   0.00000  Uiso   1.00
C156   C     0.83345   0.16632   0.33625   0.00000  Uiso   1.00
C157   C     0.87142   0.16610   0.40793   0.00000  Uiso   1.00
C158   C     0.79525   0.16723   0.09207   0.00000  Uiso   1.00
C159   C     0.83312   0.16533   0.38390   0.00000  Uiso   1.00
C160   C     0.83355   0.16800   0.11610   0.00000  Uiso   1.00
C161   C     0.79469   0.16504   0.40483   0.00000  Uiso   1.00
C162   C     0.87198   0.16829   0.09516   0.00000  Uiso   1.00
C163   C     0.79475   0.16575   0.45160   0.00000  Uiso   1.00
C164   C     0.87192   0.16758   0.04840   0.00000  Uiso   1.00
C165   C     0.83325   0.16652   0.47649   0.00000  Uiso   1.00
C166   C     0.83342   0.16681   0.02351   0.00000  Uiso   1.00
C167   C     0.87159   0.16684   0.45455   0.00000  Uiso   1.00
C168   C     0.79507   0.16649   0.04544   0.00000  Uiso   1.00
C169   C     0.75721   0.16468   0.47413   0.00000  Uiso   1.00
C170   C     0.90946   0.16865   0.02587   0.00000  Uiso   1.00
H171   H     0.72713   0.16306   0.45660   0.00000  Uiso   1.00
H172   H     0.93954   0.17027   0.04340   0.00000  Uiso   1.00
H173   H     0.72746   0.16451   0.03542   0.00000  Uiso   1.00
H174   H     0.93920   0.16882   0.46458   0.00000  Uiso   1.00
H175   H     0.70328   0.09581   0.23469   0.00000  Uiso   1.00
H176   H     0.96339   0.23753   0.26528   0.00000  Uiso   1.00
H177   H     0.96151   0.09600   0.23425   0.00000  Uiso   1.00
H178   H     0.70516   0.23734   0.26574   0.00000  Uiso   1.00
N179   N     0.83333   0.28573   0.25000   0.00000  Uiso   1.00
N180   N     0.83333   0.04760   0.25000   0.00000  Uiso   1.00
O181   O     0.77226   0.20487   0.24999   0.00000  Uiso   1.00
O182   O     0.89441   0.12846   0.25000   0.00000  Uiso   1.00
O183   O     0.89441   0.20487   0.25000   0.00000  Uiso   1.00
O184   O     0.77226   0.12846   0.24999   0.00000  Uiso   1.00
O185   O     0.83333   0.20489   0.18392   0.00000  Uiso   1.00
O186   O     0.83334   0.12844   0.31607   0.00000  Uiso   1.00
O187   O     0.83334   0.20489   0.31607   0.00000  Uiso   1.00
O188   O     0.83333   0.12844   0.18392   0.00000  Uiso   1.00
Zn189  Zn    0.83333   0.21771   0.25000   0.00000  Uiso   1.00
Zn190  Zn    0.83333   0.11563   0.25000   0.00000  Uiso   1.00
I191   I     0.92857   0.16610   0.37251   0.00000  Uiso   1.00
I192   I     0.73810   0.16724   0.12748   0.00000  Uiso   1.00
C193   C     0.75468   0.16440   0.37782   0.00000  Uiso   1.00
H194   H     0.73016   0.18799   0.38451   0.00000  Uiso   1.00
O195   O     0.74847   0.13659   0.34885   0.00000  Uiso   1.00
C196   C     0.91198   0.16893   0.12218   0.00000  Uiso   1.00
H197   H     0.93651   0.14535   0.11550   0.00000  Uiso   1.00
O198   O     0.91820   0.19674   0.15114   0.00000  Uiso   1.00
C199   C     0.89404   0.04771   0.30318   0.00000  Uiso   1.00
H200   H     0.88820   0.07875   0.31938   0.00000  Uiso   1.00
O201   O     0.92953   0.03301   0.30558   0.00000  Uiso   1.00
C202   C     0.77261   0.28562   0.19685   0.00000  Uiso   1.00
H203   H     0.77842   0.25453   0.18073   0.00000  Uiso   1.00
O204   O     0.73713   0.30037   0.19437   0.00000  Uiso   1.00
C205   C     0.78388   0.04887   0.18476   0.00000  Uiso   1.00
H206   H     0.76835   0.07980   0.19093   0.00000  Uiso   1.00
O207   O     0.78225   0.03479   0.14665   0.00000  Uiso   1.00
C208   C     0.88280   0.28447   0.31523   0.00000  Uiso   1.00
H209   H     0.89844   0.25361   0.30901   0.00000  Uiso   1.00
O210   O     0.88433   0.29847   0.35336   0.00000  Uiso   1.00
C211   C     0.08675   0.49994   0.25000   0.00000  Uiso   1.00
C212   C     0.24658   0.50006   0.24999   0.00000  Uiso   1.00
C213   C     0.09074   0.49859   0.02021   0.00000  Uiso   1.00
C214   C     0.24260   0.50141   0.47979   0.00000  Uiso   1.00
C215   C     0.02082   0.46012   0.24156   0.00000  Uiso   1.00
C216   C     0.31252   0.53988   0.25843   0.00000  Uiso   1.00
C217   C     0.31148   0.46024   0.24131   0.00000  Uiso   1.00
C218   C     0.02185   0.53976   0.25867   0.00000  Uiso   1.00
C219   C     0.29079   0.50011   0.24983   0.00000  Uiso   1.00
C220   C     0.04254   0.49990   0.25016   0.00000  Uiso   1.00
C221   C     0.19387   0.35704   0.27769   0.00000  Uiso   1.00
C222   C     0.13946   0.64296   0.22232   0.00000  Uiso   1.00
C223   C     0.14086   0.35762   0.22081   0.00000  Uiso   1.00
C224   C     0.19248   0.64238   0.27918   0.00000  Uiso   1.00
C225   C     0.16655   0.50035   0.16375   0.00000  Uiso   1.00
C226   C     0.16679   0.49965   0.33625   0.00000  Uiso   1.00
C227   C     0.20475   0.49943   0.40793   0.00000  Uiso   1.00
C228   C     0.12858   0.50057   0.09207   0.00000  Uiso   1.00
C229   C     0.16645   0.49866   0.38390   0.00000  Uiso   1.00
C230   C     0.16688   0.50134   0.11610   0.00000  Uiso   1.00
C231   C     0.12802   0.49837   0.40483   0.00000  Uiso   1.00
C232   C     0.20531   0.50163   0.09516   0.00000  Uiso   1.00
C233   C     0.12808   0.49908   0.45160   0.00000  Uiso   1.00
C234   C     0.20525   0.50092   0.04840   0.00000  Uiso   1.00
C235   C     0.16658   0.49986   0.47649   0.00000  Uiso   1.00
C236   C     0.16675   0.50014   0.02351   0.00000  Uiso   1.00
C237   C     0.20493   0.50017   0.45455   0.00000  Uiso   1.00
C238   C     0.12841   0.49983   0.04544   0.00000  Uiso   1.00
C239   C     0.09054   0.49801   0.47413   0.00000  Uiso   1.00
C240   C     0.24279   0.50198   0.02587   0.00000  Uiso   1.00
H241   H     0.06046   0.49640   0.45660   0.00000  Uiso   1.00
H242   H     0.27287   0.50360   0.04340   0.00000  Uiso   1.00
H243   H     0.06080   0.49784   0.03542   0.00000  Uiso   1.00
H244   H     0.27253   0.50216   0.46458   0.00000  Uiso   1.00
H245   H     0.03661   0.42914   0.23469   0.00000  Uiso   1.00
H246   H     0.29672   0.57086   0.26528   0.00000  Uiso   1.00
H247   H     0.29484   0.42933   0.23425   0.00000  Uiso   1.00
H248   H     0.03849   0.57067   0.26574   0.00000  Uiso   1.00
N249   N     0.16667   0.61907   0.25000   0.00000  Uiso   1.00
N250   N     0.16667   0.38093   0.25000   0.00000  Uiso   1.00
O251   O     0.10559   0.53821   0.24999   0.00000  Uiso   1.00
O252   O     0.22774   0.46179   0.25000   0.00000  Uiso   1.00
O253   O     0.22774   0.53821   0.25000   0.00000  Uiso   1.00
O254   O     0.10559   0.46179   0.24999   0.00000  Uiso   1.00
O255   O     0.16666   0.53823   0.18392   0.00000  Uiso   1.00
O256   O     0.16667   0.46177   0.31607   0.00000  Uiso   1.00
O257   O     0.16667   0.53823   0.31607   0.00000  Uiso   1.00
O258   O     0.16666   0.46177   0.18392   0.00000  Uiso   1.00
Zn259  Zn    0.16667   0.55104   0.25000   0.00000  Uiso   1.00
Zn260  Zn    0.16667   0.44896   0.25000   0.00000  Uiso   1.00
I261   I     0.26190   0.49944   0.37251   0.00000  Uiso   1.00
I262   I     0.07143   0.50057   0.12748   0.00000  Uiso   1.00
C263   C     0.08802   0.49774   0.37782   0.00000  Uiso   1.00
H264   H     0.06349   0.52132   0.38451   0.00000  Uiso   1.00
O265   O     0.08180   0.46993   0.34885   0.00000  Uiso   1.00
C266   C     0.24532   0.50226   0.12218   0.00000  Uiso   1.00
H267   H     0.26984   0.47868   0.11550   0.00000  Uiso   1.00
O268   O     0.25154   0.53008   0.15114   0.00000  Uiso   1.00
C269   C     0.22737   0.38104   0.30318   0.00000  Uiso   1.00
H270   H     0.22154   0.41208   0.31938   0.00000  Uiso   1.00
O271   O     0.26287   0.36634   0.30558   0.00000  Uiso   1.00
C272   C     0.10594   0.61896   0.19685   0.00000  Uiso   1.00
H273   H     0.11175   0.58786   0.18073   0.00000  Uiso   1.00
O274   O     0.07047   0.63371   0.19437   0.00000  Uiso   1.00
C275   C     0.11722   0.38220   0.18476   0.00000  Uiso   1.00
H276   H     0.10168   0.41313   0.19093   0.00000  Uiso   1.00
O277   O     0.11558   0.36812   0.14665   0.00000  Uiso   1.00
C278   C     0.21613   0.61780   0.31523   0.00000  Uiso   1.00
H279   H     0.23177   0.58695   0.30901   0.00000  Uiso   1.00
O280   O     0.21766   0.63180   0.35336   0.00000  Uiso   1.00
C281   C     0.42009   0.49994   0.25000   0.00000  Uiso   1.00
C282   C     0.57991   0.50006   0.24999   0.00000  Uiso   1.00
C283   C     0.42407   0.49859   0.02021   0.00000  Uiso   1.00
C284   C     0.57593   0.50141   0.47979   0.00000  Uiso   1.00
C285   C     0.35415   0.46012   0.24156   0.00000  Uiso   1.00
C286   C     0.64585   0.53988   0.25843   0.00000  Uiso   1.00
C287   C     0.64482   0.46024   0.24131   0.00000  Uiso   1.00
C288   C     0.35518   0.53976   0.25867   0.00000  Uiso   1.00
C289   C     0.62413   0.50011   0.24983   0.00000  Uiso   1.00
C290   C     0.37587   0.49990   0.25016   0.00000  Uiso   1.00
C291   C     0.52721   0.35704   0.27769   0.00000  Uiso   1.00
C292   C     0.47279   0.64296   0.22232   0.00000  Uiso   1.00
C293   C     0.47419   0.35762   0.22081   0.00000  Uiso   1.00
C294   C     0.52581   0.64238   0.27918   0.00000  Uiso   1.00
C295   C     0.49988   0.50035   0.16375   0.00000  Uiso   1.00
C296   C     0.50012   0.49965   0.33625   0.00000  Uiso   1.00
C297   C     0.53808   0.49943   0.40793   0.00000  Uiso   1.00
C298   C     0.46192   0.50057   0.09207   0.00000  Uiso   1.00
C299   C     0.49978   0.49866   0.38390   0.00000  Uiso   1.00
C300   C     0.50022   0.50134   0.11610   0.00000  Uiso   1.00
C301   C     0.46135   0.49837   0.40483   0.00000  Uiso   1.00
C302   C     0.53865   0.50163   0.09516   0.00000  Uiso   1.00
C303   C     0.46141   0.49908   0.45160   0.00000  Uiso   1.00
C304   C     0.53859   0.50092   0.04840   0.00000  Uiso   1.00
C305   C     0.49992   0.49986   0.47649   0.00000  Uiso   1.00
C306   C     0.50008   0.50014   0.02351   0.00000  Uiso   1.00
C307   C     0.53826   0.50017   0.45455   0.00000  Uiso   1.00
C308   C     0.46174   0.49983   0.04544   0.00000  Uiso   1.00
C309   C     0.42388   0.49801   0.47413   0.00000  Uiso   1.00
C310   C     0.57612   0.50198   0.02587   0.00000  Uiso   1.00
H311   H     0.39380   0.49640   0.45660   0.00000  Uiso   1.00
H312   H     0.60620   0.50360   0.04340   0.00000  Uiso   1.00
H313   H     0.39413   0.49784   0.03542   0.00000  Uiso   1.00
H314   H     0.60587   0.50216   0.46458   0.00000  Uiso   1.00
H315   H     0.36994   0.42914   0.23469   0.00000  Uiso   1.00
H316   H     0.63006   0.57086   0.26528   0.00000  Uiso   1.00
H317   H     0.62818   0.42933   0.23425   0.00000  Uiso   1.00
H318   H     0.37182   0.57067   0.26574   0.00000  Uiso   1.00
N319   N     0.50000   0.61907   0.25000   0.00000  Uiso   1.00
N320   N     0.50000   0.38093   0.25000   0.00000  Uiso   1.00
O321   O     0.43892   0.53821   0.24999   0.00000  Uiso   1.00
O322   O     0.56108   0.46179   0.25000   0.00000  Uiso   1.00
O323   O     0.56108   0.53821   0.25000   0.00000  Uiso   1.00
O324   O     0.43892   0.46179   0.24999   0.00000  Uiso   1.00
O325   O     0.49999   0.53823   0.18392   0.00000  Uiso   1.00
O326   O     0.50001   0.46177   0.31607   0.00000  Uiso   1.00
O327   O     0.50001   0.53823   0.31607   0.00000  Uiso   1.00
O328   O     0.49999   0.46177   0.18392   0.00000  Uiso   1.00
Zn329  Zn    0.50000   0.55104   0.25000   0.00000  Uiso   1.00
Zn330  Zn    0.50000   0.44896   0.25000   0.00000  Uiso   1.00
I331   I     0.59524   0.49944   0.37251   0.00000  Uiso   1.00
I332   I     0.40476   0.50057   0.12748   0.00000  Uiso   1.00
C333   C     0.42135   0.49774   0.37782   0.00000  Uiso   1.00
H334   H     0.39682   0.52132   0.38451   0.00000  Uiso   1.00
O335   O     0.41513   0.46993   0.34885   0.00000  Uiso   1.00
C336   C     0.57865   0.50226   0.12218   0.00000  Uiso   1.00
H337   H     0.60317   0.47868   0.11550   0.00000  Uiso   1.00
O338   O     0.58487   0.53008   0.15114   0.00000  Uiso   1.00
C339   C     0.56071   0.38104   0.30318   0.00000  Uiso   1.00
H340   H     0.55487   0.41208   0.31938   0.00000  Uiso   1.00
O341   O     0.59620   0.36634   0.30558   0.00000  Uiso   1.00
C342   C     0.43928   0.61896   0.19685   0.00000  Uiso   1.00
H343   H     0.44508   0.58786   0.18073   0.00000  Uiso   1.00
O344   O     0.40380   0.63371   0.19437   0.00000  Uiso   1.00
C345   C     0.45055   0.38220   0.18476   0.00000  Uiso   1.00
H346   H     0.43502   0.41313   0.19093   0.00000  Uiso   1.00
O347   O     0.44891   0.36812   0.14665   0.00000  Uiso   1.00
C348   C     0.54946   0.61780   0.31523   0.00000  Uiso   1.00
H349   H     0.56510   0.58695   0.30901   0.00000  Uiso   1.00
O350   O     0.55099   0.63180   0.35336   0.00000  Uiso   1.00
C351   C     0.75342   0.49994   0.25000   0.00000  Uiso   1.00
C352   C     0.91325   0.50006   0.24999   0.00000  Uiso   1.00
C353   C     0.75740   0.49859   0.02021   0.00000  Uiso   1.00
C354   C     0.90926   0.50141   0.47979   0.00000  Uiso   1.00
C355   C     0.68748   0.46012   0.24156   0.00000  Uiso   1.00
C356   C     0.97918   0.53988   0.25843   0.00000  Uiso   1.00
C357   C     0.97815   0.46024   0.24131   0.00000  Uiso   1.00
C358   C     0.68852   0.53976   0.25867   0.00000  Uiso   1.00
C359   C     0.95746   0.50011   0.24983   0.00000  Uiso   1.00
C360   C     0.70921   0.49990   0.25016   0.00000  Uiso   1.00
C361   C     0.86054   0.35704   0.27769   0.00000  Uiso   1.00
C362   C     0.80612   0.64296   0.22232   0.00000  Uiso   1.00
C363   C     0.80752   0.35762   0.22081   0.00000  Uiso   1.00
C364   C     0.85915   0.64238   0.27918   0.00000  Uiso   1.00
C365   C     0.83321   0.50035   0.16375   0.00000  Uiso   1.00
C366   C     0.83345   0.49965   0.33625   0.00000  Uiso   1.00
C367   C     0.87142   0.49943   0.40793   0.00000  Uiso   1.00
C368   C     0.79525   0.50057   0.09207   0.00000  Uiso   1.00
C369   C     0.83312   0.49866   0.38390   0.00000  Uiso   1.00
C370   C     0.83355   0.50134   0.11610   0.00000  Uiso   1.00
C371   C     0.79469   0.49837   0.40483   0.00000  Uiso   1.00
C372   C     0.87198   0.50163   0.09516   0.00000  Uiso   1.00
C373   C     0.79475   0.49908   0.45160   0.00000  Uiso   1.00
C374   C     0.87192   0.50092   0.04840   0.00000  Uiso   1.00
C375   C     0.83325   0.49986   0.47649   0.00000  Uiso   1.00
C376   C     0.83342   0.50014   0.02351   0.00000  Uiso   1.00
C377   C     0.87159   0.50017   0.45455   0.00000  Uiso   1.00
C378   C     0.79507   0.49983   0.04544   0.00000  Uiso   1.00
C379   C     0.75721   0.49801   0.47413   0.00000  Uiso   1.00
C380   C     0.90946   0.50198   0.02587   0.00000  Uiso   1.00
H381   H     0.72713   0.49640   0.45660   0.00000  Uiso   1.00
H382   H     0.93954   0.50360   0.04340   0.00000  Uiso   1.00
H383   H     0.72746   0.49784   0.03542   0.00000  Uiso   1.00
H384   H     0.93920   0.50216   0.46458   0.00000  Uiso   1.00
H385   H     0.70328   0.42914   0.23469   0.00000  Uiso   1.00
H386   H     0.96339   0.57086   0.26528   0.00000  Uiso   1.00
H387   H     0.96151   0.42933   0.23425   0.00000  Uiso   1.00
H388   H     0.70516   0.57067   0.26574   0.00000  Uiso   1.00
N389   N     0.83333   0.61907   0.25000   0.00000  Uiso   1.00
N390   N     0.83333   0.38093   0.25000   0.00000  Uiso   1.00
O391   O     0.77226   0.53821   0.24999   0.00000  Uiso   1.00
O392   O     0.89441   0.46179   0.25000   0.00000  Uiso   1.00
O393   O     0.89441   0.53821   0.25000   0.00000  Uiso   1.00
O394   O     0.77226   0.46179   0.24999   0.00000  Uiso   1.00
O395   O     0.83333   0.53823   0.18392   0.00000  Uiso   1.00
O396   O     0.83334   0.46177   0.31607   0.00000  Uiso   1.00
O397   O     0.83334   0.53823   0.31607   0.00000  Uiso   1.00
O398   O     0.83333   0.46177   0.18392   0.00000  Uiso   1.00
Zn399  Zn    0.83333   0.55104   0.25000   0.00000  Uiso   1.00
Zn400  Zn    0.83333   0.44896   0.25000   0.00000  Uiso   1.00
I401   I     0.92857   0.49944   0.37251   0.00000  Uiso   1.00
I402   I     0.73810   0.50057   0.12748   0.00000  Uiso   1.00
C403   C     0.75468   0.49774   0.37782   0.00000  Uiso   1.00
H404   H     0.73016   0.52132   0.38451   0.00000  Uiso   1.00
O405   O     0.74847   0.46993   0.34885   0.00000  Uiso   1.00
C406   C     0.91198   0.50226   0.12218   0.00000  Uiso   1.00
H407   H     0.93651   0.47868   0.11550   0.00000  Uiso   1.00
O408   O     0.91820   0.53008   0.15114   0.00000  Uiso   1.00
C409   C     0.89404   0.38104   0.30318   0.00000  Uiso   1.00
H410   H     0.88820   0.41208   0.31938   0.00000  Uiso   1.00
O411   O     0.92953   0.36634   0.30558   0.00000  Uiso   1.00
C412   C     0.77261   0.61896   0.19685   0.00000  Uiso   1.00
H413   H     0.77842   0.58786   0.18073   0.00000  Uiso   1.00
O414   O     0.73713   0.63371   0.19437   0.00000  Uiso   1.00
C415   C     0.78388   0.38220   0.18476   0.00000  Uiso   1.00
H416   H     0.76835   0.41313   0.19093   0.00000  Uiso   1.00
O417   O     0.78225   0.36812   0.14665   0.00000  Uiso   1.00
C418   C     0.88280   0.61780   0.31523   0.00000  Uiso   1.00
H419   H     0.89844   0.58695   0.30901   0.00000  Uiso   1.00
O420   O     0.88433   0.63180   0.35336   0.00000  Uiso   1.00
C421   C     0.08675   0.83327   0.25000   0.00000  Uiso   1.00
C422   C     0.24658   0.83339   0.24999   0.00000  Uiso   1.00
C423   C     0.09074   0.83192   0.02021   0.00000  Uiso   1.00
C424   C     0.24260   0.83474   0.47979   0.00000  Uiso   1.00
C425   C     0.02082   0.79346   0.24156   0.00000  Uiso   1.00
C426   C     0.31252   0.87321   0.25843   0.00000  Uiso   1.00
C427   C     0.31148   0.79358   0.24131   0.00000  Uiso   1.00
C428   C     0.02185   0.87309   0.25867   0.00000  Uiso   1.00
C429   C     0.29079   0.83344   0.24983   0.00000  Uiso   1.00
C430   C     0.04254   0.83323   0.25016   0.00000  Uiso   1.00
C431   C     0.19387   0.69037   0.27769   0.00000  Uiso   1.00
C432   C     0.13946   0.97630   0.22232   0.00000  Uiso   1.00
C433   C     0.14086   0.69095   0.22081   0.00000  Uiso   1.00
C434   C     0.19248   0.97571   0.27918   0.00000  Uiso   1.00
C435   C     0.16655   0.83368   0.16375   0.00000  Uiso   1.00
C436   C     0.16679   0.83298   0.33625   0.00000  Uiso   1.00
C437   C     0.20475   0.83277   0.40793   0.00000  Uiso   1.00
C438   C     0.12858   0.83390   0.09207   0.00000  Uiso   1.00
C439   C     0.16645   0.83200   0.38390   0.00000  Uiso   1.00
C440   C     0.16688   0.83467   0.11610   0.00000  Uiso   1.00
C441   C     0.12802   0.83170   0.40483   0.00000  Uiso   1.00
C442   C     0.20531   0.83496   0.09516   0.00000  Uiso   1.00
C443   C     0.12808   0.83242   0.45160   0.00000  Uiso   1.00
C444   C     0.20525   0.83425   0.04840   0.00000  Uiso   1.00
C445   C     0.16658   0.83319   0.47649   0.00000  Uiso   1.00
C446   C     0.16675   0.83347   0.02351   0.00000  Uiso   1.00
C447   C     0.20493   0.83350   0.45455   0.00000  Uiso   1.00
C448   C     0.12841   0.83316   0.04544   0.00000  Uiso   1.00
C449   C     0.09054   0.83135   0.47413   0.00000  Uiso   1.00
C450   C     0.24279   0.83532   0.02587   0.00000  Uiso   1.00
H451   H     0.06046   0.82973   0.45660   0.00000  Uiso   1.00
H452   H     0.27287   0.83693   0.04340   0.00000  Uiso   1.00
H453   H     0.06080   0.83117   0.03542   0.00000  Uiso   1.00
H454   H     0.27253   0.83549   0.46458   0.00000  Uiso   1.00
H455   H     0.03661   0.76247   0.23469   0.00000  Uiso   1.00
H456   H     0.29672   0.90420   0.26528   0.00000  Uiso   1.00
H457   H     0.29484   0.76267   0.23425   0.00000  Uiso   1.00
H458   H     0.03849   0.90400   0.26574   0.00000  Uiso   1.00
N459   N     0.16667   0.95240   0.25000   0.00000  Uiso   1.00
N460   N     0.16667   0.71427   0.25000   0.00000  Uiso   1.00
O461   O     0.10559   0.87154   0.24999   0.00000  Uiso   1.00
O462   O     0.22774   0.79513   0.25000   0.00000  Uiso   1.00
O463   O     0.22774   0.87154   0.25000   0.00000  Uiso   1.00
O464   O     0.10559   0.79513   0.24999   0.00000  Uiso   1.00
O465   O     0.16666   0.87156   0.18392   0.00000  Uiso   1.00
O466   O     0.16667   0.79511   0.31607   0.00000  Uiso   1.00
O467   O     0.16667   0.87156   0.31607   0.00000  Uiso   1.00
O468   O     0.16666   0.79511   0.18392   0.00000  Uiso   1.00
Zn469  Zn    0.16667   0.88437   0.25000   0.00000  Uiso   1.00
Zn470  Zn    0.16667   0.78229   0.25000   0.00000  Uiso   1.00
I471   I     0.26190   0.83277   0.37251   0.00000  Uiso   1.00
I472   I     0.07143   0.83390   0.12748   0.00000  Uiso   1.00
C473   C     0.08802   0.83107   0.37782   0.00000  Uiso   1.00
H474   H     0.06349   0.85465   0.38451   0.00000  Uiso   1.00
O475   O     0.08180   0.80326   0.34885   0.00000  Uiso   1.00
C476   C     0.24532   0.83560   0.12218   0.00000  Uiso   1.00
H477   H     0.26984   0.81201   0.11550   0.00000  Uiso   1.00
O478   O     0.25154   0.86341   0.15114   0.00000  Uiso   1.00
C479   C     0.22737   0.71437   0.30318   0.00000  Uiso   1.00
H480   H     0.22154   0.74541   0.31938   0.00000  Uiso   1.00
O481   O     0.26287   0.69968   0.30558   0.00000  Uiso   1.00
C482   C     0.10594   0.95229   0.19685   0.00000  Uiso   1.00
H483   H     0.11175   0.92119   0.18073   0.00000  Uiso   1.00
O484   O     0.07047   0.96704   0.19437   0.00000  Uiso   1.00
C485   C     0.11722   0.71554   0.18476   0.00000  Uiso   1.00
H486   H     0.10168   0.74647   0.19093   0.00000  Uiso   1.00
O487   O     0.11558   0.70146   0.14665   0.00000  Uiso   1.00
C488   C     0.21613   0.95113   0.31523   0.00000  Uiso   1.00
H489   H     0.23177   0.92028   0.30901   0.00000  Uiso   1.00
O490   O     0.21766   0.96514   0.35336   0.00000  Uiso   1.00
C491   C     0.42009   0.83327   0.25000   0.00000  Uiso   1.00
C492   C     0.57991   0.83339   0.24999   0.00000  Uiso   1.00
C493   C     0.42407   0.83192   0.02021   0.00000  Uiso   1.00
C494   C     0.57593   0.83474   0.47979   0.00000  Uiso   1.00
C495   C     0.35415   0.79346   0.24156   0.00000  Uiso   1.00
C496   C     0.64585   0.87321   0.25843   0.00000  Uiso   1.00
C497   C     0.64482   0.79358   0.24131   0.00000  Uiso   1.00
C498   C     0.35518   0.87309   0.25867   0.00000  Uiso   1.00
C499   C     0.62413   0.83344   0.24983   0.00000  Uiso   1.00
C500   C     0.37587   0.83323   0.25016   0.00000  Uiso   1.00
C501   C     0.52721   0.69037   0.27769   0.00000  Uiso   1.00
C502   C     0.47279   0.97630   0.22232   0.00000  Uiso   1.00
C503   C     0.47419   0.69095   0.22081   0.00000  Uiso   1.00
C504   C     0.52581   0.97571   0.27918   0.00000  Uiso   1.00
C505   C     0.49988   0.83368   0.16375   0.00000  Uiso   1.00
C506   C     0.50012   0.83298   0.33625   0.00000  Uiso   1.00
C507   C     0.53808   0.83277   0.40793   0.00000  Uiso   1.00
C508   C     0.46192   0.83390   0.09207   0.00000  Uiso   1.00
C509   C     0.49978   0.83200   0.38390   0.00000  Uiso   1.00
C510   C     0.50022   0.83467   0.11610   0.00000  Uiso   1.00
C511   C     0.46135   0.83170   0.40483   0.00000  Uiso   1.00
C512   C     0.53865   0.83496   0.09516   0.00000  Uiso   1.00
C513   C     0.46141   0.83242   0.45160   0.00000  Uiso   1.00
C514   C     0.53859   0.83425   0.04840   0.00000  Uiso   1.00
C515   C     0.49992   0.83319   0.47649   0.00000  Uiso   1.00
C516   C     0.50008   0.83347   0.02351   0.00000  Uiso   1.00
C517   C     0.53826   0.83350   0.45455   0.00000  Uiso   1.00
C518   C     0.46174   0.83316   0.04544   0.00000  Uiso   1.00
C519   C     0.42388   0.83135   0.47413   0.00000  Uiso   1.00
C520   C     0.57612   0.83532   0.02587   0.00000  Uiso   1.00
H521   H     0.39380   0.82973   0.45660   0.00000  Uiso   1.00
H522   H     0.60620   0.83693   0.04340   0.00000  Uiso   1.00
H523   H     0.39413   0.83117   0.03542   0.00000  Uiso   1.00
H524   H     0.60587   0.83549   0.46458   0.00000  Uiso   1.00
H525   H     0.36994   0.76247   0.23469   0.00000  Uiso   1.00
H526   H     0.63006   0.90420   0.26528   0.00000  Uiso   1.00
H527   H     0.62818   0.76267   0.23425   0.00000  Uiso   1.00
H528   H     0.37182   0.90400   0.26574   0.00000  Uiso   1.00
N529   N     0.50000   0.95240   0.25000   0.00000  Uiso   1.00
N530   N     0.50000   0.71427   0.25000   0.00000  Uiso   1.00
O531   O     0.43892   0.87154   0.24999   0.00000  Uiso   1.00
O532   O     0.56108   0.79513   0.25000   0.00000  Uiso   1.00
O533   O     0.56108   0.87154   0.25000   0.00000  Uiso   1.00
O534   O     0.43892   0.79513   0.24999   0.00000  Uiso   1.00
O535   O     0.49999   0.87156   0.18392   0.00000  Uiso   1.00
O536   O     0.50001   0.79511   0.31607   0.00000  Uiso   1.00
O537   O     0.50001   0.87156   0.31607   0.00000  Uiso   1.00
O538   O     0.49999   0.79511   0.18392   0.00000  Uiso   1.00
Zn539  Zn    0.50000   0.88437   0.25000   0.00000  Uiso   1.00
Zn540  Zn    0.50000   0.78229   0.25000   0.00000  Uiso   1.00
I541   I     0.59524   0.83277   0.37251   0.00000  Uiso   1.00
I542   I     0.40476   0.83390   0.12748   0.00000  Uiso   1.00
C543   C     0.42135   0.83107   0.37782   0.00000  Uiso   1.00
H544   H     0.39682   0.85465   0.38451   0.00000  Uiso   1.00
O545   O     0.41513   0.80326   0.34885   0.00000  Uiso   1.00
C546   C     0.57865   0.83560   0.12218   0.00000  Uiso   1.00
H547   H     0.60317   0.81201   0.11550   0.00000  Uiso   1.00
O548   O     0.58487   0.86341   0.15114   0.00000  Uiso   1.00
C549   C     0.56071   0.71437   0.30318   0.00000  Uiso   1.00
H550   H     0.55487   0.74541   0.31938   0.00000  Uiso   1.00
O551   O     0.59620   0.69968   0.30558   0.00000  Uiso   1.00
C552   C     0.43928   0.95229   0.19685   0.00000  Uiso   1.00
H553   H     0.44508   0.92119   0.18073   0.00000  Uiso   1.00
O554   O     0.40380   0.96704   0.19437   0.00000  Uiso   1.00
C555   C     0.45055   0.71554   0.18476   0.00000  Uiso   1.00
H556   H     0.43502   0.74647   0.19093   0.00000  Uiso   1.00
O557   O     0.44891   0.70146   0.14665   0.00000  Uiso   1.00
C558   C     0.54946   0.95113   0.31523   0.00000  Uiso   1.00
H559   H     0.56510   0.92028   0.30901   0.00000  Uiso   1.00
O560   O     0.55099   0.96514   0.35336   0.00000  Uiso   1.00
C561   C     0.75342   0.83327   0.25000   0.00000  Uiso   1.00
C562   C     0.91325   0.83339   0.24999   0.00000  Uiso   1.00
C563   C     0.75740   0.83192   0.02021   0.00000  Uiso   1.00
C564   C     0.90926   0.83474   0.47979   0.00000  Uiso   1.00
C565   C     0.68748   0.79346   0.24156   0.00000  Uiso   1.00
C566   C     0.97918   0.87321   0.25843   0.00000  Uiso   1.00
C567   C     0.97815   0.79358   0.24131   0.00000  Uiso   1.00
C568   C     0.68852   0.87309   0.25867   0.00000  Uiso   1.00
C569   C     0.95746   0.83344   0.24983   0.00000  Uiso   1.00
C570   C     0.70921   0.83323   0.25016   0.00000  Uiso   1.00
C571   C     0.86054   0.69037   0.27769   0.00000  Uiso   1.00
C572   C     0.80612   0.97630   0.22232   0.00000  Uiso   1.00
C573   C     0.80752   0.69095   0.22081   0.00000  Uiso   1.00
C574   C     0.85915   0.97571   0.27918   0.00000  Uiso   1.00
C575   C     0.83321   0.83368   0.16375   0.00000  Uiso   1.00
C576   C     0.83345   0.83298   0.33625   0.00000  Uiso   1.00
C577   C     0.87142   0.83277   0.40793   0.00000  Uiso   1.00
C578   C     0.79525   0.83390   0.09207   0.00000  Uiso   1.00
C579   C     0.83312   0.83200   0.38390   0.00000  Uiso   1.00
C580   C     0.83355   0.83467   0.11610   0.00000  Uiso   1.00
C581   C     0.79469   0.83170   0.40483   0.00000  Uiso   1.00
C582   C     0.87198   0.83496   0.09516   0.00000  Uiso   1.00
C583   C     0.79475   0.83242   0.45160   0.00000  Uiso   1.00
C584   C     0.87192   0.83425   0.04840   0.00000  Uiso   1.00
C585   C     0.83325   0.83319   0.47649   0.00000  Uiso   1.00
C586   C     0.83342   0.83347   0.02351   0.00000  Uiso   1.00
C587   C     0.87159   0.83350   0.45455   0.00000  Uiso   1.00
C588   C     0.79507   0.83316   0.04544   0.00000  Uiso   1.00
C589   C     0.75721   0.83135   0.47413   0.00000  Uiso   1.00
C590   C     0.90946   0.83532   0.02587   0.00000  Uiso   1.00
H591   H     0.72713   0.82973   0.45660   0.00000  Uiso   1.00
H592   H     0.93954   0.83693   0.04340   0.00000  Uiso   1.00
H593   H     0.72746   0.83117   0.03542   0.00000  Uiso   1.00
H594   H     0.93920   0.83549   0.46458   0.00000  Uiso   1.00
H595   H     0.70328   0.76247   0.23469   0.00000  Uiso   1.00
H596   H     0.96339   0.90420   0.26528   0.00000  Uiso   1.00
H597   H     0.96151   0.76267   0.23425   0.00000  Uiso   1.00
H598   H     0.70516   0.90400   0.26574   0.00000  Uiso   1.00
N599   N     0.83333   0.95240   0.25000   0.00000  Uiso   1.00
N600   N     0.83333   0.71427   0.25000   0.00000  Uiso   1.00
O601   O     0.77226   0.87154   0.24999   0.00000  Uiso   1.00
O602   O     0.89441   0.79513   0.25000   0.00000  Uiso   1.00
O603   O     0.89441   0.87154   0.25000   0.00000  Uiso   1.00
O604   O     0.77226   0.79513   0.24999   0.00000  Uiso   1.00
O605   O     0.83333   0.87156   0.18392   0.00000  Uiso   1.00
O606   O     0.83334   0.79511   0.31607   0.00000  Uiso   1.00
O607   O     0.83334   0.87156   0.31607   0.00000  Uiso   1.00
O608   O     0.83333   0.79511   0.18392   0.00000  Uiso   1.00
Zn609  Zn    0.83333   0.88437   0.25000   0.00000  Uiso   1.00
Zn610  Zn    0.83333   0.78229   0.25000   0.00000  Uiso   1.00
I611   I     0.92857   0.83277   0.37251   0.00000  Uiso   1.00
I612   I     0.73810   0.83390   0.12748   0.00000  Uiso   1.00
C613   C     0.75468   0.83107   0.37782   0.00000  Uiso   1.00
H614   H     0.73016   0.85465   0.38451   0.00000  Uiso   1.00
O615   O     0.74847   0.80326   0.34885   0.00000  Uiso   1.00
C616   C     0.91198   0.83560   0.12218   0.00000  Uiso   1.00
H617   H     0.93651   0.81201   0.11550   0.00000  Uiso   1.00
O618   O     0.91820   0.86341   0.15114   0.00000  Uiso   1.00
C619   C     0.89404   0.71437   0.30318   0.00000  Uiso   1.00
H620   H     0.88820   0.74541   0.31938   0.00000  Uiso   1.00
O621   O     0.92953   0.69968   0.30558   0.00000  Uiso   1.00
C622   C     0.77261   0.95229   0.19685   0.00000  Uiso   1.00
H623   H     0.77842   0.92119   0.18073   0.00000  Uiso   1.00
O624   O     0.73713   0.96704   0.19437   0.00000  Uiso   1.00
C625   C     0.78388   0.71554   0.18476   0.00000  Uiso   1.00
H626   H     0.76835   0.74647   0.19093   0.00000  Uiso   1.00
O627   O     0.78225   0.70146   0.14665   0.00000  Uiso   1.00
C628   C     0.88280   0.95113   0.31523   0.00000  Uiso   1.00
H629   H     0.89844   0.92028   0.30901   0.00000  Uiso   1.00
O630   O     0.88433   0.96514   0.35336   0.00000  Uiso   1.00
C631   C     0.08675   0.16661   0.75000   0.00000  Uiso   1.00
C632   C     0.24658   0.16673   0.74999   0.00000  Uiso   1.00
C633   C     0.09074   0.16526   0.52021   0.00000  Uiso   1.00
C634   C     0.24260   0.16807   0.97979   0.00000  Uiso   1.00
C635   C     0.02082   0.12679   0.74156   0.00000  Uiso   1.00
C636   C     0.31252   0.20655   0.75843   0.00000  Uiso   1.00
C637   C     0.31148   0.12691   0.74131   0.00000  Uiso   1.00
C638   C     0.02185   0.20642   0.75867   0.00000  Uiso   1.00
C639   C     0.29079   0.16677   0.74983   0.00000  Uiso   1.00
C640   C     0.04254   0.16656   0.75016   0.00000  Uiso   1.00
C641   C     0.19387   0.02370   0.77769   0.00000  Uiso   1.00
C642   C     0.13946   0.30963   0.72232   0.00000  Uiso   1.00
C643   C     0.14086   0.02429   0.72081   0.00000  Uiso   1.00
C644   C     0.19248   0.30905   0.77918   0.00000  Uiso   1.00
C645   C     0.16655   0.16702   0.66375   0.00000  Uiso   1.00
C646   C     0.16679   0.16632   0.83625   0.00000  Uiso   1.00
C647   C     0.20475   0.16610   0.90793   0.00000  Uiso   1.00
C648   C     0.12858   0.16723   0.59207   0.00000  Uiso   1.00
C649   C     0.16645   0.16533   0.88390   0.00000  Uiso   1.00
C650   C     0.16688   0.16800   0.61610   0.00000  Uiso   1.00
C651   C     0.12802   0.16504   0.90483   0.00000  Uiso   1.00
C652   C     0.20531   0.16829   0.59516   0.00000  Uiso   1.00
C653   C     0.12808   0.16575   0.95160   0.00000  Uiso   1.00
C654   C     0.20525   0.16758   0.54840   0.00000  Uiso   1.00
C655   C     0.16658   0.16652   0.97649   0.00000  Uiso   1.00
C656   C     0.16675   0.16681   0.52351   0.00000  Uiso   1.00
C657   C     0.20493   0.16684   0.95455   0.00000  Uiso   1.00
C658   C     0.12841   0.16649   0.54544   0.00000  Uiso   1.00
C659   C     0.09054   0.16468   0.97413   0.00000  Uiso   1.00
C660   C     0.24279   0.16865   0.52587   0.00000  Uiso   1.00
H661   H     0.06046   0.16306   0.95660   0.00000  Uiso   1.00
H662   H     0.27287   0.17027   0.54340   0.00000  Uiso   1.00
H663   H     0.06080   0.16451   0.53542   0.00000  Uiso   1.00
H664   H     0.27253   0.16882   0.96458   0.00000  Uiso   1.00
H665   H     0.03661   0.09581   0.73469   0.00000  Uiso   1.00
H666   H     0.29672   0.23753   0.76528   0.00000  Uiso   1.00
H667   H     0.29484   0.09600   0.73425   0.00000  Uiso   1.00
H668   H     0.03849   0.23734   0.76574   0.00000  Uiso   1.00
N669   N     0.16667   0.28573   0.75000   0.00000  Uiso   1.00
N670   N     0.16667   0.04760   0.75000   0.00000  Uiso   1.00
O671   O     0.10559   0.20487   0.74999   0.00000  Uiso   1.00
O672   O     0.22774   0.12846   0.75000   0.00000  Uiso   1.00
O673   O     0.22774   0.20487   0.75000   0.00000  Uiso   1.00
O674   O     0.10559   0.12846   0.74999   0.00000  Uiso   1.00
O675   O     0.16666   0.20489   0.68392   0.00000  Uiso   1.00
O676   O     0.16667   0.12844   0.81607   0.00000  Uiso   1.00
O677   O     0.16667   0.20489   0.81607   0.00000  Uiso   1.00
O678   O     0.16666   0.12844   0.68392   0.00000  Uiso   1.00
Zn679  Zn    0.16667   0.21771   0.75000   0.00000  Uiso   1.00
Zn680  Zn    0.16667   0.11563   0.75000   0.00000  Uiso   1.00
I681   I     0.26190   0.16610   0.87251   0.00000  Uiso   1.00
I682   I     0.07143   0.16724   0.62748   0.00000  Uiso   1.00
C683   C     0.08802   0.16440   0.87782   0.00000  Uiso   1.00
H684   H     0.06349   0.18799   0.88451   0.00000  Uiso   1.00
O685   O     0.08180   0.13659   0.84885   0.00000  Uiso   1.00
C686   C     0.24532   0.16893   0.62218   0.00000  Uiso   1.00
H687   H     0.26984   0.14535   0.61550   0.00000  Uiso   1.00
O688   O     0.25154   0.19674   0.65114   0.00000  Uiso   1.00
C689   C     0.22737   0.04771   0.80318   0.00000  Uiso   1.00
H690   H     0.22154   0.07875   0.81938   0.00000  Uiso   1.00
O691   O     0.26287   0.03301   0.80558   0.00000  Uiso   1.00
C692   C     0.10594   0.28562   0.69685   0.00000  Uiso   1.00
H693   H     0.11175   0.25453   0.68073   0.00000  Uiso   1.00
O694   O     0.07047   0.30037   0.69437   0.00000  Uiso   1.00
C695   C     0.11722   0.04887   0.68476   0.00000  Uiso   1.00
H696   H     0.10168   0.07980   0.69093   0.00000  Uiso   1.00
O697   O     0.11558   0.03479   0.64665   0.00000  Uiso   1.00
C698   C     0.21613   0.28447   0.81523   0.00000  Uiso   1.00
H699   H     0.23177   0.25361   0.80901   0.00000  Uiso   1.00
O700   O     0.21766   0.29847   0.85336   0.00000  Uiso   1.00
C701   C     0.42009   0.16661   0.75000   0.00000  Uiso   1.00
C702   C     0.57991   0.16673   0.74999   0.00000  Uiso   1.00
C703   C     0.42407   0.16526   0.52021   0.00000  Uiso   1.00
C704   C     0.57593   0.16807   0.97979   0.00000  Uiso   1.00
C705   C     0.35415   0.12679   0.74156   0.00000  Uiso   1.00
C706   C     0.64585   0.20655   0.75843   0.00000  Uiso   1.00
C707   C     0.64482   0.12691   0.74131   0.00000  Uiso   1.00
C708   C     0.35518   0.20642   0.75867   0.00000  Uiso   1.00
C709   C     0.62413   0.16677   0.74983   0.00000  Uiso   1.00
C710   C     0.37587   0.16656   0.75016   0.00000  Uiso   1.00
C711   C     0.52721   0.02370   0.77769   0.00000  Uiso   1.00
C712   C     0.47279   0.30963   0.72232   0.00000  Uiso   1.00
C713   C     0.47419   0.02429   0.72081   0.00000  Uiso   1.00
C714   C     0.52581   0.30905   0.77918   0.00000  Uiso   1.00
C715   C     0.49988   0.16702   0.66375   0.00000  Uiso   1.00
C716   C     0.50012   0.16632   0.83625   0.00000  Uiso   1.00
C717   C     0.53808   0.16610   0.90793   0.00000  Uiso   1.00
C718   C     0.46192   0.16723   0.59207   0.00000  Uiso   1.00
C719   C     0.49978   0.16533   0.88390   0.00000  Uiso   1.00
C720   C     0.50022   0.16800   0.61610   0.00000  Uiso   1.00
C721   C     0.46135   0.16504   0.90483   0.00000  Uiso   1.00
C722   C     0.53865   0.16829   0.59516   0.00000  Uiso   1.00
C723   C     0.46141   0.16575   0.95160   0.00000  Uiso   1.00
C724   C     0.53859   0.16758   0.54840   0.00000  Uiso   1.00
C725   C     0.49992   0.16652   0.97649   0.00000  Uiso   1.00
C726   C     0.50008   0.16681   0.52351   0.00000  Uiso   1.00
C727   C     0.53826   0.16684   0.95455   0.00000  Uiso   1.00
C728   C     0.46174   0.16649   0.54544   0.00000  Uiso   1.00
C729   C     0.42388   0.16468   0.97413   0.00000  Uiso   1.00
C730   C     0.57612   0.16865   0.52587   0.00000  Uiso   1.00
H731   H     0.39380   0.16306   0.95660   0.00000  Uiso   1.00
H732   H     0.60620   0.17027   0.54340   0.00000  Uiso   1.00
H733   H     0.39413   0.16451   0.53542   0.00000  Uiso   1.00
H734   H     0.60587   0.16882   0.96458   0.00000  Uiso   1.00
H735   H     0.36994   0.09581   0.73469   0.00000  Uiso   1.00
H736   H     0.63006   0.23753   0.76528   0.00000  Uiso   1.00
H737   H     0.62818   0.09600   0.73425   0.00000  Uiso   1.00
H738   H     0.37182   0.23734   0.76574   0.00000  Uiso   1.00
N739   N     0.50000   0.28573   0.75000   0.00000  Uiso   1.00
N740   N     0.50000   0.04760   0.75000   0.00000  Uiso   1.00
O741   O     0.43892   0.20487   0.74999   0.00000  Uiso   1.00
O742   O     0.56108   0.12846   0.75000   0.00000  Uiso   1.00
O743   O     0.56108   0.20487   0.75000   0.00000  Uiso   1.00
O744   O     0.43892   0.12846   0.74999   0.00000  Uiso   1.00
O745   O     0.49999   0.20489   0.68392   0.00000  Uiso   1.00
O746   O     0.50001   0.12844   0.81607   0.00000  Uiso   1.00
O747   O     0.50001   0.20489   0.81607   0.00000  Uiso   1.00
O748   O     0.49999   0.12844   0.68392   0.00000  Uiso   1.00
Zn749  Zn    0.50000   0.21771   0.75000   0.00000  Uiso   1.00
Zn750  Zn    0.50000   0.11563   0.75000   0.00000  Uiso   1.00
I751   I     0.59524   0.16610   0.87251   0.00000  Uiso   1.00
I752   I     0.40476   0.16724   0.62748   0.00000  Uiso   1.00
C753   C     0.42135   0.16440   0.87782   0.00000  Uiso   1.00
H754   H     0.39682   0.18799   0.88451   0.00000  Uiso   1.00
O755   O     0.41513   0.13659   0.84885   0.00000  Uiso   1.00
C756   C     0.57865   0.16893   0.62218   0.00000  Uiso   1.00
H757   H     0.60317   0.14535   0.61550   0.00000  Uiso   1.00
O758   O     0.58487   0.19674   0.65114   0.00000  Uiso   1.00
C759   C     0.56071   0.04771   0.80318   0.00000  Uiso   1.00
H760   H     0.55487   0.07875   0.81938   0.00000  Uiso   1.00
O761   O     0.59620   0.03301   0.80558   0.00000  Uiso   1.00
C762   C     0.43928   0.28562   0.69685   0.00000  Uiso   1.00
H763   H     0.44508   0.25453   0.68073   0.00000  Uiso   1.00
O764   O     0.40380   0.30037   0.69437   0.00000  Uiso   1.00
C765   C     0.45055   0.04887   0.68476   0.00000  Uiso   1.00
H766   H     0.43502   0.07980   0.69093   0.00000  Uiso   1.00
O767   O     0.44891   0.03479   0.64665   0.00000  Uiso   1.00
C768   C     0.54946   0.28447   0.81523   0.00000  Uiso   1.00
H769   H     0.56510   0.25361   0.80901   0.00000  Uiso   1.00
O770   O     0.55099   0.29847   0.85336   0.00000  Uiso   1.00
C771   C     0.75342   0.16661   0.75000   0.00000  Uiso   1.00
C772   C     0.91325   0.16673   0.74999   0.00000  Uiso   1.00
C773   C     0.75740   0.16526   0.52021   0.00000  Uiso   1.00
C774   C     0.90926   0.16807   0.97979   0.00000  Uiso   1.00
C775   C     0.68748   0.12679   0.74156   0.00000  Uiso   1.00
C776   C     0.97918   0.20655   0.75843   0.00000  Uiso   1.00
C777   C     0.97815   0.12691   0.74131   0.00000  Uiso   1.00
C778   C     0.68852   0.20642   0.75867   0.00000  Uiso   1.00
C779   C     0.95746   0.16677   0.74983   0.00000  Uiso   1.00
C780   C     0.70921   0.16656   0.75016   0.00000  Uiso   1.00
C781   C     0.86054   0.02370   0.77769   0.00000  Uiso   1.00
C782   C     0.80612   0.30963   0.72232   0.00000  Uiso   1.00
C783   C     0.80752   0.02429   0.72081   0.00000  Uiso   1.00
C784   C     0.85915   0.30905   0.77918   0.00000  Uiso   1.00
C785   C     0.83321   0.16702   0.66375   0.00000  Uiso   1.00
C786   C     0.83345   0.16632   0.83625   0.00000  Uiso   1.00
C787   C     0.87142   0.16610   0.90793   0.00000  Uiso   1.00
C788   C     0.79525   0.16723   0.59207   0.00000  Uiso   1.00
C789   C     0.83312   0.16533   0.88390   0.00000  Uiso   1.00
C790   C     0.83355   0.16800   0.61610   0.00000  Uiso   1.00
C791   C     0.79469   0.16504   0.90483   0.00000  Uiso   1.00
C792   C     0.87198   0.16829   0.59516   0.00000  Uiso   1.00
C793   C     0.79475   0.16575   0.95160   0.00000  Uiso   1.00
C794   C     0.87192   0.16758   0.54840   0.00000  Uiso   1.00
C795   C     0.83325   0.16652   0.97649   0.00000  Uiso   1.00
C796   C     0.83342   0.16681   0.52351   0.00000  Uiso   1.00
C797   C     0.87159   0.16684   0.95455   0.00000  Uiso   1.00
C798   C     0.79507   0.16649   0.54544   0.00000  Uiso   1.00
C799   C     0.75721   0.16468   0.97413   0.00000  Uiso   1.00
C800   C     0.90946   0.16865   0.52587   0.00000  Uiso   1.00
H801   H     0.72713   0.16306   0.95660   0.00000  Uiso   1.00
H802   H     0.93954   0.17027   0.54340   0.00000  Uiso   1.00
H803   H     0.72746   0.16451   0.53542   0.00000  Uiso   1.00
H804   H     0.93920   0.16882   0.96458   0.00000  Uiso   1.00
H805   H     0.70328   0.09581   0.73469   0.00000  Uiso   1.00
H806   H     0.96339   0.23753   0.76528   0.00000  Uiso   1.00
H807   H     0.96151   0.09600   0.73425   0.00000  Uiso   1.00
H808   H     0.70516   0.23734   0.76574   0.00000  Uiso   1.00
N809   N     0.83333   0.28573   0.75000   0.00000  Uiso   1.00
N810   N     0.83333   0.04760   0.75000   0.00000  Uiso   1.00
O811   O     0.77226   0.20487   0.74999   0.00000  Uiso   1.00
O812   O     0.89441   0.12846   0.75000   0.00000  Uiso   1.00
O813   O     0.89441   0.20487   0.75000   0.00000  Uiso   1.00
O814   O     0.77226   0.12846   0.74999   0.00000  Uiso   1.00
O815   O     0.83333   0.20489   0.68392   0.00000  Uiso   1.00
O816   O     0.83334   0.12844   0.81607   0.00000  Uiso   1.00
O817   O     0.83334   0.20489   0.81607   0.00000  Uiso   1.00
O818   O     0.83333   0.12844   0.68392   0.00000  Uiso   1.00
Zn819  Zn    0.83333   0.21771   0.75000   0.00000  Uiso   1.00
Zn820  Zn    0.83333   0.11563   0.75000   0.00000  Uiso   1.00
I821   I     0.92857   0.16610   0.87251   0.00000  Uiso   1.00
I822   I     0.73810   0.16724   0.62748   0.00000  Uiso   1.00
C823   C     0.75468   0.16440   0.87782   0.00000  Uiso   1.00
H824   H     0.73016   0.18799   0.88451   0.00000  Uiso   1.00
O825   O     0.74847   0.13659   0.84885   0.00000  Uiso   1.00
C826   C     0.91198   0.16893   0.62218   0.00000  Uiso   1.00
H827   H     0.93651   0.14535   0.61550   0.00000  Uiso   1.00
O828   O     0.91820   0.19674   0.65114   0.00000  Uiso   1.00
C829   C     0.89404   0.04771   0.80318   0.00000  Uiso   1.00
H830   H     0.88820   0.07875   0.81938   0.00000  Uiso   1.00
O831   O     0.92953   0.03301   0.80558   0.00000  Uiso   1.00
C832   C     0.77261   0.28562   0.69685   0.00000  Uiso   1.00
H833   H     0.77842   0.25453   0.68073   0.00000  Uiso   1.00
O834   O     0.73713   0.30037   0.69437   0.00000  Uiso   1.00
C835   C     0.78388   0.04887   0.68476   0.00000  Uiso   1.00
H836   H     0.76835   0.07980   0.69093   0.00000  Uiso   1.00
O837   O     0.78225   0.03479   0.64665   0.00000  Uiso   1.00
C838   C     0.88280   0.28447   0.81523   0.00000  Uiso   1.00
H839   H     0.89844   0.25361   0.80901   0.00000  Uiso   1.00
O840   O     0.88433   0.29847   0.85336   0.00000  Uiso   1.00
C841   C     0.08675   0.49994   0.75000   0.00000  Uiso   1.00
C842   C     0.24658   0.50006   0.74999   0.00000  Uiso   1.00
C843   C     0.09074   0.49859   0.52021   0.00000  Uiso   1.00
C844   C     0.24260   0.50141   0.97979   0.00000  Uiso   1.00
C845   C     0.02082   0.46012   0.74156   0.00000  Uiso   1.00
C846   C     0.31252   0.53988   0.75843   0.00000  Uiso   1.00
C847   C     0.31148   0.46024   0.74131   0.00000  Uiso   1.00
C848   C     0.02185   0.53976   0.75867   0.00000  Uiso   1.00
C849   C     0.29079   0.50011   0.74983   0.00000  Uiso   1.00
C850   C     0.04254   0.49990   0.75016   0.00000  Uiso   1.00
C851   C     0.19387   0.35704   0.77769   0.00000  Uiso   1.00
C852   C     0.13946   0.64296   0.72232   0.00000  Uiso   1.00
C853   C     0.14086   0.35762   0.72081   0.00000  Uiso   1.00
C854   C     0.19248   0.64238   0.77918   0.00000  Uiso   1.00
C855   C     0.16655   0.50035   0.66375   0.00000  Uiso   1.00
C856   C     0.16679   0.49965   0.83625   0.00000  Uiso   1.00
C857   C     0.20475   0.49943   0.90793   0.00000  Uiso   1.00
C858   C     0.12858   0.50057   0.59207   0.00000  Uiso   1.00
C859   C     0.16645   0.49866   0.88390   0.00000  Uiso   1.00
C860   C     0.16688   0.50134   0.61610   0.00000  Uiso   1.00
C861   C     0.12802   0.49837   0.90483   0.00000  Uiso   1.00
C862   C     0.20531   0.50163   0.59516   0.00000  Uiso   1.00
C863   C     0.12808   0.49908   0.95160   0.00000  Uiso   1.00
C864   C     0.20525   0.50092   0.54840   0.00000  Uiso   1.00
C865   C     0.16658   0.49986   0.97649   0.00000  Uiso   1.00
C866   C     0.16675   0.50014   0.52351   0.00000  Uiso   1.00
C867   C     0.20493   0.50017   0.95455   0.00000  Uiso   1.00
C868   C     0.12841   0.49983   0.54544   0.00000  Uiso   1.00
C869   C     0.09054   0.49801   0.97413   0.00000  Uiso   1.00
C870   C     0.24279   0.50198   0.52587   0.00000  Uiso   1.00
H871   H     0.06046   0.49640   0.95660   0.00000  Uiso   1.00
H872   H     0.27287   0.50360   0.54340   0.00000  Uiso   1.00
H873   H     0.06080   0.49784   0.53542   0.00000  Uiso   1.00
H874   H     0.27253   0.50216   0.96458   0.00000  Uiso   1.00
H875   H     0.03661   0.42914   0.73469   0.00000  Uiso   1.00
H876   H     0.29672   0.57086   0.76528   0.00000  Uiso   1.00
H877   H     0.29484   0.42933   0.73425   0.00000  Uiso   1.00
H878   H     0.03849   0.57067   0.76574   0.00000  Uiso   1.00
N879   N     0.16667   0.61907   0.75000   0.00000  Uiso   1.00
N880   N     0.16667   0.38093   0.75000   0.00000  Uiso   1.00
O881   O     0.10559   0.53821   0.74999   0.00000  Uiso   1.00
O882   O     0.22774   0.46179   0.75000   0.00000  Uiso   1.00
O883   O     0.22774   0.53821   0.75000   0.00000  Uiso   1.00
O884   O     0.10559   0.46179   0.74999   0.00000  Uiso   1.00
O885   O     0.16666   0.53823   0.68392   0.00000  Uiso   1.00
O886   O     0.16667   0.46177   0.81607   0.00000  Uiso   1.00
O887   O     0.16667   0.53823   0.81607   0.00000  Uiso   1.00
O888   O     0.16666   0.46177   0.68392   0.00000  Uiso   1.00
Zn889  Zn    0.16667   0.55104   0.75000   0.00000  Uiso   1.00
Zn890  Zn    0.16667   0.44896   0.75000   0.00000  Uiso   1.00
I891   I     0.26190   0.49944   0.87251   0.00000  Uiso   1.00
I892   I     0.07143   0.50057   0.62748   0.00000  Uiso   1.00
C893   C     0.08802   0.49774   0.87782   0.00000  Uiso   1.00
H894   H     0.06349   0.52132   0.88451   0.00000  Uiso   1.00
O895   O     0.08180   0.46993   0.84885   0.00000  Uiso   1.00
C896   C     0.24532   0.50226   0.62218   0.00000  Uiso   1.00
H897   H     0.26984   0.47868   0.61550   0.00000  Uiso   1.00
O898   O     0.25154   0.53008   0.65114   0.00000  Uiso   1.00
C899   C     0.22737   0.38104   0.80318   0.00000  Uiso   1.00
H900   H     0.22154   0.41208   0.81938   0.00000  Uiso   1.00
O901   O     0.26287   0.36634   0.80558   0.00000  Uiso   1.00
C902   C     0.10594   0.61896   0.69685   0.00000  Uiso   1.00
H903   H     0.11175   0.58786   0.68073   0.00000  Uiso   1.00
O904   O     0.07047   0.63371   0.69437   0.00000  Uiso   1.00
C905   C     0.11722   0.38220   0.68476   0.00000  Uiso   1.00
H906   H     0.10168   0.41313   0.69093   0.00000  Uiso   1.00
O907   O     0.11558   0.36812   0.64665   0.00000  Uiso   1.00
C908   C     0.21613   0.61780   0.81523   0.00000  Uiso   1.00
H909   H     0.23177   0.58695   0.80901   0.00000  Uiso   1.00
O910   O     0.21766   0.63180   0.85336   0.00000  Uiso   1.00
C911   C     0.42009   0.49994   0.75000   0.00000  Uiso   1.00
C912   C     0.57991   0.50006   0.74999   0.00000  Uiso   1.00
C913   C     0.42407   0.49859   0.52021   0.00000  Uiso   1.00
C914   C     0.57593   0.50141   0.97979   0.00000  Uiso   1.00
C915   C     0.35415   0.46012   0.74156   0.00000  Uiso   1.00
C916   C     0.64585   0.53988   0.75843   0.00000  Uiso   1.00
C917   C     0.64482   0.46024   0.74131   0.00000  Uiso   1.00
C918   C     0.35518   0.53976   0.75867   0.00000  Uiso   1.00
C919   C     0.62413   0.50011   0.74983   0.00000  Uiso   1.00
C920   C     0.37587   0.49990   0.75016   0.00000  Uiso   1.00
C921   C     0.52721   0.35704   0.77769   0.00000  Uiso   1.00
C922   C     0.47279   0.64296   0.72232   0.00000  Uiso   1.00
C923   C     0.47419   0.35762   0.72081   0.00000  Uiso   1.00
C924   C     0.52581   0.64238   0.77918   0.00000  Uiso   1.00
C925   C     0.49988   0.50035   0.66375   0.00000  Uiso   1.00
C926   C     0.50012   0.49965   0.83625   0.00000  Uiso   1.00
C927   C     0.53808   0.49943   0.90793   0.00000  Uiso   1.00
C928   C     0.46192   0.50057   0.59207   0.00000  Uiso   1.00
C929   C     0.49978   0.49866   0.88390   0.00000  Uiso   1.00
C930   C     0.50022   0.50134   0.61610   0.00000  Uiso   1.00
C931   C     0.46135   0.49837   0.90483   0.00000  Uiso   1.00
C932   C     0.53865   0.50163   0.59516   0.00000  Uiso   1.00
C933   C     0.46141   0.49908   0.95160   0.00000  Uiso   1.00
C934   C     0.53859   0.50092   0.54840   0.00000  Uiso   1.00
C935   C     0.49992   0.49986   0.97649   0.00000  Uiso   1.00
C936   C     0.50008   0.50014   0.52351   0.00000  Uiso   1.00
C937   C     0.53826   0.50017   0.95455   0.00000  Uiso   1.00
C938   C     0.46174   0.49983   0.54544   0.00000  Uiso   1.00
C939   C     0.42388   0.49801   0.97413   0.00000  Uiso   1.00
C940   C     0.57612   0.50198   0.52587   0.00000  Uiso   1.00
H941   H     0.39380   0.49640   0.95660   0.00000  Uiso   1.00
H942   H     0.60620   0.50360   0.54340   0.00000  Uiso   1.00
H943   H     0.39413   0.49784   0.53542   0.00000  Uiso   1.00
H944   H     0.60587   0.50216   0.96458   0.00000  Uiso   1.00
H945   H     0.36994   0.42914   0.73469   0.00000  Uiso   1.00
H946   H     0.63006   0.57086   0.76528   0.00000  Uiso   1.00
H947   H     0.62818   0.42933   0.73425   0.00000  Uiso   1.00
H948   H     0.37182   0.57067   0.76574   0.00000  Uiso   1.00
N949   N     0.50000   0.61907   0.75000   0.00000  Uiso   1.00
N950   N     0.50000   0.38093   0.75000   0.00000  Uiso   1.00
O951   O     0.43892   0.53821   0.74999   0.00000  Uiso   1.00
O952   O     0.56108   0.46179   0.75000   0.00000  Uiso   1.00
O953   O     0.56108   0.53821   0.75000   0.00000  Uiso   1.00
O954   O     0.43892   0.46179   0.74999   0.00000  Uiso   1.00
O955   O     0.49999   0.53823   0.68392   0.00000  Uiso   1.00
O956   O     0.50001   0.46177   0.81607   0.00000  Uiso   1.00
O957   O     0.50001   0.53823   0.81607   0.00000  Uiso   1.00
O958   O     0.49999   0.46177   0.68392   0.00000  Uiso   1.00
Zn959  Zn    0.50000   0.55104   0.75000   0.00000  Uiso   1.00
Zn960  Zn    0.50000   0.44896   0.75000   0.00000  Uiso   1.00
I961   I     0.59524   0.49944   0.87251   0.00000  Uiso   1.00
I962   I     0.40476   0.50057   0.62748   0.00000  Uiso   1.00
C963   C     0.42135   0.49774   0.87782   0.00000  Uiso   1.00
H964   H     0.39682   0.52132   0.88451   0.00000  Uiso   1.00
O965   O     0.41513   0.46993   0.84885   0.00000  Uiso   1.00
C966   C     0.57865   0.50226   0.62218   0.00000  Uiso   1.00
H967   H     0.60317   0.47868   0.61550   0.00000  Uiso   1.00
O968   O     0.58487   0.53008   0.65114   0.00000  Uiso   1.00
C969   C     0.56071   0.38104   0.80318   0.00000  Uiso   1.00
H970   H     0.55487   0.41208   0.81938   0.00000  Uiso   1.00
O971   O     0.59620   0.36634   0.80558   0.00000  Uiso   1.00
C972   C     0.43928   0.61896   0.69685   0.00000  Uiso   1.00
H973   H     0.44508   0.58786   0.68073   0.00000  Uiso   1.00
O974   O     0.40380   0.63371   0.69437   0.00000  Uiso   1.00
C975   C     0.45055   0.38220   0.68476   0.00000  Uiso   1.00
H976   H     0.43502   0.41313   0.69093   0.00000  Uiso   1.00
O977   O     0.44891   0.36812   0.64665   0.00000  Uiso   1.00
C978   C     0.54946   0.61780   0.81523   0.00000  Uiso   1.00
H979   H     0.56510   0.58695   0.80901   0.00000  Uiso   1.00
O980   O     0.55099   0.63180   0.85336   0.00000  Uiso   1.00
C981   C     0.75342   0.49994   0.75000   0.00000  Uiso   1.00
C982   C     0.91325   0.50006   0.74999   0.00000  Uiso   1.00
C983   C     0.75740   0.49859   0.52021   0.00000  Uiso   1.00
C984   C     0.90926   0.50141   0.97979   0.00000  Uiso   1.00
C985   C     0.68748   0.46012   0.74156   0.00000  Uiso   1.00
C986   C     0.97918   0.53988   0.75843   0.00000  Uiso   1.00
C987   C     0.97815   0.46024   0.74131   0.00000  Uiso   1.00
C988   C     0.68852   0.53976   0.75867   0.00000  Uiso   1.00
C989   C     0.95746   0.50011   0.74983   0.00000  Uiso   1.00
C990   C     0.70921   0.49990   0.75016   0.00000  Uiso   1.00
C991   C     0.86054   0.35704   0.77769   0.00000  Uiso   1.00
C992   C     0.80612   0.64296   0.72232   0.00000  Uiso   1.00
C993   C     0.80752   0.35762   0.72081   0.00000  Uiso   1.00
C994   C     0.85915   0.64238   0.77918   0.00000  Uiso   1.00
C995   C     0.83321   0.50035   0.66375   0.00000  Uiso   1.00
C996   C     0.83345   0.49965   0.83625   0.00000  Uiso   1.00
C997   C     0.87142   0.49943   0.90793   0.00000  Uiso   1.00
C998   C     0.79525   0.50057   0.59207   0.00000  Uiso   1.00
C999   C     0.83312   0.49866   0.88390   0.00000  Uiso   1.00
C1000  C     0.83355   0.50134   0.61610   0.00000  Uiso   1.00
C1001  C     0.79469   0.49837   0.90483   0.00000  Uiso   1.00
C1002  C     0.87198   0.50163   0.59516   0.00000  Uiso   1.00
C1003  C     0.79475   0.49908   0.95160   0.00000  Uiso   1.00
C1004  C     0.87192   0.50092   0.54840   0.00000  Uiso   1.00
C1005  C     0.83325   0.49986   0.97649   0.00000  Uiso   1.00
C1006  C     0.83342   0.50014   0.52351   0.00000  Uiso   1.00
C1007  C     0.87159   0.50017   0.95455   0.00000  Uiso   1.00
C1008  C     0.79507   0.49983   0.54544   0.00000  Uiso   1.00
C1009  C     0.75721   0.49801   0.97413   0.00000  Uiso   1.00
C1010  C     0.90946   0.50198   0.52587   0.00000  Uiso   1.00
H1011  H     0.72713   0.49640   0.95660   0.00000  Uiso   1.00
H1012  H     0.93954   0.50360   0.54340   0.00000  Uiso   1.00
H1013  H     0.72746   0.49784   0.53542   0.00000  Uiso   1.00
H1014  H     0.93920   0.50216   0.96458   0.00000  Uiso   1.00
H1015  H     0.70328   0.42914   0.73469   0.00000  Uiso   1.00
H1016  H     0.96339   0.57086   0.76528   0.00000  Uiso   1.00
H1017  H     0.96151   0.42933   0.73425   0.00000  Uiso   1.00
H1018  H     0.70516   0.57067   0.76574   0.00000  Uiso   1.00
N1019  N     0.83333   0.61907   0.75000   0.00000  Uiso   1.00
N1020  N     0.83333   0.38093   0.75000   0.00000  Uiso   1.00
O1021  O     0.77226   0.53821   0.74999   0.00000  Uiso   1.00
O1022  O     0.89441   0.46179   0.75000   0.00000  Uiso   1.00
O1023  O     0.89441   0.53821   0.75000   0.00000  Uiso   1.00
O1024  O     0.77226   0.46179   0.74999   0.00000  Uiso   1.00
O1025  O     0.83333   0.53823   0.68392   0.00000  Uiso   1.00
O1026  O     0.83334   0.46177   0.81607   0.00000  Uiso   1.00
O1027  O     0.83334   0.53823   0.81607   0.00000  Uiso   1.00
O1028  O     0.83333   0.46177   0.68392   0.00000  Uiso   1.00
Zn1029 Zn    0.83333   0.55104   0.75000   0.00000  Uiso   1.00
Zn1030 Zn    0.83333   0.44896   0.75000   0.00000  Uiso   1.00
I1031  I     0.92857   0.49944   0.87251   0.00000  Uiso   1.00
I1032  I     0.73810   0.50057   0.62748   0.00000  Uiso   1.00
C1033  C     0.75468   0.49774   0.87782   0.00000  Uiso   1.00
H1034  H     0.73016   0.52132   0.88451   0.00000  Uiso   1.00
O1035  O     0.74847   0.46993   0.84885   0.00000  Uiso   1.00
C1036  C     0.91198   0.50226   0.62218   0.00000  Uiso   1.00
H1037  H     0.93651   0.47868   0.61550   0.00000  Uiso   1.00
O1038  O     0.91820   0.53008   0.65114   0.00000  Uiso   1.00
C1039  C     0.89404   0.38104   0.80318   0.00000  Uiso   1.00
H1040  H     0.88820   0.41208   0.81938   0.00000  Uiso   1.00
O1041  O     0.92953   0.36634   0.80558   0.00000  Uiso   1.00
C1042  C     0.77261   0.61896   0.69685   0.00000  Uiso   1.00
H1043  H     0.77842   0.58786   0.68073   0.00000  Uiso   1.00
O1044  O     0.73713   0.63371   0.69437   0.00000  Uiso   1.00
C1045  C     0.78388   0.38220   0.68476   0.00000  Uiso   1.00
H1046  H     0.76835   0.41313   0.69093   0.00000  Uiso   1.00
O1047  O     0.78225   0.36812   0.64665   0.00000  Uiso   1.00
C1048  C     0.88280   0.61780   0.81523   0.00000  Uiso   1.00
H1049  H     0.89844   0.58695   0.80901   0.00000  Uiso   1.00
O1050  O     0.88433   0.63180   0.85336   0.00000  Uiso   1.00
C1051  C     0.08675   0.83327   0.75000   0.00000  Uiso   1.00
C1052  C     0.24658   0.83339   0.74999   0.00000  Uiso   1.00
C1053  C     0.09074   0.83192   0.52021   0.00000  Uiso   1.00
C1054  C     0.24260   0.83474   0.97979   0.00000  Uiso   1.00
C1055  C     0.02082   0.79346   0.74156   0.00000  Uiso   1.00
C1056  C     0.31252   0.87321   0.75843   0.00000  Uiso   1.00
C1057  C     0.31148   0.79358   0.74131   0.00000  Uiso   1.00
C1058  C     0.02185   0.87309   0.75867   0.00000  Uiso   1.00
C1059  C     0.29079   0.83344   0.74983   0.00000  Uiso   1.00
C1060  C     0.04254   0.83323   0.75016   0.00000  Uiso   1.00
C1061  C     0.19387   0.69037   0.77769   0.00000  Uiso   1.00
C1062  C     0.13946   0.97630   0.72232   0.00000  Uiso   1.00
C1063  C     0.14086   0.69095   0.72081   0.00000  Uiso   1.00
C1064  C     0.19248   0.97571   0.77918   0.00000  Uiso   1.00
C1065  C     0.16655   0.83368   0.66375   0.00000  Uiso   1.00
C1066  C     0.16679   0.83298   0.83625   0.00000  Uiso   1.00
C1067  C     0.20475   0.83277   0.90793   0.00000  Uiso   1.00
C1068  C     0.12858   0.83390   0.59207   0.00000  Uiso   1.00
C1069  C     0.16645   0.83200   0.88390   0.00000  Uiso   1.00
C1070  C     0.16688   0.83467   0.61610   0.00000  Uiso   1.00
C1071  C     0.12802   0.83170   0.90483   0.00000  Uiso   1.00
C1072  C     0.20531   0.83496   0.59516   0.00000  Uiso   1.00
C1073  C     0.12808   0.83242   0.95160   0.00000  Uiso   1.00
C1074  C     0.20525   0.83425   0.54840   0.00000  Uiso   1.00
C1075  C     0.16658   0.83319   0.97649   0.00000  Uiso   1.00
C1076  C     0.16675   0.83347   0.52351   0.00000  Uiso   1.00
C1077  C     0.20493   0.83350   0.95455   0.00000  Uiso   1.00
C1078  C     0.12841   0.83316   0.54544   0.00000  Uiso   1.00
C1079  C     0.09054   0.83135   0.97413   0.00000  Uiso   1.00
C1080  C     0.24279   0.83532   0.52587   0.00000  Uiso   1.00
H1081  H     0.06046   0.82973   0.95660   0.00000  Uiso   1.00
H1082  H     0.27287   0.83693   0.54340   0.00000  Uiso   1.00
H1083  H     0.06080   0.83117   0.53542   0.00000  Uiso   1.00
H1084  H     0.27253   0.83549   0.96458   0.00000  Uiso   1.00
H1085  H     0.03661   0.76247   0.73469   0.00000  Uiso   1.00
H1086  H     0.29672   0.90420   0.76528   0.00000  Uiso   1.00
H1087  H     0.29484   0.76267   0.73425   0.00000  Uiso   1.00
H1088  H     0.03849   0.90400   0.76574   0.00000  Uiso   1.00
N1089  N     0.16667   0.95240   0.75000   0.00000  Uiso   1.00
N1090  N     0.16667   0.71427   0.75000   0.00000  Uiso   1.00
O1091  O     0.10559   0.87154   0.74999   0.00000  Uiso   1.00
O1092  O     0.22774   0.79513   0.75000   0.00000  Uiso   1.00
O1093  O     0.22774   0.87154   0.75000   0.00000  Uiso   1.00
O1094  O     0.10559   0.79513   0.74999   0.00000  Uiso   1.00
O1095  O     0.16666   0.87156   0.68392   0.00000  Uiso   1.00
O1096  O     0.16667   0.79511   0.81607   0.00000  Uiso   1.00
O1097  O     0.16667   0.87156   0.81607   0.00000  Uiso   1.00
O1098  O     0.16666   0.79511   0.68392   0.00000  Uiso   1.00
Zn1099 Zn    0.16667   0.88437   0.75000   0.00000  Uiso   1.00
Zn1100 Zn    0.16667   0.78229   0.75000   0.00000  Uiso   1.00
I1101  I     0.26190   0.83277   0.87251   0.00000  Uiso   1.00
I1102  I     0.07143   0.83390   0.62748   0.00000  Uiso   1.00
C1103  C     0.08802   0.83107   0.87782   0.00000  Uiso   1.00
H1104  H     0.06349   0.85465   0.88451   0.00000  Uiso   1.00
O1105  O     0.08180   0.80326   0.84885   0.00000  Uiso   1.00
C1106  C     0.24532   0.83560   0.62218   0.00000  Uiso   1.00
H1107  H     0.26984   0.81201   0.61550   0.00000  Uiso   1.00
O1108  O     0.25154   0.86341   0.65114   0.00000  Uiso   1.00
C1109  C     0.22737   0.71437   0.80318   0.00000  Uiso   1.00
H1110  H     0.22154   0.74541   0.81938   0.00000  Uiso   1.00
O1111  O     0.26287   0.69968   0.80558   0.00000  Uiso   1.00
C1112  C     0.10594   0.95229   0.69685   0.00000  Uiso   1.00
H1113  H     0.11175   0.92119   0.68073   0.00000  Uiso   1.00
O1114  O     0.07047   0.96704   0.69437   0.00000  Uiso   1.00
C1115  C     0.11722   0.71554   0.68476   0.00000  Uiso   1.00
H1116  H     0.10168   0.74647   0.69093   0.00000  Uiso   1.00
O1117  O     0.11558   0.70146   0.64665   0.00000  Uiso   1.00
C1118  C     0.21613   0.95113   0.81523   0.00000  Uiso   1.00
H1119  H     0.23177   0.92028   0.80901   0.00000  Uiso   1.00
O1120  O     0.21766   0.96514   0.85336   0.00000  Uiso   1.00
C1121  C     0.42009   0.83327   0.75000   0.00000  Uiso   1.00
C1122  C     0.57991   0.83339   0.74999   0.00000  Uiso   1.00
C1123  C     0.42407   0.83192   0.52021   0.00000  Uiso   1.00
C1124  C     0.57593   0.83474   0.97979   0.00000  Uiso   1.00
C1125  C     0.35415   0.79346   0.74156   0.00000  Uiso   1.00
C1126  C     0.64585   0.87321   0.75843   0.00000  Uiso   1.00
C1127  C     0.64482   0.79358   0.74131   0.00000  Uiso   1.00
C1128  C     0.35518   0.87309   0.75867   0.00000  Uiso   1.00
C1129  C     0.62413   0.83344   0.74983   0.00000  Uiso   1.00
C1130  C     0.37587   0.83323   0.75016   0.00000  Uiso   1.00
C1131  C     0.52721   0.69037   0.77769   0.00000  Uiso   1.00
C1132  C     0.47279   0.97630   0.72232   0.00000  Uiso   1.00
C1133  C     0.47419   0.69095   0.72081   0.00000  Uiso   1.00
C1134  C     0.52581   0.97571   0.77918   0.00000  Uiso   1.00
C1135  C     0.49988   0.83368   0.66375   0.00000  Uiso   1.00
C1136  C     0.50012   0.83298   0.83625   0.00000  Uiso   1.00
C1137  C     0.53808   0.83277   0.90793   0.00000  Uiso   1.00
C1138  C     0.46192   0.83390   0.59207   0.00000  Uiso   1.00
C1139  C     0.49978   0.83200   0.88390   0.00000  Uiso   1.00
C1140  C     0.50022   0.83467   0.61610   0.00000  Uiso   1.00
C1141  C     0.46135   0.83170   0.90483   0.00000  Uiso   1.00
C1142  C     0.53865   0.83496   0.59516   0.00000  Uiso   1.00
C1143  C     0.46141   0.83242   0.95160   0.00000  Uiso   1.00
C1144  C     0.53859   0.83425   0.54840   0.00000  Uiso   1.00
C1145  C     0.49992   0.83319   0.97649   0.00000  Uiso   1.00
C1146  C     0.50008   0.83347   0.52351   0.00000  Uiso   1.00
C1147  C     0.53826   0.83350   0.95455   0.00000  Uiso   1.00
C1148  C     0.46174   0.83316   0.54544   0.00000  Uiso   1.00
C1149  C     0.42388   0.83135   0.97413   0.00000  Uiso   1.00
C1150  C     0.57612   0.83532   0.52587   0.00000  Uiso   1.00
H1151  H     0.39380   0.82973   0.95660   0.00000  Uiso   1.00
H1152  H     0.60620   0.83693   0.54340   0.00000  Uiso   1.00
H1153  H     0.39413   0.83117   0.53542   0.00000  Uiso   1.00
H1154  H     0.60587   0.83549   0.96458   0.00000  Uiso   1.00
H1155  H     0.36994   0.76247   0.73469   0.00000  Uiso   1.00
H1156  H     0.63006   0.90420   0.76528   0.00000  Uiso   1.00
H1157  H     0.62818   0.76267   0.73425   0.00000  Uiso   1.00
H1158  H     0.37182   0.90400   0.76574   0.00000  Uiso   1.00
N1159  N     0.50000   0.95240   0.75000   0.00000  Uiso   1.00
N1160  N     0.50000   0.71427   0.75000   0.00000  Uiso   1.00
O1161  O     0.43892   0.87154   0.74999   0.00000  Uiso   1.00
O1162  O     0.56108   0.79513   0.75000   0.00000  Uiso   1.00
O1163  O     0.56108   0.87154   0.75000   0.00000  Uiso   1.00
O1164  O     0.43892   0.79513   0.74999   0.00000  Uiso   1.00
O1165  O     0.49999   0.87156   0.68392   0.00000  Uiso   1.00
O1166  O     0.50001   0.79511   0.81607   0.00000  Uiso   1.00
O1167  O     0.50001   0.87156   0.81607   0.00000  Uiso   1.00
O1168  O     0.49999   0.79511   0.68392   0.00000  Uiso   1.00
Zn1169 Zn    0.50000   0.88437   0.75000   0.00000  Uiso   1.00
Zn1170 Zn    0.50000   0.78229   0.75000   0.00000  Uiso   1.00
I1171  I     0.59524   0.83277   0.87251   0.00000  Uiso   1.00
I1172  I     0.40476   0.83390   0.62748   0.00000  Uiso   1.00
C1173  C     0.42135   0.83107   0.87782   0.00000  Uiso   1.00
H1174  H     0.39682   0.85465   0.88451   0.00000  Uiso   1.00
O1175  O     0.41513   0.80326   0.84885   0.00000  Uiso   1.00
C1176  C     0.57865   0.83560   0.62218   0.00000  Uiso   1.00
H1177  H     0.60317   0.81201   0.61550   0.00000  Uiso   1.00
O1178  O     0.58487   0.86341   0.65114   0.00000  Uiso   1.00
C1179  C     0.56071   0.71437   0.80318   0.00000  Uiso   1.00
H1180  H     0.55487   0.74541   0.81938   0.00000  Uiso   1.00
O1181  O     0.59620   0.69968   0.80558   0.00000  Uiso   1.00
C1182  C     0.43928   0.95229   0.69685   0.00000  Uiso   1.00
H1183  H     0.44508   0.92119   0.68073   0.00000  Uiso   1.00
O1184  O     0.40380   0.96704   0.69437   0.00000  Uiso   1.00
C1185  C     0.45055   0.71554   0.68476   0.00000  Uiso   1.00
H1186  H     0.43502   0.74647   0.69093   0.00000  Uiso   1.00
O1187  O     0.44891   0.70146   0.64665   0.00000  Uiso   1.00
C1188  C     0.54946   0.95113   0.81523   0.00000  Uiso   1.00
H1189  H     0.56510   0.92028   0.80901   0.00000  Uiso   1.00
O1190  O     0.55099   0.96514   0.85336   0.00000  Uiso   1.00
C1191  C     0.75342   0.83327   0.75000   0.00000  Uiso   1.00
C1192  C     0.91325   0.83339   0.74999   0.00000  Uiso   1.00
C1193  C     0.75740   0.83192   0.52021   0.00000  Uiso   1.00
C1194  C     0.90926   0.83474   0.97979   0.00000  Uiso   1.00
C1195  C     0.68748   0.79346   0.74156   0.00000  Uiso   1.00
C1196  C     0.97918   0.87321   0.75843   0.00000  Uiso   1.00
C1197  C     0.97815   0.79358   0.74131   0.00000  Uiso   1.00
C1198  C     0.68852   0.87309   0.75867   0.00000  Uiso   1.00
C1199  C     0.95746   0.83344   0.74983   0.00000  Uiso   1.00
C1200  C     0.70921   0.83323   0.75016   0.00000  Uiso   1.00
C1201  C     0.86054   0.69037   0.77769   0.00000  Uiso   1.00
C1202  C     0.80612   0.97630   0.72232   0.00000  Uiso   1.00
C1203  C     0.80752   0.69095   0.72081   0.00000  Uiso   1.00
C1204  C     0.85915   0.97571   0.77918   0.00000  Uiso   1.00
C1205  C     0.83321   0.83368   0.66375   0.00000  Uiso   1.00
C1206  C     0.83345   0.83298   0.83625   0.00000  Uiso   1.00
C1207  C     0.87142   0.83277   0.90793   0.00000  Uiso   1.00
C1208  C     0.79525   0.83390   0.59207   0.00000  Uiso   1.00
C1209  C     0.83312   0.83200   0.88390   0.00000  Uiso   1.00
C1210  C     0.83355   0.83467   0.61610   0.00000  Uiso   1.00
C1211  C     0.79469   0.83170   0.90483   0.00000  Uiso   1.00
C1212  C     0.87198   0.83496   0.59516   0.00000  Uiso   1.00
C1213  C     0.79475   0.83242   0.95160   0.00000  Uiso   1.00
C1214  C     0.87192   0.83425   0.54840   0.00000  Uiso   1.00
C1215  C     0.83325   0.83319   0.97649   0.00000  Uiso   1.00
C1216  C     0.83342   0.83347   0.52351   0.00000  Uiso   1.00
C1217  C     0.87159   0.83350   0.95455   0.00000  Uiso   1.00
C1218  C     0.79507   0.83316   0.54544   0.00000  Uiso   1.00
C1219  C     0.75721   0.83135   0.97413   0.00000  Uiso   1.00
C1220  C     0.90946   0.83532   0.52587   0.00000  Uiso   1.00
H1221  H     0.72713   0.82973   0.95660   0.00000  Uiso   1.00
H1222  H     0.93954   0.83693   0.54340   0.00000  Uiso   1.00
H1223  H     0.72746   0.83117   0.53542   0.00000  Uiso   1.00
H1224  H     0.93920   0.83549   0.96458   0.00000  Uiso   1.00
H1225  H     0.70328   0.76247   0.73469   0.00000  Uiso   1.00
H1226  H     0.96339   0.90420   0.76528   0.00000  Uiso   1.00
H1227  H     0.96151   0.76267   0.73425   0.00000  Uiso   1.00
H1228  H     0.70516   0.90400   0.76574   0.00000  Uiso   1.00
N1229  N     0.83333   0.95240   0.75000   0.00000  Uiso   1.00
N1230  N     0.83333   0.71427   0.75000   0.00000  Uiso   1.00
O1231  O     0.77226   0.87154   0.74999   0.00000  Uiso   1.00
O1232  O     0.89441   0.79513   0.75000   0.00000  Uiso   1.00
O1233  O     0.89441   0.87154   0.75000   0.00000  Uiso   1.00
O1234  O     0.77226   0.79513   0.74999   0.00000  Uiso   1.00
O1235  O     0.83333   0.87156   0.68392   0.00000  Uiso   1.00
O1236  O     0.83334   0.79511   0.81607   0.00000  Uiso   1.00
O1237  O     0.83334   0.87156   0.81607   0.00000  Uiso   1.00
O1238  O     0.83333   0.79511   0.68392   0.00000  Uiso   1.00
Zn1239 Zn    0.83333   0.88437   0.75000   0.00000  Uiso   1.00
Zn1240 Zn    0.83333   0.78229   0.75000   0.00000  Uiso   1.00
I1241  I     0.92857   0.83277   0.87251   0.00000  Uiso   1.00
I1242  I     0.73810   0.83390   0.62748   0.00000  Uiso   1.00
C1243  C     0.75468   0.83107   0.87782   0.00000  Uiso   1.00
H1244  H     0.73016   0.85465   0.88451   0.00000  Uiso   1.00
O1245  O     0.74847   0.80326   0.84885   0.00000  Uiso   1.00
C1246  C     0.91198   0.83560   0.62218   0.00000  Uiso   1.00
H1247  H     0.93651   0.81201   0.61550   0.00000  Uiso   1.00
O1248  O     0.91820   0.86341   0.65114   0.00000  Uiso   1.00
C1249  C     0.89404   0.71437   0.80318   0.00000  Uiso   1.00
H1250  H     0.88820   0.74541   0.81938   0.00000  Uiso   1.00
O1251  O     0.92953   0.69968   0.80558   0.00000  Uiso   1.00
C1252  C     0.77261   0.95229   0.69685   0.00000  Uiso   1.00
H1253  H     0.77842   0.92119   0.68073   0.00000  Uiso   1.00
O1254  O     0.73713   0.96704   0.69437   0.00000  Uiso   1.00
C1255  C     0.78388   0.71554   0.68476   0.00000  Uiso   1.00
H1256  H     0.76835   0.74647   0.69093   0.00000  Uiso   1.00
O1257  O     0.78225   0.70146   0.64665   0.00000  Uiso   1.00
C1258  C     0.88280   0.95113   0.81523   0.00000  Uiso   1.00
H1259  H     0.89844   0.92028   0.80901   0.00000  Uiso   1.00
O1260  O     0.88433   0.96514   0.85336   0.00000  Uiso   1.00
loop_
_geom_bond_atom_site_label_1
_geom_bond_atom_site_label_2
_geom_bond_distance
_geom_bond_site_symmetry_2
_ccdc_geom_bond_type
C1     O41     1.290   .     A
C1     O44     1.292   .     A
C1     C10     1.419   .     S
C2     O43     1.292   .     A
C2     O42     1.290   .     A
C2     C9      1.419   .     S
C3     C28     1.400   .     A
C3     H33     1.079   .     S
C3     C659    1.380   1_554 S
C4     H34     1.079   .     S
C4     C27     1.400   .     A
C4     C660    1.380   .     S
C5     H35     1.083   .     S
C5     C10     1.396   .     A
C5     C147    1.369   1_455 S
C6     C9      1.396   .     A
C6     H36     1.083   .     S
C6     C78     1.369   .     S
C7     C9      1.397   .     A
C7     H37     1.083   .     S
C7     C75     1.369   .     S
C8     H38     1.083   .     S
C8     C10     1.397   .     A
C8     C146    1.369   1_455 S
C11    C59     1.482   .     S
C11    N40     1.374   .     A
C11    C434    1.433   1_545 S
C12    C62     1.482   .     S
C12    N39     1.374   .     A
C12    C223    1.433   .     S
C13    C65     1.482   .     S
C13    N40     1.375   .     A
C13    C432    1.433   1_545 S
C14    C68     1.482   .     S
C14    N39     1.375   .     A
C14    C221    1.433   .     S
C15    C20     1.427   .     S
C15    O48     1.292   .     A
C15    O45     1.290   .     A
C16    C19     1.427   .     S
C16    O47     1.292   .     A
C16    O46     1.290   .     A
C17    I51     2.154   .     S
C17    C19     1.399   .     A
C17    C27     1.396   .     A
C18    I52     2.154   .     S
C18    C28     1.396   .     A
C18    C20     1.399   .     A
C19    C21     1.405   .     A
C20    C22     1.405   .     A
C21    C53     1.490   .     S
C21    C23     1.401   .     A
C22    C24     1.401   .     A
C22    C56     1.490   .     S
C23    C29     1.404   .     A
C23    C25     1.418   .     A
C24    C30     1.404   .     A
C24    C26     1.418   .     A
C25    C27     1.417   .     A
C25    C656    1.408   .     S
C26    C28     1.417   .     A
C26    C655    1.408   1_554 S
C29    H31     1.081   .     S
C29    C633    1.380   .     S
C30    H32     1.081   .     S
C30    C634    1.380   1_554 S
N39    Zn49    2.031   .     S
N40    Zn50    2.031   .     S
O41    Zn49    1.995   .     S
O42    Zn50    1.995   .     S
O43    Zn49    1.998   .     S
O44    Zn50    1.998   .     S
O45    Zn49    2.021   .     S
O46    Zn50    2.021   .     S
O47    Zn49    2.009   .     S
O48    Zn50    2.009   .     S
C53    H54     1.085   .     S
C53    O55     1.220   .     D
C56    O58     1.220   .     D
C56    H57     1.085   .     S
C59    H60     1.073   .     S
C59    O61     1.221   .     D
C62    H63     1.073   .     S
C62    O64     1.221   .     D
C65    H66     1.073   .     S
C65    O67     1.221   .     D
C68    O70     1.221   .     D
C68    H69     1.073   .     S
C71    O111    1.290   .     A
C71    O114    1.292   .     A
C71    C80     1.419   .     S
C72    O113    1.292   .     A
C72    O112    1.290   .     A
C72    C79     1.419   .     S
C73    C98     1.400   .     A
C73    H103    1.079   .     S
C73    C729    1.380   1_554 S
C74    H104    1.079   .     S
C74    C97     1.400   .     A
C74    C730    1.380   .     S
C75    H105    1.083   .     S
C75    C80     1.396   .     A
C76    C79     1.396   .     A
C76    H106    1.083   .     S
C76    C148    1.369   .     S
C77    C79     1.397   .     A
C77    H107    1.083   .     S
C77    C145    1.369   .     S
C78    H108    1.083   .     S
C78    C80     1.397   .     A
C81    C129    1.482   .     S
C81    N110    1.374   .     A
C81    C504    1.433   1_545 S
C82    C132    1.482   .     S
C82    N109    1.374   .     A
C82    C293    1.433   .     S
C83    C135    1.482   .     S
C83    N110    1.375   .     A
C83    C502    1.433   1_545 S
C84    C138    1.482   .     S
C84    N109    1.375   .     A
C84    C291    1.433   .     S
C85    C90     1.427   .     S
C85    O118    1.292   .     A
C85    O115    1.290   .     A
C86    C89     1.427   .     S
C86    O117    1.292   .     A
C86    O116    1.290   .     A
C87    I121    2.154   .     S
C87    C89     1.399   .     A
C87    C97     1.396   .     A
C88    I122    2.154   .     S
C88    C98     1.396   .     A
C88    C90     1.399   .     A
C89    C91     1.405   .     A
C90    C92     1.405   .     A
C91    C123    1.490   .     S
C91    C93     1.401   .     A
C92    C94     1.401   .     A
C92    C126    1.490   .     S
C93    C99     1.404   .     A
C93    C95     1.418   .     A
C94    C100    1.404   .     A
C94    C96     1.418   .     A
C95    C97     1.417   .     A
C95    C726    1.408   .     S
C96    C98     1.417   .     A
C96    C725    1.408   1_554 S
C99    H101    1.081   .     S
C99    C703    1.380   .     S
C100   H102    1.081   .     S
C100   C704    1.380   1_554 S
N109   Zn119   2.031   .     S
N110   Zn120   2.031   .     S
O111   Zn119   1.995   .     S
O112   Zn120   1.995   .     S
O113   Zn119   1.998   .     S
O114   Zn120   1.998   .     S
O115   Zn119   2.021   .     S
O116   Zn120   2.021   .     S
O117   Zn119   2.009   .     S
O118   Zn120   2.009   .     S
C123   H124    1.085   .     S
C123   O125    1.220   .     D
C126   O128    1.220   .     D
C126   H127    1.085   .     S
C129   H130    1.073   .     S
C129   O131    1.221   .     D
C132   H133    1.073   .     S
C132   O134    1.221   .     D
C135   H136    1.073   .     S
C135   O137    1.221   .     D
C138   O140    1.221   .     D
C138   H139    1.073   .     S
C141   O181    1.290   .     A
C141   O184    1.292   .     A
C141   C150    1.419   .     S
C142   O183    1.292   .     A
C142   O182    1.290   .     A
C142   C149    1.419   .     S
C143   C168    1.400   .     A
C143   H173    1.079   .     S
C143   C799    1.380   1_554 S
C144   H174    1.079   .     S
C144   C167    1.400   .     A
C144   C800    1.380   .     S
C145   H175    1.083   .     S
C145   C150    1.396   .     A
C146   C149    1.396   .     A
C146   H176    1.083   .     S
C146   C8      1.369   1_655 S
C147   C149    1.397   .     A
C147   H177    1.083   .     S
C147   C5      1.369   1_655 S
C148   H178    1.083   .     S
C148   C150    1.397   .     A
C151   C199    1.482   .     S
C151   N180    1.374   .     A
C151   C574    1.433   1_545 S
C152   C202    1.482   .     S
C152   N179    1.374   .     A
C152   C363    1.433   .     S
C153   C205    1.482   .     S
C153   N180    1.375   .     A
C153   C572    1.433   1_545 S
C154   C208    1.482   .     S
C154   N179    1.375   .     A
C154   C361    1.433   .     S
C155   C160    1.427   .     S
C155   O188    1.292   .     A
C155   O185    1.290   .     A
C156   C159    1.427   .     S
C156   O187    1.292   .     A
C156   O186    1.290   .     A
C157   I191    2.154   .     S
C157   C159    1.399   .     A
C157   C167    1.396   .     A
C158   I192    2.154   .     S
C158   C168    1.396   .     A
C158   C160    1.399   .     A
C159   C161    1.405   .     A
C160   C162    1.405   .     A
C161   C193    1.490   .     S
C161   C163    1.401   .     A
C162   C164    1.401   .     A
C162   C196    1.490   .     S
C163   C169    1.404   .     A
C163   C165    1.418   .     A
C164   C170    1.404   .     A
C164   C166    1.418   .     A
C165   C167    1.417   .     A
C165   C796    1.408   .     S
C166   C168    1.417   .     A
C166   C795    1.408   1_554 S
C169   H171    1.081   .     S
C169   C773    1.380   .     S
C170   H172    1.081   .     S
C170   C774    1.380   1_554 S
N179   Zn189   2.031   .     S
N180   Zn190   2.031   .     S
O181   Zn189   1.995   .     S
O182   Zn190   1.995   .     S
O183   Zn189   1.998   .     S
O184   Zn190   1.998   .     S
O185   Zn189   2.021   .     S
O186   Zn190   2.021   .     S
O187   Zn189   2.009   .     S
O188   Zn190   2.009   .     S
C193   H194    1.085   .     S
C193   O195    1.220   .     D
C196   O198    1.220   .     D
C196   H197    1.085   .     S
C199   H200    1.073   .     S
C199   O201    1.221   .     D
C202   H203    1.073   .     S
C202   O204    1.221   .     D
C205   H206    1.073   .     S
C205   O207    1.221   .     D
C208   O210    1.221   .     D
C208   H209    1.073   .     S
C211   O251    1.290   .     A
C211   O254    1.292   .     A
C211   C220    1.419   .     S
C212   O253    1.292   .     A
C212   O252    1.290   .     A
C212   C219    1.419   .     S
C213   C238    1.400   .     A
C213   H243    1.079   .     S
C213   C869    1.380   1_554 S
C214   H244    1.079   .     S
C214   C237    1.400   .     A
C214   C870    1.380   .     S
C215   H245    1.083   .     S
C215   C220    1.396   .     A
C215   C357    1.369   1_455 S
C216   C219    1.396   .     A
C216   H246    1.083   .     S
C216   C288    1.369   .     S
C217   C219    1.397   .     A
C217   H247    1.083   .     S
C217   C285    1.369   .     S
C218   H248    1.083   .     S
C218   C220    1.397   .     A
C218   C356    1.369   1_455 S
C221   C269    1.482   .     S
C221   N250    1.374   .     A
C222   C272    1.482   .     S
C222   N249    1.374   .     A
C222   C433    1.433   .     S
C223   C275    1.482   .     S
C223   N250    1.375   .     A
C224   C278    1.482   .     S
C224   N249    1.375   .     A
C224   C431    1.433   .     S
C225   C230    1.427   .     S
C225   O258    1.292   .     A
C225   O255    1.290   .     A
C226   C229    1.427   .     S
C226   O257    1.292   .     A
C226   O256    1.290   .     A
C227   I261    2.154   .     S
C227   C229    1.399   .     A
C227   C237    1.396   .     A
C228   I262    2.154   .     S
C228   C238    1.396   .     A
C228   C230    1.399   .     A
C229   C231    1.405   .     A
C230   C232    1.405   .     A
C231   C263    1.490   .     S
C231   C233    1.401   .     A
C232   C234    1.401   .     A
C232   C266    1.490   .     S
C233   C239    1.404   .     A
C233   C235    1.418   .     A
C234   C240    1.404   .     A
C234   C236    1.418   .     A
C235   C237    1.417   .     A
C235   C866    1.408   .     S
C236   C238    1.417   .     A
C236   C865    1.408   1_554 S
C239   H241    1.081   .     S
C239   C843    1.380   .     S
C240   H242    1.081   .     S
C240   C844    1.380   1_554 S
N249   Zn259   2.031   .     S
N250   Zn260   2.031   .     S
O251   Zn259   1.995   .     S
O252   Zn260   1.995   .     S
O253   Zn259   1.998   .     S
O254   Zn260   1.998   .     S
O255   Zn259   2.021   .     S
O256   Zn260   2.021   .     S
O257   Zn259   2.009   .     S
O258   Zn260   2.009   .     S
C263   H264    1.085   .     S
C263   O265    1.220   .     D
C266   O268    1.220   .     D
C266   H267    1.085   .     S
C269   H270    1.073   .     S
C269   O271    1.221   .     D
C272   H273    1.073   .     S
C272   O274    1.221   .     D
C275   H276    1.073   .     S
C275   O277    1.221   .     D
C278   O280    1.221   .     D
C278   H279    1.073   .     S
C281   O321    1.290   .     A
C281   O324    1.292   .     A
C281   C290    1.419   .     S
C282   O323    1.292   .     A
C282   O322    1.290   .     A
C282   C289    1.419   .     S
C283   C308    1.400   .     A
C283   H313    1.079   .     S
C283   C939    1.380   1_554 S
C284   H314    1.079   .     S
C284   C307    1.400   .     A
C284   C940    1.380   .     S
C285   H315    1.083   .     S
C285   C290    1.396   .     A
C286   C289    1.396   .     A
C286   H316    1.083   .     S
C286   C358    1.369   .     S
C287   C289    1.397   .     A
C287   H317    1.083   .     S
C287   C355    1.369   .     S
C288   H318    1.083   .     S
C288   C290    1.397   .     A
C291   C339    1.482   .     S
C291   N320    1.374   .     A
C292   C342    1.482   .     S
C292   N319    1.374   .     A
C292   C503    1.433   .     S
C293   C345    1.482   .     S
C293   N320    1.375   .     A
C294   C348    1.482   .     S
C294   N319    1.375   .     A
C294   C501    1.433   .     S
C295   C300    1.427   .     S
C295   O328    1.292   .     A
C295   O325    1.290   .     A
C296   C299    1.427   .     S
C296   O327    1.292   .     A
C296   O326    1.290   .     A
C297   I331    2.154   .     S
C297   C299    1.399   .     A
C297   C307    1.396   .     A
C298   I332    2.154   .     S
C298   C308    1.396   .     A
C298   C300    1.399   .     A
C299   C301    1.405   .     A
C300   C302    1.405   .     A
C301   C333    1.490   .     S
C301   C303    1.401   .     A
C302   C304    1.401   .     A
C302   C336    1.490   .     S
C303   C309    1.404   .     A
C303   C305    1.418   .     A
C304   C310    1.404   .     A
C304   C306    1.418   .     A
C305   C307    1.417   .     A
C305   C936    1.408   .     S
C306   C308    1.417   .     A
C306   C935    1.408   1_554 S
C309   H311    1.081   .     S
C309   C913    1.380   .     S
C310   H312    1.081   .     S
C310   C914    1.380   1_554 S
N319   Zn329   2.031   .     S
N320   Zn330   2.031   .     S
O321   Zn329   1.995   .     S
O322   Zn330   1.995   .     S
O323   Zn329   1.998   .     S
O324   Zn330   1.998   .     S
O325   Zn329   2.021   .     S
O326   Zn330   2.021   .     S
O327   Zn329   2.009   .     S
O328   Zn330   2.009   .     S
C333   H334    1.085   .     S
C333   O335    1.220   .     D
C336   O338    1.220   .     D
C336   H337    1.085   .     S
C339   H340    1.073   .     S
C339   O341    1.221   .     D
C342   H343    1.073   .     S
C342   O344    1.221   .     D
C345   H346    1.073   .     S
C345   O347    1.221   .     D
C348   O350    1.221   .     D
C348   H349    1.073   .     S
C351   O391    1.290   .     A
C351   O394    1.292   .     A
C351   C360    1.419   .     S
C352   O393    1.292   .     A
C352   O392    1.290   .     A
C352   C359    1.419   .     S
C353   C378    1.400   .     A
C353   H383    1.079   .     S
C353   C1009   1.380   1_554 S
C354   H384    1.079   .     S
C354   C377    1.400   .     A
C354   C1010   1.380   .     S
C355   H385    1.083   .     S
C355   C360    1.396   .     A
C356   C359    1.396   .     A
C356   H386    1.083   .     S
C356   C218    1.369   1_655 S
C357   C359    1.397   .     A
C357   H387    1.083   .     S
C357   C215    1.369   1_655 S
C358   H388    1.083   .     S
C358   C360    1.397   .     A
C361   C409    1.482   .     S
C361   N390    1.374   .     A
C362   C412    1.482   .     S
C362   N389    1.374   .     A
C362   C573    1.433   .     S
C363   C415    1.482   .     S
C363   N390    1.375   .     A
C364   C418    1.482   .     S
C364   N389    1.375   .     A
C364   C571    1.433   .     S
C365   C370    1.427   .     S
C365   O398    1.292   .     A
C365   O395    1.290   .     A
C366   C369    1.427   .     S
C366   O397    1.292   .     A
C366   O396    1.290   .     A
C367   I401    2.154   .     S
C367   C369    1.399   .     A
C367   C377    1.396   .     A
C368   I402    2.154   .     S
C368   C378    1.396   .     A
C368   C370    1.399   .     A
C369   C371    1.405   .     A
C370   C372    1.405   .     A
C371   C403    1.490   .     S
C371   C373    1.401   .     A
C372   C374    1.401   .     A
C372   C406    1.490   .     S
C373   C379    1.404   .     A
C373   C375    1.418   .     A
C374   C380    1.404   .     A
C374   C376    1.418   .     A
C375   C377    1.417   .     A
C375   C1006   1.408   .     S
C376   C378    1.417   .     A
C376   C1005   1.408   1_554 S
C379   H381    1.081   .     S
C379   C983    1.380   .     S
C380   H382    1.081   .     S
C380   C984    1.380   1_554 S
N389   Zn399   2.031   .     S
N390   Zn400   2.031   .     S
O391   Zn399   1.995   .     S
O392   Zn400   1.995   .     S
O393   Zn399   1.998   .     S
O394   Zn400   1.998   .     S
O395   Zn399   2.021   .     S
O396   Zn400   2.021   .     S
O397   Zn399   2.009   .     S
O398   Zn400   2.009   .     S
C403   H404    1.085   .     S
C403   O405    1.220   .     D
C406   O408    1.220   .     D
C406   H407    1.085   .     S
C409   H410    1.073   .     S
C409   O411    1.221   .     D
C412   H413    1.073   .     S
C412   O414    1.221   .     D
C415   H416    1.073   .     S
C415   O417    1.221   .     D
C418   O420    1.221   .     D
C418   H419    1.073   .     S
C421   O461    1.290   .     A
C421   O464    1.292   .     A
C421   C430    1.419   .     S
C422   O463    1.292   .     A
C422   O462    1.290   .     A
C422   C429    1.419   .     S
C423   C448    1.400   .     A
C423   H453    1.079   .     S
C423   C1079   1.380   1_554 S
C424   H454    1.079   .     S
C424   C447    1.400   .     A
C424   C1080   1.380   .     S
C425   H455    1.083   .     S
C425   C430    1.396   .     A
C425   C567    1.369   1_455 S
C426   C429    1.396   .     A
C426   H456    1.083   .     S
C426   C498    1.369   .     S
C427   C429    1.397   .     A
C427   H457    1.083   .     S
C427   C495    1.369   .     S
C428   H458    1.083   .     S
C428   C430    1.397   .     A
C428   C566    1.369   1_455 S
C431   C479    1.482   .     S
C431   N460    1.374   .     A
C432   C482    1.482   .     S
C432   N459    1.374   .     A
C432   C13     1.433   1_565 S
C433   C485    1.482   .     S
C433   N460    1.375   .     A
C434   C488    1.482   .     S
C434   N459    1.375   .     A
C434   C11     1.433   1_565 S
C435   C440    1.427   .     S
C435   O468    1.292   .     A
C435   O465    1.290   .     A
C436   C439    1.427   .     S
C436   O467    1.292   .     A
C436   O466    1.290   .     A
C437   I471    2.154   .     S
C437   C439    1.399   .     A
C437   C447    1.396   .     A
C438   I472    2.154   .     S
C438   C448    1.396   .     A
C438   C440    1.399   .     A
C439   C441    1.405   .     A
C440   C442    1.405   .     A
C441   C473    1.490   .     S
C441   C443    1.401   .     A
C442   C444    1.401   .     A
C442   C476    1.490   .     S
C443   C449    1.404   .     A
C443   C445    1.418   .     A
C444   C450    1.404   .     A
C444   C446    1.418   .     A
C445   C447    1.417   .     A
C445   C1076   1.408   .     S
C446   C448    1.417   .     A
C446   C1075   1.408   1_554 S
C449   H451    1.081   .     S
C449   C1053   1.380   .     S
C450   H452    1.081   .     S
C450   C1054   1.380   1_554 S
N459   Zn469   2.031   .     S
N460   Zn470   2.031   .     S
O461   Zn469   1.995   .     S
O462   Zn470   1.995   .     S
O463   Zn469   1.998   .     S
O464   Zn470   1.998   .     S
O465   Zn469   2.021   .     S
O466   Zn470   2.021   .     S
O467   Zn469   2.009   .     S
O468   Zn470   2.009   .     S
C473   H474    1.085   .     S
C473   O475    1.220   .     D
C476   O478    1.220   .     D
C476   H477    1.085   .     S
C479   H480    1.073   .     S
C479   O481    1.221   .     D
C482   H483    1.073   .     S
C482   O484    1.221   .     D
C485   H486    1.073   .     S
C485   O487    1.221   .     D
C488   O490    1.221   .     D
C488   H489    1.073   .     S
C491   O531    1.290   .     A
C491   O534    1.292   .     A
C491   C500    1.419   .     S
C492   O533    1.292   .     A
C492   O532    1.290   .     A
C492   C499    1.419   .     S
C493   C518    1.400   .     A
C493   H523    1.079   .     S
C493   C1149   1.380   1_554 S
C494   H524    1.079   .     S
C494   C517    1.400   .     A
C494   C1150   1.380   .     S
C495   H525    1.083   .     S
C495   C500    1.396   .     A
C496   C499    1.396   .     A
C496   H526    1.083   .     S
C496   C568    1.369   .     S
C497   C499    1.397   .     A
C497   H527    1.083   .     S
C497   C565    1.369   .     S
C498   H528    1.083   .     S
C498   C500    1.397   .     A
C501   C549    1.482   .     S
C501   N530    1.374   .     A
C502   C552    1.482   .     S
C502   N529    1.374   .     A
C502   C83     1.433   1_565 S
C503   C555    1.482   .     S
C503   N530    1.375   .     A
C504   C558    1.482   .     S
C504   N529    1.375   .     A
C504   C81     1.433   1_565 S
C505   C510    1.427   .     S
C505   O538    1.292   .     A
C505   O535    1.290   .     A
C506   C509    1.427   .     S
C506   O537    1.292   .     A
C506   O536    1.290   .     A
C507   I541    2.154   .     S
C507   C509    1.399   .     A
C507   C517    1.396   .     A
C508   I542    2.154   .     S
C508   C518    1.396   .     A
C508   C510    1.399   .     A
C509   C511    1.405   .     A
C510   C512    1.405   .     A
C511   C543    1.490   .     S
C511   C513    1.401   .     A
C512   C514    1.401   .     A
C512   C546    1.490   .     S
C513   C519    1.404   .     A
C513   C515    1.418   .     A
C514   C520    1.404   .     A
C514   C516    1.418   .     A
C515   C517    1.417   .     A
C515   C1146   1.408   .     S
C516   C518    1.417   .     A
C516   C1145   1.408   1_554 S
C519   H521    1.081   .     S
C519   C1123   1.380   .     S
C520   H522    1.081   .     S
C520   C1124   1.380   1_554 S
N529   Zn539   2.031   .     S
N530   Zn540   2.031   .     S
O531   Zn539   1.995   .     S
O532   Zn540   1.995   .     S
O533   Zn539   1.998   .     S
O534   Zn540   1.998   .     S
O535   Zn539   2.021   .     S
O536   Zn540   2.021   .     S
O537   Zn539   2.009   .     S
O538   Zn540   2.009   .     S
C543   H544    1.085   .     S
C543   O545    1.220   .     D
C546   O548    1.220   .     D
C546   H547    1.085   .     S
C549   H550    1.073   .     S
C549   O551    1.221   .     D
C552   H553    1.073   .     S
C552   O554    1.221   .     D
C555   H556    1.073   .     S
C555   O557    1.221   .     D
C558   O560    1.221   .     D
C558   H559    1.073   .     S
C561   O601    1.290   .     A
C561   O604    1.292   .     A
C561   C570    1.419   .     S
C562   O603    1.292   .     A
C562   O602    1.290   .     A
C562   C569    1.419   .     S
C563   C588    1.400   .     A
C563   H593    1.079   .     S
C563   C1219   1.380   1_554 S
C564   H594    1.079   .     S
C564   C587    1.400   .     A
C564   C1220   1.380   .     S
C565   H595    1.083   .     S
C565   C570    1.396   .     A
C566   C569    1.396   .     A
C566   H596    1.083   .     S
C566   C428    1.369   1_655 S
C567   C569    1.397   .     A
C567   H597    1.083   .     S
C567   C425    1.369   1_655 S
C568   H598    1.083   .     S
C568   C570    1.397   .     A
C571   C619    1.482   .     S
C571   N600    1.374   .     A
C572   C622    1.482   .     S
C572   N599    1.374   .     A
C572   C153    1.433   1_565 S
C573   C625    1.482   .     S
C573   N600    1.375   .     A
C574   C628    1.482   .     S
C574   N599    1.375   .     A
C574   C151    1.433   1_565 S
C575   C580    1.427   .     S
C575   O608    1.292   .     A
C575   O605    1.290   .     A
C576   C579    1.427   .     S
C576   O607    1.292   .     A
C576   O606    1.290   .     A
C577   I611    2.154   .     S
C577   C579    1.399   .     A
C577   C587    1.396   .     A
C578   I612    2.154   .     S
C578   C588    1.396   .     A
C578   C580    1.399   .     A
C579   C581    1.405   .     A
C580   C582    1.405   .     A
C581   C613    1.490   .     S
C581   C583    1.401   .     A
C582   C584    1.401   .     A
C582   C616    1.490   .     S
C583   C589    1.404   .     A
C583   C585    1.418   .     A
C584   C590    1.404   .     A
C584   C586    1.418   .     A
C585   C587    1.417   .     A
C585   C1216   1.408   .     S
C586   C588    1.417   .     A
C586   C1215   1.408   1_554 S
C589   H591    1.081   .     S
C589   C1193   1.380   .     S
C590   H592    1.081   .     S
C590   C1194   1.380   1_554 S
N599   Zn609   2.031   .     S
N600   Zn610   2.031   .     S
O601   Zn609   1.995   .     S
O602   Zn610   1.995   .     S
O603   Zn609   1.998   .     S
O604   Zn610   1.998   .     S
O605   Zn609   2.021   .     S
O606   Zn610   2.021   .     S
O607   Zn609   2.009   .     S
O608   Zn610   2.009   .     S
C613   H614    1.085   .     S
C613   O615    1.220   .     D
C616   O618    1.220   .     D
C616   H617    1.085   .     S
C619   H620    1.073   .     S
C619   O621    1.221   .     D
C622   H623    1.073   .     S
C622   O624    1.221   .     D
C625   H626    1.073   .     S
C625   O627    1.221   .     D
C628   O630    1.221   .     D
C628   H629    1.073   .     S
C631   O671    1.290   .     A
C631   O674    1.292   .     A
C631   C640    1.419   .     S
C632   O673    1.292   .     A
C632   O672    1.290   .     A
C632   C639    1.419   .     S
C633   C658    1.400   .     A
C633   H663    1.079   .     S
C634   H664    1.079   .     S
C634   C657    1.400   .     A
C634   C30     1.380   1_556 S
C635   H665    1.083   .     S
C635   C640    1.396   .     A
C635   C777    1.369   1_455 S
C636   C639    1.396   .     A
C636   H666    1.083   .     S
C636   C708    1.369   .     S
C637   C639    1.397   .     A
C637   H667    1.083   .     S
C637   C705    1.369   .     S
C638   H668    1.083   .     S
C638   C640    1.397   .     A
C638   C776    1.369   1_455 S
C641   C689    1.482   .     S
C641   N670    1.374   .     A
C641   C1064   1.433   1_545 S
C642   C692    1.482   .     S
C642   N669    1.374   .     A
C642   C853    1.433   .     S
C643   C695    1.482   .     S
C643   N670    1.375   .     A
C643   C1062   1.433   1_545 S
C644   C698    1.482   .     S
C644   N669    1.375   .     A
C644   C851    1.433   .     S
C645   C650    1.427   .     S
C645   O678    1.292   .     A
C645   O675    1.290   .     A
C646   C649    1.427   .     S
C646   O677    1.292   .     A
C646   O676    1.290   .     A
C647   I681    2.154   .     S
C647   C649    1.399   .     A
C647   C657    1.396   .     A
C648   I682    2.154   .     S
C648   C658    1.396   .     A
C648   C650    1.399   .     A
C649   C651    1.405   .     A
C650   C652    1.405   .     A
C651   C683    1.490   .     S
C651   C653    1.401   .     A
C652   C654    1.401   .     A
C652   C686    1.490   .     S
C653   C659    1.404   .     A
C653   C655    1.418   .     A
C654   C660    1.404   .     A
C654   C656    1.418   .     A
C655   C657    1.417   .     A
C655   C26     1.408   1_556 S
C656   C658    1.417   .     A
C659   H661    1.081   .     S
C659   C3      1.380   1_556 S
C660   H662    1.081   .     S
N669   Zn679   2.031   .     S
N670   Zn680   2.031   .     S
O671   Zn679   1.995   .     S
O672   Zn680   1.995   .     S
O673   Zn679   1.998   .     S
O674   Zn680   1.998   .     S
O675   Zn679   2.021   .     S
O676   Zn680   2.021   .     S
O677   Zn679   2.009   .     S
O678   Zn680   2.009   .     S
C683   H684    1.085   .     S
C683   O685    1.220   .     D
C686   O688    1.220   .     D
C686   H687    1.085   .     S
C689   H690    1.073   .     S
C689   O691    1.221   .     D
C692   H693    1.073   .     S
C692   O694    1.221   .     D
C695   H696    1.073   .     S
C695   O697    1.221   .     D
C698   O700    1.221   .     D
C698   H699    1.073   .     S
C701   O741    1.290   .     A
C701   O744    1.292   .     A
C701   C710    1.419   .     S
C702   O743    1.292   .     A
C702   O742    1.290   .     A
C702   C709    1.419   .     S
C703   C728    1.400   .     A
C703   H733    1.079   .     S
C704   H734    1.079   .     S
C704   C727    1.400   .     A
C704   C100    1.380   1_556 S
C705   H735    1.083   .     S
C705   C710    1.396   .     A
C706   C709    1.396   .     A
C706   H736    1.083   .     S
C706   C778    1.369   .     S
C707   C709    1.397   .     A
C707   H737    1.083   .     S
C707   C775    1.369   .     S
C708   H738    1.083   .     S
C708   C710    1.397   .     A
C711   C759    1.482   .     S
C711   N740    1.374   .     A
C711   C1134   1.433   1_545 S
C712   C762    1.482   .     S
C712   N739    1.374   .     A
C712   C923    1.433   .     S
C713   C765    1.482   .     S
C713   N740    1.375   .     A
C713   C1132   1.433   1_545 S
C714   C768    1.482   .     S
C714   N739    1.375   .     A
C714   C921    1.433   .     S
C715   C720    1.427   .     S
C715   O748    1.292   .     A
C715   O745    1.290   .     A
C716   C719    1.427   .     S
C716   O747    1.292   .     A
C716   O746    1.290   .     A
C717   I751    2.154   .     S
C717   C719    1.399   .     A
C717   C727    1.396   .     A
C718   I752    2.154   .     S
C718   C728    1.396   .     A
C718   C720    1.399   .     A
C719   C721    1.405   .     A
C720   C722    1.405   .     A
C721   C753    1.490   .     S
C721   C723    1.401   .     A
C722   C724    1.401   .     A
C722   C756    1.490   .     S
C723   C729    1.404   .     A
C723   C725    1.418   .     A
C724   C730    1.404   .     A
C724   C726    1.418   .     A
C725   C727    1.417   .     A
C725   C96     1.408   1_556 S
C726   C728    1.417   .     A
C729   H731    1.081   .     S
C729   C73     1.380   1_556 S
C730   H732    1.081   .     S
N739   Zn749   2.031   .     S
N740   Zn750   2.031   .     S
O741   Zn749   1.995   .     S
O742   Zn750   1.995   .     S
O743   Zn749   1.998   .     S
O744   Zn750   1.998   .     S
O745   Zn749   2.021   .     S
O746   Zn750   2.021   .     S
O747   Zn749   2.009   .     S
O748   Zn750   2.009   .     S
C753   H754    1.085   .     S
C753   O755    1.220   .     D
C756   O758    1.220   .     D
C756   H757    1.085   .     S
C759   H760    1.073   .     S
C759   O761    1.221   .     D
C762   H763    1.073   .     S
C762   O764    1.221   .     D
C765   H766    1.073   .     S
C765   O767    1.221   .     D
C768   O770    1.221   .     D
C768   H769    1.073   .     S
C771   O811    1.290   .     A
C771   O814    1.292   .     A
C771   C780    1.419   .     S
C772   O813    1.292   .     A
C772   O812    1.290   .     A
C772   C779    1.419   .     S
C773   C798    1.400   .     A
C773   H803    1.079   .     S
C774   H804    1.079   .     S
C774   C797    1.400   .     A
C774   C170    1.380   1_556 S
C775   H805    1.083   .     S
C775   C780    1.396   .     A
C776   C779    1.396   .     A
C776   H806    1.083   .     S
C776   C638    1.369   1_655 S
C777   C779    1.397   .     A
C777   H807    1.083   .     S
C777   C635    1.369   1_655 S
C778   H808    1.083   .     S
C778   C780    1.397   .     A
C781   C829    1.482   .     S
C781   N810    1.374   .     A
C781   C1204   1.433   1_545 S
C782   C832    1.482   .     S
C782   N809    1.374   .     A
C782   C993    1.433   .     S
C783   C835    1.482   .     S
C783   N810    1.375   .     A
C783   C1202   1.433   1_545 S
C784   C838    1.482   .     S
C784   N809    1.375   .     A
C784   C991    1.433   .     S
C785   C790    1.427   .     S
C785   O818    1.292   .     A
C785   O815    1.290   .     A
C786   C789    1.427   .     S
C786   O817    1.292   .     A
C786   O816    1.290   .     A
C787   I821    2.154   .     S
C787   C789    1.399   .     A
C787   C797    1.396   .     A
C788   I822    2.154   .     S
C788   C798    1.396   .     A
C788   C790    1.399   .     A
C789   C791    1.405   .     A
C790   C792    1.405   .     A
C791   C823    1.490   .     S
C791   C793    1.401   .     A
C792   C794    1.401   .     A
C792   C826    1.490   .     S
C793   C799    1.404   .     A
C793   C795    1.418   .     A
C794   C800    1.404   .     A
C794   C796    1.418   .     A
C795   C797    1.417   .     A
C795   C166    1.408   1_556 S
C796   C798    1.417   .     A
C799   H801    1.081   .     S
C799   C143    1.380   1_556 S
C800   H802    1.081   .     S
N809   Zn819   2.031   .     S
N810   Zn820   2.031   .     S
O811   Zn819   1.995   .     S
O812   Zn820   1.995   .     S
O813   Zn819   1.998   .     S
O814   Zn820   1.998   .     S
O815   Zn819   2.021   .     S
O816   Zn820   2.021   .     S
O817   Zn819   2.009   .     S
O818   Zn820   2.009   .     S
C823   H824    1.085   .     S
C823   O825    1.220   .     D
C826   O828    1.220   .     D
C826   H827    1.085   .     S
C829   H830    1.073   .     S
C829   O831    1.221   .     D
C832   H833    1.073   .     S
C832   O834    1.221   .     D
C835   H836    1.073   .     S
C835   O837    1.221   .     D
C838   O840    1.221   .     D
C838   H839    1.073   .     S
C841   O881    1.290   .     A
C841   O884    1.292   .     A
C841   C850    1.419   .     S
C842   O883    1.292   .     A
C842   O882    1.290   .     A
C842   C849    1.419   .     S
C843   C868    1.400   .     A
C843   H873    1.079   .     S
C844   H874    1.079   .     S
C844   C867    1.400   .     A
C844   C240    1.380   1_556 S
C845   H875    1.083   .     S
C845   C850    1.396   .     A
C845   C987    1.369   1_455 S
C846   C849    1.396   .     A
C846   H876    1.083   .     S
C846   C918    1.369   .     S
C847   C849    1.397   .     A
C847   H877    1.083   .     S
C847   C915    1.369   .     S
C848   H878    1.083   .     S
C848   C850    1.397   .     A
C848   C986    1.369   1_455 S
C851   C899    1.482   .     S
C851   N880    1.374   .     A
C852   C902    1.482   .     S
C852   N879    1.374   .     A
C852   C1063   1.433   .     S
C853   C905    1.482   .     S
C853   N880    1.375   .     A
C854   C908    1.482   .     S
C854   N879    1.375   .     A
C854   C1061   1.433   .     S
C855   C860    1.427   .     S
C855   O888    1.292   .     A
C855   O885    1.290   .     A
C856   C859    1.427   .     S
C856   O887    1.292   .     A
C856   O886    1.290   .     A
C857   I891    2.154   .     S
C857   C859    1.399   .     A
C857   C867    1.396   .     A
C858   I892    2.154   .     S
C858   C868    1.396   .     A
C858   C860    1.399   .     A
C859   C861    1.405   .     A
C860   C862    1.405   .     A
C861   C893    1.490   .     S
C861   C863    1.401   .     A
C862   C864    1.401   .     A
C862   C896    1.490   .     S
C863   C869    1.404   .     A
C863   C865    1.418   .     A
C864   C870    1.404   .     A
C864   C866    1.418   .     A
C865   C867    1.417   .     A
C865   C236    1.408   1_556 S
C866   C868    1.417   .     A
C869   H871    1.081   .     S
C869   C213    1.380   1_556 S
C870   H872    1.081   .     S
N879   Zn889   2.031   .     S
N880   Zn890   2.031   .     S
O881   Zn889   1.995   .     S
O882   Zn890   1.995   .     S
O883   Zn889   1.998   .     S
O884   Zn890   1.998   .     S
O885   Zn889   2.021   .     S
O886   Zn890   2.021   .     S
O887   Zn889   2.009   .     S
O888   Zn890   2.009   .     S
C893   H894    1.085   .     S
C893   O895    1.220   .     D
C896   O898    1.220   .     D
C896   H897    1.085   .     S
C899   H900    1.073   .     S
C899   O901    1.221   .     D
C902   H903    1.073   .     S
C902   O904    1.221   .     D
C905   H906    1.073   .     S
C905   O907    1.221   .     D
C908   O910    1.221   .     D
C908   H909    1.073   .     S
C911   O951    1.290   .     A
C911   O954    1.292   .     A
C911   C920    1.419   .     S
C912   O953    1.292   .     A
C912   O952    1.290   .     A
C912   C919    1.419   .     S
C913   C938    1.400   .     A
C913   H943    1.079   .     S
C914   H944    1.079   .     S
C914   C937    1.400   .     A
C914   C310    1.380   1_556 S
C915   H945    1.083   .     S
C915   C920    1.396   .     A
C916   C919    1.396   .     A
C916   H946    1.083   .     S
C916   C988    1.369   .     S
C917   C919    1.397   .     A
C917   H947    1.083   .     S
C917   C985    1.369   .     S
C918   H948    1.083   .     S
C918   C920    1.397   .     A
C921   C969    1.482   .     S
C921   N950    1.374   .     A
C922   C972    1.482   .     S
C922   N949    1.374   .     A
C922   C1133   1.433   .     S
C923   C975    1.482   .     S
C923   N950    1.375   .     A
C924   C978    1.482   .     S
C924   N949    1.375   .     A
C924   C1131   1.433   .     S
C925   C930    1.427   .     S
C925   O958    1.292   .     A
C925   O955    1.290   .     A
C926   C929    1.427   .     S
C926   O957    1.292   .     A
C926   O956    1.290   .     A
C927   I961    2.154   .     S
C927   C929    1.399   .     A
C927   C937    1.396   .     A
C928   I962    2.154   .     S
C928   C938    1.396   .     A
C928   C930    1.399   .     A
C929   C931    1.405   .     A
C930   C932    1.405   .     A
C931   C963    1.490   .     S
C931   C933    1.401   .     A
C932   C934    1.401   .     A
C932   C966    1.490   .     S
C933   C939    1.404   .     A
C933   C935    1.418   .     A
C934   C940    1.404   .     A
C934   C936    1.418   .     A
C935   C937    1.417   .     A
C935   C306    1.408   1_556 S
C936   C938    1.417   .     A
C939   H941    1.081   .     S
C939   C283    1.380   1_556 S
C940   H942    1.081   .     S
N949   Zn959   2.031   .     S
N950   Zn960   2.031   .     S
O951   Zn959   1.995   .     S
O952   Zn960   1.995   .     S
O953   Zn959   1.998   .     S
O954   Zn960   1.998   .     S
O955   Zn959   2.021   .     S
O956   Zn960   2.021   .     S
O957   Zn959   2.009   .     S
O958   Zn960   2.009   .     S
C963   H964    1.085   .     S
C963   O965    1.220   .     D
C966   O968    1.220   .     D
C966   H967    1.085   .     S
C969   H970    1.073   .     S
C969   O971    1.221   .     D
C972   H973    1.073   .     S
C972   O974    1.221   .     D
C975   H976    1.073   .     S
C975   O977    1.221   .     D
C978   O980    1.221   .     D
C978   H979    1.073   .     S
C981   O1021   1.290   .     A
C981   O1024   1.292   .     A
C981   C990    1.419   .     S
C982   O1023   1.292   .     A
C982   O1022   1.290   .     A
C982   C989    1.419   .     S
C983   C1008   1.400   .     A
C983   H1013   1.079   .     S
C984   H1014   1.079   .     S
C984   C1007   1.400   .     A
C984   C380    1.380   1_556 S
C985   H1015   1.083   .     S
C985   C990    1.396   .     A
C986   C989    1.396   .     A
C986   H1016   1.083   .     S
C986   C848    1.369   1_655 S
C987   C989    1.397   .     A
C987   H1017   1.083   .     S
C987   C845    1.369   1_655 S
C988   H1018   1.083   .     S
C988   C990    1.397   .     A
C991   C1039   1.482   .     S
C991   N1020   1.374   .     A
C992   C1042   1.482   .     S
C992   N1019   1.374   .     A
C992   C1203   1.433   .     S
C993   C1045   1.482   .     S
C993   N1020   1.375   .     A
C994   C1048   1.482   .     S
C994   N1019   1.375   .     A
C994   C1201   1.433   .     S
C995   C1000   1.427   .     S
C995   O1028   1.292   .     A
C995   O1025   1.290   .     A
C996   C999    1.427   .     S
C996   O1027   1.292   .     A
C996   O1026   1.290   .     A
C997   I1031   2.154   .     S
C997   C999    1.399   .     A
C997   C1007   1.396   .     A
C998   I1032   2.154   .     S
C998   C1008   1.396   .     A
C998   C1000   1.399   .     A
C999   C1001   1.405   .     A
C1000  C1002   1.405   .     A
C1001  C1033   1.490   .     S
C1001  C1003   1.401   .     A
C1002  C1004   1.401   .     A
C1002  C1036   1.490   .     S
C1003  C1009   1.404   .     A
C1003  C1005   1.418   .     A
C1004  C1010   1.404   .     A
C1004  C1006   1.418   .     A
C1005  C1007   1.417   .     A
C1005  C376    1.408   1_556 S
C1006  C1008   1.417   .     A
C1009  H1011   1.081   .     S
C1009  C353    1.380   1_556 S
C1010  H1012   1.081   .     S
N1019  Zn1029  2.031   .     S
N1020  Zn1030  2.031   .     S
O1021  Zn1029  1.995   .     S
O1022  Zn1030  1.995   .     S
O1023  Zn1029  1.998   .     S
O1024  Zn1030  1.998   .     S
O1025  Zn1029  2.021   .     S
O1026  Zn1030  2.021   .     S
O1027  Zn1029  2.009   .     S
O1028  Zn1030  2.009   .     S
C1033  H1034   1.085   .     S
C1033  O1035   1.220   .     D
C1036  O1038   1.220   .     D
C1036  H1037   1.085   .     S
C1039  H1040   1.073   .     S
C1039  O1041   1.221   .     D
C1042  H1043   1.073   .     S
C1042  O1044   1.221   .     D
C1045  H1046   1.073   .     S
C1045  O1047   1.221   .     D
C1048  O1050   1.221   .     D
C1048  H1049   1.073   .     S
C1051  O1091   1.290   .     A
C1051  O1094   1.292   .     A
C1051  C1060   1.419   .     S
C1052  O1093   1.292   .     A
C1052  O1092   1.290   .     A
C1052  C1059   1.419   .     S
C1053  C1078   1.400   .     A
C1053  H1083   1.079   .     S
C1054  H1084   1.079   .     S
C1054  C1077   1.400   .     A
C1054  C450    1.380   1_556 S
C1055  H1085   1.083   .     S
C1055  C1060   1.396   .     A
C1055  C1197   1.369   1_455 S
C1056  C1059   1.396   .     A
C1056  H1086   1.083   .     S
C1056  C1128   1.369   .     S
C1057  C1059   1.397   .     A
C1057  H1087   1.083   .     S
C1057  C1125   1.369   .     S
C1058  H1088   1.083   .     S
C1058  C1060   1.397   .     A
C1058  C1196   1.369   1_455 S
C1061  C1109   1.482   .     S
C1061  N1090   1.374   .     A
C1062  C1112   1.482   .     S
C1062  N1089   1.374   .     A
C1062  C643    1.433   1_565 S
C1063  C1115   1.482   .     S
C1063  N1090   1.375   .     A
C1064  C1118   1.482   .     S
C1064  N1089   1.375   .     A
C1064  C641    1.433   1_565 S
C1065  C1070   1.427   .     S
C1065  O1098   1.292   .     A
C1065  O1095   1.290   .     A
C1066  C1069   1.427   .     S
C1066  O1097   1.292   .     A
C1066  O1096   1.290   .     A
C1067  I1101   2.154   .     S
C1067  C1069   1.399   .     A
C1067  C1077   1.396   .     A
C1068  I1102   2.154   .     S
C1068  C1078   1.396   .     A
C1068  C1070   1.399   .     A
C1069  C1071   1.405   .     A
C1070  C1072   1.405   .     A
C1071  C1103   1.490   .     S
C1071  C1073   1.401   .     A
C1072  C1074   1.401   .     A
C1072  C1106   1.490   .     S
C1073  C1079   1.404   .     A
C1073  C1075   1.418   .     A
C1074  C1080   1.404   .     A
C1074  C1076   1.418   .     A
C1075  C1077   1.417   .     A
C1075  C446    1.408   1_556 S
C1076  C1078   1.417   .     A
C1079  H1081   1.081   .     S
C1079  C423    1.380   1_556 S
C1080  H1082   1.081   .     S
N1089  Zn1099  2.031   .     S
N1090  Zn1100  2.031   .     S
O1091  Zn1099  1.995   .     S
O1092  Zn1100  1.995   .     S
O1093  Zn1099  1.998   .     S
O1094  Zn1100  1.998   .     S
O1095  Zn1099  2.021   .     S
O1096  Zn1100  2.021   .     S
O1097  Zn1099  2.009   .     S
O1098  Zn1100  2.009   .     S
C1103  H1104   1.085   .     S
C1103  O1105   1.220   .     D
C1106  O1108   1.220   .     D
C1106  H1107   1.085   .     S
C1109  H1110   1.073   .     S
C1109  O1111   1.221   .     D
C1112  H1113   1.073   .     S
C1112  O1114   1.221   .     D
C1115  H1116   1.073   .     S
C1115  O1117   1.221   .     D
C1118  O1120   1.221   .     D
C1118  H1119   1.073   .     S
C1121  O1161   1.290   .     A
C1121  O1164   1.292   .     A
C1121  C1130   1.419   .     S
C1122  O1163   1.292   .     A
C1122  O1162   1.290   .     A
C1122  C1129   1.419   .     S
C1123  C1148   1.400   .     A
C1123  H1153   1.079   .     S
C1124  H1154   1.079   .     S
C1124  C1147   1.400   .     A
C1124  C520    1.380   1_556 S
C1125  H1155   1.083   .     S
C1125  C1130   1.396   .     A
C1126  C1129   1.396   .     A
C1126  H1156   1.083   .     S
C1126  C1198   1.369   .     S
C1127  C1129   1.397   .     A
C1127  H1157   1.083   .     S
C1127  C1195   1.369   .     S
C1128  H1158   1.083   .     S
C1128  C1130   1.397   .     A
C1131  C1179   1.482   .     S
C1131  N1160   1.374   .     A
C1132  C1182   1.482   .     S
C1132  N1159   1.374   .     A
C1132  C713    1.433   1_565 S
C1133  C1185   1.482   .     S
C1133  N1160   1.375   .     A
C1134  C1188   1.482   .     S
C1134  N1159   1.375   .     A
C1134  C711    1.433   1_565 S
C1135  C1140   1.427   .     S
C1135  O1168   1.292   .     A
C1135  O1165   1.290   .     A
C1136  C1139   1.427   .     S
C1136  O1167   1.292   .     A
C1136  O1166   1.290   .     A
C1137  I1171   2.154   .     S
C1137  C1139   1.399   .     A
C1137  C1147   1.396   .     A
C1138  I1172   2.154   .     S
C1138  C1148   1.396   .     A
C1138  C1140   1.399   .     A
C1139  C1141   1.405   .     A
C1140  C1142   1.405   .     A
C1141  C1173   1.490   .     S
C1141  C1143   1.401   .     A
C1142  C1144   1.401   .     A
C1142  C1176   1.490   .     S
C1143  C1149   1.404   .     A
C1143  C1145   1.418   .     A
C1144  C1150   1.404   .     A
C1144  C1146   1.418   .     A
C1145  C1147   1.417   .     A
C1145  C516    1.408   1_556 S
C1146  C1148   1.417   .     A
C1149  H1151   1.081   .     S
C1149  C493    1.380   1_556 S
C1150  H1152   1.081   .     S
N1159  Zn1169  2.031   .     S
N1160  Zn1170  2.031   .     S
O1161  Zn1169  1.995   .     S
O1162  Zn1170  1.995   .     S
O1163  Zn1169  1.998   .     S
O1164  Zn1170  1.998   .     S
O1165  Zn1169  2.021   .     S
O1166  Zn1170  2.021   .     S
O1167  Zn1169  2.009   .     S
O1168  Zn1170  2.009   .     S
C1173  H1174   1.085   .     S
C1173  O1175   1.220   .     D
C1176  O1178   1.220   .     D
C1176  H1177   1.085   .     S
C1179  H1180   1.073   .     S
C1179  O1181   1.221   .     D
C1182  H1183   1.073   .     S
C1182  O1184   1.221   .     D
C1185  H1186   1.073   .     S
C1185  O1187   1.221   .     D
C1188  O1190   1.221   .     D
C1188  H1189   1.073   .     S
C1191  O1231   1.290   .     A
C1191  O1234   1.292   .     A
C1191  C1200   1.419   .     S
C1192  O1233   1.292   .     A
C1192  O1232   1.290   .     A
C1192  C1199   1.419   .     S
C1193  C1218   1.400   .     A
C1193  H1223   1.079   .     S
C1194  H1224   1.079   .     S
C1194  C1217   1.400   .     A
C1194  C590    1.380   1_556 S
C1195  H1225   1.083   .     S
C1195  C1200   1.396   .     A
C1196  C1199   1.396   .     A
C1196  H1226   1.083   .     S
C1196  C1058   1.369   1_655 S
C1197  C1199   1.397   .     A
C1197  H1227   1.083   .     S
C1197  C1055   1.369   1_655 S
C1198  H1228   1.083   .     S
C1198  C1200   1.397   .     A
C1201  C1249   1.482   .     S
C1201  N1230   1.374   .     A
C1202  C1252   1.482   .     S
C1202  N1229   1.374   .     A
C1202  C783    1.433   1_565 S
C1203  C1255   1.482   .     S
C1203  N1230   1.375   .     A
C1204  C1258   1.482   .     S
C1204  N1229   1.375   .     A
C1204  C781    1.433   1_565 S
C1205  C1210   1.427   .     S
C1205  O1238   1.292   .     A
C1205  O1235   1.290   .     A
C1206  C1209   1.427   .     S
C1206  O1237   1.292   .     A
C1206  O1236   1.290   .     A
C1207  I1241   2.154   .     S
C1207  C1209   1.399   .     A
C1207  C1217   1.396   .     A
C1208  I1242   2.154   .     S
C1208  C1218   1.396   .     A
C1208  C1210   1.399   .     A
C1209  C1211   1.405   .     A
C1210  C1212   1.405   .     A
C1211  C1243   1.490   .     S
C1211  C1213   1.401   .     A
C1212  C1214   1.401   .     A
C1212  C1246   1.490   .     S
C1213  C1219   1.404   .     A
C1213  C1215   1.418   .     A
C1214  C1220   1.404   .     A
C1214  C1216   1.418   .     A
C1215  C1217   1.417   .     A
C1215  C586    1.408   1_556 S
C1216  C1218   1.417   .     A
C1219  H1221   1.081   .     S
C1219  C563    1.380   1_556 S
C1220  H1222   1.081   .     S
N1229  Zn1239  2.031   .     S
N1230  Zn1240  2.031   .     S
O1231  Zn1239  1.995   .     S
O1232  Zn1240  1.995   .     S
O1233  Zn1239  1.998   .     S
O1234  Zn1240  1.998   .     S
O1235  Zn1239  2.021   .     S
O1236  Zn1240  2.021   .     S
O1237  Zn1239  2.009   .     S
O1238  Zn1240  2.009   .     S
C1243  H1244   1.085   .     S
C1243  O1245   1.220   .     D
C1246  O1248   1.220   .     D
C1246  H1247   1.085   .     S
C1249  H1250   1.073   .     S
C1249  O1251   1.221   .     D
C1252  H1253   1.073   .     S
C1252  O1254   1.221   .     D
C1255  H1256   1.073   .     S
C1255  O1257   1.221   .     D
C1258  O1260   1.221   .     D
C1258  H1259   1.073   .     S
