data_str_m3_o10_o17_pcu_sym.51
_audit_creation_date              2020-01-03
_audit_creation_method            'Materials Studio'
_symmetry_space_group_name_H-M    'P1'
_symmetry_Int_Tables_number       1
_symmetry_cell_setting            triclinic
loop_
_symmetry_equiv_pos_as_xyz
  x,y,z
_cell_length_a                    23.3260
_cell_length_b                    25.6652
_cell_length_c                    29.7366
_cell_angle_alpha                 91.1467
_cell_angle_beta                  85.7898
_cell_angle_gamma                 93.6305
loop_
_atom_site_label
_atom_site_type_symbol
_atom_site_fract_x
_atom_site_fract_y
_atom_site_fract_z
_atom_site_U_iso_or_equiv
_atom_site_adp_type
_atom_site_occupancy
C1     C     0.18191   0.26489   0.24884   0.00000  Uiso   1.00
C2     C     0.19389   0.20928   0.40568   0.00000  Uiso   1.00
C3     C     0.16483   0.16696   0.11609   0.00000  Uiso   1.00
C4     C     0.16850   0.16638   0.38391   0.00000  Uiso   1.00
C5     C     0.19129   0.20925   0.09284   0.00000  Uiso   1.00
C6     C     0.14204   0.12408   0.40716   0.00000  Uiso   1.00
C7     C     0.19140   0.20974   0.04639   0.00000  Uiso   1.00
C8     C     0.14194   0.12359   0.45361   0.00000  Uiso   1.00
C9     C     0.16659   0.16622   0.02340   0.00000  Uiso   1.00
C10    C     0.16674   0.16711   0.47660   0.00000  Uiso   1.00
C11    C     0.14176   0.12193   0.04737   0.00000  Uiso   1.00
C12    C     0.15142   0.06844   0.25116   0.00000  Uiso   1.00
C13    C     0.19158   0.21140   0.45263   0.00000  Uiso   1.00
C14    C     0.21519   0.25351   0.02301   0.00000  Uiso   1.00
C15    C     0.11814   0.07983   0.47699   0.00000  Uiso   1.00
C16    C     0.23549   0.30517   0.45392   0.00000  Uiso   1.00
C17    C     0.09784   0.02816   0.04608   0.00000  Uiso   1.00
C18    C     0.21444   0.25556   0.47623   0.00000  Uiso   1.00
C19    C     0.11889   0.07777   0.02377   0.00000  Uiso   1.00
C20    C     0.18995   0.31940   0.24816   0.00000  Uiso   1.00
C21    C     0.14338   0.01394   0.25184   0.00000  Uiso   1.00
C22    C     0.16733   0.16666   0.33637   0.00000  Uiso   1.00
C23    C     0.16600   0.16667   0.16363   0.00000  Uiso   1.00
C24    C     0.13945   0.12405   0.09432   0.00000  Uiso   1.00
H25    H     0.11837   0.09287   0.11454   0.00000  Uiso   1.00
H26    H     0.32877   0.20587   0.28402   0.00000  Uiso   1.00
H27    H     0.22288   0.02663   0.40851   0.00000  Uiso   1.00
H28    H     0.11045   0.30670   0.09149   0.00000  Uiso   1.00
H29    H     0.21497   0.24047   0.38546   0.00000  Uiso   1.00
H30    H     0.21070   0.24204   0.11114   0.00000  Uiso   1.00
H31    H     0.12263   0.09129   0.38886   0.00000  Uiso   1.00
H32    H     0.23279   0.28696   0.04151   0.00000  Uiso   1.00
H33    H     0.10054   0.04638   0.45849   0.00000  Uiso   1.00
H34    H     0.23394   0.00307   0.24465   0.00000  Uiso   1.00
H35    H     0.09939   0.33027   0.25535   0.00000  Uiso   1.00
H36    H     0.00456   0.12746   0.21598   0.00000  Uiso   1.00
N37    N     0.31678   0.15265   0.23783   0.00000  Uiso   1.00
N38    N     0.01656   0.18068   0.26217   0.00000  Uiso   1.00
O39    O     0.12975   0.24619   0.25299   0.00000  Uiso   1.00
O40    O     0.20478   0.32549   0.42033   0.00000  Uiso   1.00
O41    O     0.05493   0.00381   0.03361   0.00000  Uiso   1.00
O42    O     0.12856   0.00784   0.07967   0.00000  Uiso   1.00
O43    O     0.20358   0.08714   0.24702   0.00000  Uiso   1.00
O44    O     0.22613   0.23721   0.24519   0.00000  Uiso   1.00
O45    O     0.10720   0.09613   0.25481   0.00000  Uiso   1.00
O46    O     0.11847   0.17117   0.31997   0.00000  Uiso   1.00
O47    O     0.21486   0.16216   0.18003   0.00000  Uiso   1.00
O48    O     0.21485   0.16219   0.31218   0.00000  Uiso   1.00
O49    O     0.11848   0.17115   0.18783   0.00000  Uiso   1.00
O50    O     0.27840   0.32952   0.46639   0.00000  Uiso   1.00
Zn51   Zn    0.10231   0.17266   0.25521   0.00000  Uiso   1.00
Zn52   Zn    0.23102   0.16067   0.24479   0.00000  Uiso   1.00
C53    C     0.51524   0.26489   0.24884   0.00000  Uiso   1.00
C54    C     0.52722   0.20928   0.40568   0.00000  Uiso   1.00
C55    C     0.49816   0.16696   0.11609   0.00000  Uiso   1.00
C56    C     0.50184   0.16638   0.38391   0.00000  Uiso   1.00
C57    C     0.52462   0.20925   0.09284   0.00000  Uiso   1.00
C58    C     0.47538   0.12408   0.40716   0.00000  Uiso   1.00
C59    C     0.52473   0.20974   0.04639   0.00000  Uiso   1.00
C60    C     0.47527   0.12359   0.45361   0.00000  Uiso   1.00
C61    C     0.49993   0.16622   0.02340   0.00000  Uiso   1.00
C62    C     0.50007   0.16711   0.47660   0.00000  Uiso   1.00
C63    C     0.47509   0.12193   0.04737   0.00000  Uiso   1.00
C64    C     0.48476   0.06844   0.25116   0.00000  Uiso   1.00
C65    C     0.52491   0.21140   0.45263   0.00000  Uiso   1.00
C66    C     0.54852   0.25351   0.02301   0.00000  Uiso   1.00
C67    C     0.45148   0.07983   0.47699   0.00000  Uiso   1.00
C68    C     0.56882   0.30517   0.45392   0.00000  Uiso   1.00
C69    C     0.43118   0.02816   0.04608   0.00000  Uiso   1.00
C70    C     0.54777   0.25556   0.47623   0.00000  Uiso   1.00
C71    C     0.45223   0.07777   0.02377   0.00000  Uiso   1.00
C72    C     0.52328   0.31940   0.24816   0.00000  Uiso   1.00
C73    C     0.47672   0.01394   0.25184   0.00000  Uiso   1.00
C74    C     0.50067   0.16666   0.33637   0.00000  Uiso   1.00
C75    C     0.49933   0.16667   0.16363   0.00000  Uiso   1.00
C76    C     0.47278   0.12405   0.09432   0.00000  Uiso   1.00
H77    H     0.45170   0.09287   0.11454   0.00000  Uiso   1.00
H78    H     0.66211   0.20587   0.28402   0.00000  Uiso   1.00
H79    H     0.55622   0.02663   0.40851   0.00000  Uiso   1.00
H80    H     0.44378   0.30670   0.09149   0.00000  Uiso   1.00
H81    H     0.54830   0.24047   0.38546   0.00000  Uiso   1.00
H82    H     0.54403   0.24204   0.11114   0.00000  Uiso   1.00
H83    H     0.45597   0.09129   0.38886   0.00000  Uiso   1.00
H84    H     0.56612   0.28696   0.04151   0.00000  Uiso   1.00
H85    H     0.43388   0.04638   0.45849   0.00000  Uiso   1.00
H86    H     0.56727   0.00307   0.24465   0.00000  Uiso   1.00
H87    H     0.43273   0.33027   0.25535   0.00000  Uiso   1.00
H88    H     0.33789   0.12746   0.21598   0.00000  Uiso   1.00
N89    N     0.65011   0.15265   0.23783   0.00000  Uiso   1.00
N90    N     0.34989   0.18068   0.26217   0.00000  Uiso   1.00
O91    O     0.46308   0.24619   0.25299   0.00000  Uiso   1.00
O92    O     0.53811   0.32549   0.42033   0.00000  Uiso   1.00
O93    O     0.38826   0.00381   0.03361   0.00000  Uiso   1.00
O94    O     0.46189   0.00784   0.07967   0.00000  Uiso   1.00
O95    O     0.53692   0.08714   0.24702   0.00000  Uiso   1.00
O96    O     0.55946   0.23721   0.24519   0.00000  Uiso   1.00
O97    O     0.44054   0.09613   0.25481   0.00000  Uiso   1.00
O98    O     0.45181   0.17117   0.31997   0.00000  Uiso   1.00
O99    O     0.54819   0.16216   0.18003   0.00000  Uiso   1.00
O100   O     0.54819   0.16219   0.31218   0.00000  Uiso   1.00
O101   O     0.45181   0.17115   0.18783   0.00000  Uiso   1.00
O102   O     0.61174   0.32952   0.46639   0.00000  Uiso   1.00
Zn103  Zn    0.43565   0.17266   0.25521   0.00000  Uiso   1.00
Zn104  Zn    0.56435   0.16067   0.24479   0.00000  Uiso   1.00
C105   C     0.84858   0.26489   0.24884   0.00000  Uiso   1.00
C106   C     0.86055   0.20928   0.40568   0.00000  Uiso   1.00
C107   C     0.83150   0.16696   0.11609   0.00000  Uiso   1.00
C108   C     0.83517   0.16638   0.38391   0.00000  Uiso   1.00
C109   C     0.85796   0.20925   0.09284   0.00000  Uiso   1.00
C110   C     0.80871   0.12408   0.40716   0.00000  Uiso   1.00
C111   C     0.85806   0.20974   0.04639   0.00000  Uiso   1.00
C112   C     0.80860   0.12359   0.45361   0.00000  Uiso   1.00
C113   C     0.83326   0.16622   0.02340   0.00000  Uiso   1.00
C114   C     0.83341   0.16711   0.47660   0.00000  Uiso   1.00
C115   C     0.80842   0.12193   0.04737   0.00000  Uiso   1.00
C116   C     0.81809   0.06844   0.25116   0.00000  Uiso   1.00
C117   C     0.85824   0.21140   0.45263   0.00000  Uiso   1.00
C118   C     0.88186   0.25351   0.02301   0.00000  Uiso   1.00
C119   C     0.78481   0.07983   0.47699   0.00000  Uiso   1.00
C120   C     0.90216   0.30517   0.45392   0.00000  Uiso   1.00
C121   C     0.76451   0.02816   0.04608   0.00000  Uiso   1.00
C122   C     0.88111   0.25556   0.47623   0.00000  Uiso   1.00
C123   C     0.78556   0.07777   0.02377   0.00000  Uiso   1.00
C124   C     0.85662   0.31940   0.24816   0.00000  Uiso   1.00
C125   C     0.81005   0.01394   0.25184   0.00000  Uiso   1.00
C126   C     0.83400   0.16666   0.33637   0.00000  Uiso   1.00
C127   C     0.83266   0.16667   0.16363   0.00000  Uiso   1.00
C128   C     0.80611   0.12405   0.09432   0.00000  Uiso   1.00
H129   H     0.78503   0.09287   0.11454   0.00000  Uiso   1.00
H130   H     0.99544   0.20587   0.28402   0.00000  Uiso   1.00
H131   H     0.88955   0.02663   0.40851   0.00000  Uiso   1.00
H132   H     0.77712   0.30670   0.09149   0.00000  Uiso   1.00
H133   H     0.88163   0.24047   0.38546   0.00000  Uiso   1.00
H134   H     0.87737   0.24204   0.11114   0.00000  Uiso   1.00
H135   H     0.78930   0.09129   0.38886   0.00000  Uiso   1.00
H136   H     0.89946   0.28696   0.04151   0.00000  Uiso   1.00
H137   H     0.76721   0.04638   0.45849   0.00000  Uiso   1.00
H138   H     0.90061   0.00307   0.24465   0.00000  Uiso   1.00
H139   H     0.76606   0.33027   0.25535   0.00000  Uiso   1.00
H140   H     0.67123   0.12746   0.21598   0.00000  Uiso   1.00
N141   N     0.98344   0.15265   0.23783   0.00000  Uiso   1.00
N142   N     0.68322   0.18068   0.26217   0.00000  Uiso   1.00
O143   O     0.79642   0.24619   0.25299   0.00000  Uiso   1.00
O144   O     0.87144   0.32549   0.42033   0.00000  Uiso   1.00
O145   O     0.72160   0.00381   0.03361   0.00000  Uiso   1.00
O146   O     0.79522   0.00784   0.07967   0.00000  Uiso   1.00
O147   O     0.87025   0.08714   0.24702   0.00000  Uiso   1.00
O148   O     0.89280   0.23721   0.24519   0.00000  Uiso   1.00
O149   O     0.77387   0.09613   0.25481   0.00000  Uiso   1.00
O150   O     0.78514   0.17117   0.31997   0.00000  Uiso   1.00
O151   O     0.88153   0.16216   0.18003   0.00000  Uiso   1.00
O152   O     0.88152   0.16219   0.31218   0.00000  Uiso   1.00
O153   O     0.78515   0.17115   0.18783   0.00000  Uiso   1.00
O154   O     0.94507   0.32952   0.46639   0.00000  Uiso   1.00
Zn155  Zn    0.76898   0.17266   0.25521   0.00000  Uiso   1.00
Zn156  Zn    0.89769   0.16067   0.24479   0.00000  Uiso   1.00
C157   C     0.18191   0.59823   0.24884   0.00000  Uiso   1.00
C158   C     0.19389   0.54261   0.40568   0.00000  Uiso   1.00
C159   C     0.16483   0.50029   0.11609   0.00000  Uiso   1.00
C160   C     0.16850   0.49971   0.38391   0.00000  Uiso   1.00
C161   C     0.19129   0.54258   0.09284   0.00000  Uiso   1.00
C162   C     0.14204   0.45742   0.40716   0.00000  Uiso   1.00
C163   C     0.19140   0.54307   0.04639   0.00000  Uiso   1.00
C164   C     0.14194   0.45693   0.45361   0.00000  Uiso   1.00
C165   C     0.16659   0.49956   0.02340   0.00000  Uiso   1.00
C166   C     0.16674   0.50044   0.47660   0.00000  Uiso   1.00
C167   C     0.14176   0.45527   0.04737   0.00000  Uiso   1.00
C168   C     0.15142   0.40177   0.25116   0.00000  Uiso   1.00
C169   C     0.19158   0.54473   0.45263   0.00000  Uiso   1.00
C170   C     0.21519   0.58684   0.02301   0.00000  Uiso   1.00
C171   C     0.11814   0.41316   0.47699   0.00000  Uiso   1.00
C172   C     0.23549   0.63850   0.45392   0.00000  Uiso   1.00
C173   C     0.09784   0.36150   0.04608   0.00000  Uiso   1.00
C174   C     0.21444   0.58889   0.47623   0.00000  Uiso   1.00
C175   C     0.11889   0.41111   0.02377   0.00000  Uiso   1.00
C176   C     0.18995   0.65273   0.24816   0.00000  Uiso   1.00
C177   C     0.14338   0.34727   0.25184   0.00000  Uiso   1.00
C178   C     0.16733   0.49999   0.33637   0.00000  Uiso   1.00
C179   C     0.16600   0.50001   0.16363   0.00000  Uiso   1.00
C180   C     0.13945   0.45739   0.09432   0.00000  Uiso   1.00
H181   H     0.11837   0.42620   0.11454   0.00000  Uiso   1.00
H182   H     0.32877   0.53921   0.28402   0.00000  Uiso   1.00
H183   H     0.22288   0.35996   0.40851   0.00000  Uiso   1.00
H184   H     0.11045   0.64004   0.09149   0.00000  Uiso   1.00
H185   H     0.21497   0.57380   0.38546   0.00000  Uiso   1.00
H186   H     0.21070   0.57537   0.11114   0.00000  Uiso   1.00
H187   H     0.12263   0.42463   0.38886   0.00000  Uiso   1.00
H188   H     0.23279   0.62029   0.04151   0.00000  Uiso   1.00
H189   H     0.10054   0.37971   0.45849   0.00000  Uiso   1.00
H190   H     0.23394   0.33640   0.24465   0.00000  Uiso   1.00
H191   H     0.09939   0.66360   0.25535   0.00000  Uiso   1.00
H192   H     0.00456   0.46079   0.21598   0.00000  Uiso   1.00
N193   N     0.31678   0.48598   0.23783   0.00000  Uiso   1.00
N194   N     0.01656   0.51402   0.26217   0.00000  Uiso   1.00
O195   O     0.12975   0.57952   0.25299   0.00000  Uiso   1.00
O196   O     0.20478   0.65882   0.42033   0.00000  Uiso   1.00
O197   O     0.05493   0.33714   0.03361   0.00000  Uiso   1.00
O198   O     0.12856   0.34118   0.07967   0.00000  Uiso   1.00
O199   O     0.20358   0.42048   0.24702   0.00000  Uiso   1.00
O200   O     0.22613   0.57054   0.24519   0.00000  Uiso   1.00
O201   O     0.10720   0.42946   0.25481   0.00000  Uiso   1.00
O202   O     0.11847   0.50450   0.31997   0.00000  Uiso   1.00
O203   O     0.21486   0.49550   0.18003   0.00000  Uiso   1.00
O204   O     0.21485   0.49552   0.31218   0.00000  Uiso   1.00
O205   O     0.11848   0.50448   0.18783   0.00000  Uiso   1.00
O206   O     0.27840   0.66286   0.46639   0.00000  Uiso   1.00
Zn207  Zn    0.10231   0.50600   0.25521   0.00000  Uiso   1.00
Zn208  Zn    0.23102   0.49400   0.24479   0.00000  Uiso   1.00
C209   C     0.51524   0.59823   0.24884   0.00000  Uiso   1.00
C210   C     0.52722   0.54261   0.40568   0.00000  Uiso   1.00
C211   C     0.49816   0.50029   0.11609   0.00000  Uiso   1.00
C212   C     0.50184   0.49971   0.38391   0.00000  Uiso   1.00
C213   C     0.52462   0.54258   0.09284   0.00000  Uiso   1.00
C214   C     0.47538   0.45742   0.40716   0.00000  Uiso   1.00
C215   C     0.52473   0.54307   0.04639   0.00000  Uiso   1.00
C216   C     0.47527   0.45693   0.45361   0.00000  Uiso   1.00
C217   C     0.49993   0.49956   0.02340   0.00000  Uiso   1.00
C218   C     0.50007   0.50044   0.47660   0.00000  Uiso   1.00
C219   C     0.47509   0.45527   0.04737   0.00000  Uiso   1.00
C220   C     0.48476   0.40177   0.25116   0.00000  Uiso   1.00
C221   C     0.52491   0.54473   0.45263   0.00000  Uiso   1.00
C222   C     0.54852   0.58684   0.02301   0.00000  Uiso   1.00
C223   C     0.45148   0.41316   0.47699   0.00000  Uiso   1.00
C224   C     0.56882   0.63850   0.45392   0.00000  Uiso   1.00
C225   C     0.43118   0.36150   0.04608   0.00000  Uiso   1.00
C226   C     0.54777   0.58889   0.47623   0.00000  Uiso   1.00
C227   C     0.45223   0.41111   0.02377   0.00000  Uiso   1.00
C228   C     0.52328   0.65273   0.24816   0.00000  Uiso   1.00
C229   C     0.47672   0.34727   0.25184   0.00000  Uiso   1.00
C230   C     0.50067   0.49999   0.33637   0.00000  Uiso   1.00
C231   C     0.49933   0.50001   0.16363   0.00000  Uiso   1.00
C232   C     0.47278   0.45739   0.09432   0.00000  Uiso   1.00
H233   H     0.45170   0.42620   0.11454   0.00000  Uiso   1.00
H234   H     0.66211   0.53921   0.28402   0.00000  Uiso   1.00
H235   H     0.55622   0.35996   0.40851   0.00000  Uiso   1.00
H236   H     0.44378   0.64004   0.09149   0.00000  Uiso   1.00
H237   H     0.54830   0.57380   0.38546   0.00000  Uiso   1.00
H238   H     0.54403   0.57537   0.11114   0.00000  Uiso   1.00
H239   H     0.45597   0.42463   0.38886   0.00000  Uiso   1.00
H240   H     0.56612   0.62029   0.04151   0.00000  Uiso   1.00
H241   H     0.43388   0.37971   0.45849   0.00000  Uiso   1.00
H242   H     0.56727   0.33640   0.24465   0.00000  Uiso   1.00
H243   H     0.43273   0.66360   0.25535   0.00000  Uiso   1.00
H244   H     0.33789   0.46079   0.21598   0.00000  Uiso   1.00
N245   N     0.65011   0.48598   0.23783   0.00000  Uiso   1.00
N246   N     0.34989   0.51402   0.26217   0.00000  Uiso   1.00
O247   O     0.46308   0.57952   0.25299   0.00000  Uiso   1.00
O248   O     0.53811   0.65882   0.42033   0.00000  Uiso   1.00
O249   O     0.38826   0.33714   0.03361   0.00000  Uiso   1.00
O250   O     0.46189   0.34118   0.07967   0.00000  Uiso   1.00
O251   O     0.53692   0.42048   0.24702   0.00000  Uiso   1.00
O252   O     0.55946   0.57054   0.24519   0.00000  Uiso   1.00
O253   O     0.44054   0.42946   0.25481   0.00000  Uiso   1.00
O254   O     0.45181   0.50450   0.31997   0.00000  Uiso   1.00
O255   O     0.54819   0.49550   0.18003   0.00000  Uiso   1.00
O256   O     0.54819   0.49552   0.31218   0.00000  Uiso   1.00
O257   O     0.45181   0.50448   0.18783   0.00000  Uiso   1.00
O258   O     0.61174   0.66286   0.46639   0.00000  Uiso   1.00
Zn259  Zn    0.43565   0.50600   0.25521   0.00000  Uiso   1.00
Zn260  Zn    0.56435   0.49400   0.24479   0.00000  Uiso   1.00
C261   C     0.84858   0.59823   0.24884   0.00000  Uiso   1.00
C262   C     0.86055   0.54261   0.40568   0.00000  Uiso   1.00
C263   C     0.83150   0.50029   0.11609   0.00000  Uiso   1.00
C264   C     0.83517   0.49971   0.38391   0.00000  Uiso   1.00
C265   C     0.85796   0.54258   0.09284   0.00000  Uiso   1.00
C266   C     0.80871   0.45742   0.40716   0.00000  Uiso   1.00
C267   C     0.85806   0.54307   0.04639   0.00000  Uiso   1.00
C268   C     0.80860   0.45693   0.45361   0.00000  Uiso   1.00
C269   C     0.83326   0.49956   0.02340   0.00000  Uiso   1.00
C270   C     0.83341   0.50044   0.47660   0.00000  Uiso   1.00
C271   C     0.80842   0.45527   0.04737   0.00000  Uiso   1.00
C272   C     0.81809   0.40177   0.25116   0.00000  Uiso   1.00
C273   C     0.85824   0.54473   0.45263   0.00000  Uiso   1.00
C274   C     0.88186   0.58684   0.02301   0.00000  Uiso   1.00
C275   C     0.78481   0.41316   0.47699   0.00000  Uiso   1.00
C276   C     0.90216   0.63850   0.45392   0.00000  Uiso   1.00
C277   C     0.76451   0.36150   0.04608   0.00000  Uiso   1.00
C278   C     0.88111   0.58889   0.47623   0.00000  Uiso   1.00
C279   C     0.78556   0.41111   0.02377   0.00000  Uiso   1.00
C280   C     0.85662   0.65273   0.24816   0.00000  Uiso   1.00
C281   C     0.81005   0.34727   0.25184   0.00000  Uiso   1.00
C282   C     0.83400   0.49999   0.33637   0.00000  Uiso   1.00
C283   C     0.83266   0.50001   0.16363   0.00000  Uiso   1.00
C284   C     0.80611   0.45739   0.09432   0.00000  Uiso   1.00
H285   H     0.78503   0.42620   0.11454   0.00000  Uiso   1.00
H286   H     0.99544   0.53921   0.28402   0.00000  Uiso   1.00
H287   H     0.88955   0.35996   0.40851   0.00000  Uiso   1.00
H288   H     0.77712   0.64004   0.09149   0.00000  Uiso   1.00
H289   H     0.88163   0.57380   0.38546   0.00000  Uiso   1.00
H290   H     0.87737   0.57537   0.11114   0.00000  Uiso   1.00
H291   H     0.78930   0.42463   0.38886   0.00000  Uiso   1.00
H292   H     0.89946   0.62029   0.04151   0.00000  Uiso   1.00
H293   H     0.76721   0.37971   0.45849   0.00000  Uiso   1.00
H294   H     0.90061   0.33640   0.24465   0.00000  Uiso   1.00
H295   H     0.76606   0.66360   0.25535   0.00000  Uiso   1.00
H296   H     0.67123   0.46079   0.21598   0.00000  Uiso   1.00
N297   N     0.98344   0.48598   0.23783   0.00000  Uiso   1.00
N298   N     0.68322   0.51402   0.26217   0.00000  Uiso   1.00
O299   O     0.79642   0.57952   0.25299   0.00000  Uiso   1.00
O300   O     0.87144   0.65882   0.42033   0.00000  Uiso   1.00
O301   O     0.72160   0.33714   0.03361   0.00000  Uiso   1.00
O302   O     0.79522   0.34118   0.07967   0.00000  Uiso   1.00
O303   O     0.87025   0.42048   0.24702   0.00000  Uiso   1.00
O304   O     0.89280   0.57054   0.24519   0.00000  Uiso   1.00
O305   O     0.77387   0.42946   0.25481   0.00000  Uiso   1.00
O306   O     0.78514   0.50450   0.31997   0.00000  Uiso   1.00
O307   O     0.88153   0.49550   0.18003   0.00000  Uiso   1.00
O308   O     0.88152   0.49552   0.31218   0.00000  Uiso   1.00
O309   O     0.78515   0.50448   0.18783   0.00000  Uiso   1.00
O310   O     0.94507   0.66286   0.46639   0.00000  Uiso   1.00
Zn311  Zn    0.76898   0.50600   0.25521   0.00000  Uiso   1.00
Zn312  Zn    0.89769   0.49400   0.24479   0.00000  Uiso   1.00
C313   C     0.18191   0.93156   0.24884   0.00000  Uiso   1.00
C314   C     0.19389   0.87595   0.40568   0.00000  Uiso   1.00
C315   C     0.16483   0.83362   0.11609   0.00000  Uiso   1.00
C316   C     0.16850   0.83304   0.38391   0.00000  Uiso   1.00
C317   C     0.19129   0.87592   0.09284   0.00000  Uiso   1.00
C318   C     0.14204   0.79075   0.40716   0.00000  Uiso   1.00
C319   C     0.19140   0.87641   0.04639   0.00000  Uiso   1.00
C320   C     0.14194   0.79026   0.45361   0.00000  Uiso   1.00
C321   C     0.16659   0.83289   0.02340   0.00000  Uiso   1.00
C322   C     0.16674   0.83378   0.47660   0.00000  Uiso   1.00
C323   C     0.14176   0.78860   0.04737   0.00000  Uiso   1.00
C324   C     0.15142   0.73511   0.25116   0.00000  Uiso   1.00
C325   C     0.19158   0.87807   0.45263   0.00000  Uiso   1.00
C326   C     0.21519   0.92017   0.02301   0.00000  Uiso   1.00
C327   C     0.11814   0.74649   0.47699   0.00000  Uiso   1.00
C328   C     0.23549   0.97184   0.45392   0.00000  Uiso   1.00
C329   C     0.09784   0.69483   0.04608   0.00000  Uiso   1.00
C330   C     0.21444   0.92223   0.47623   0.00000  Uiso   1.00
C331   C     0.11889   0.74444   0.02377   0.00000  Uiso   1.00
C332   C     0.18995   0.98606   0.24816   0.00000  Uiso   1.00
C333   C     0.14338   0.68060   0.25184   0.00000  Uiso   1.00
C334   C     0.16733   0.83333   0.33637   0.00000  Uiso   1.00
C335   C     0.16600   0.83334   0.16363   0.00000  Uiso   1.00
C336   C     0.13945   0.79072   0.09432   0.00000  Uiso   1.00
H337   H     0.11837   0.75953   0.11454   0.00000  Uiso   1.00
H338   H     0.32877   0.87254   0.28402   0.00000  Uiso   1.00
H339   H     0.22288   0.69330   0.40851   0.00000  Uiso   1.00
H340   H     0.11045   0.97337   0.09149   0.00000  Uiso   1.00
H341   H     0.21497   0.90714   0.38546   0.00000  Uiso   1.00
H342   H     0.21070   0.90871   0.11114   0.00000  Uiso   1.00
H343   H     0.12263   0.75796   0.38886   0.00000  Uiso   1.00
H344   H     0.23279   0.95362   0.04151   0.00000  Uiso   1.00
H345   H     0.10054   0.71304   0.45849   0.00000  Uiso   1.00
H346   H     0.23394   0.66973   0.24465   0.00000  Uiso   1.00
H347   H     0.09939   0.99693   0.25535   0.00000  Uiso   1.00
H348   H     0.00456   0.79413   0.21598   0.00000  Uiso   1.00
N349   N     0.31678   0.81932   0.23783   0.00000  Uiso   1.00
N350   N     0.01656   0.84735   0.26217   0.00000  Uiso   1.00
O351   O     0.12975   0.91286   0.25299   0.00000  Uiso   1.00
O352   O     0.20478   0.99216   0.42033   0.00000  Uiso   1.00
O353   O     0.05493   0.67047   0.03361   0.00000  Uiso   1.00
O354   O     0.12856   0.67451   0.07967   0.00000  Uiso   1.00
O355   O     0.20358   0.75381   0.24702   0.00000  Uiso   1.00
O356   O     0.22613   0.90387   0.24519   0.00000  Uiso   1.00
O357   O     0.10720   0.76279   0.25481   0.00000  Uiso   1.00
O358   O     0.11847   0.83784   0.31997   0.00000  Uiso   1.00
O359   O     0.21486   0.82883   0.18003   0.00000  Uiso   1.00
O360   O     0.21485   0.82885   0.31218   0.00000  Uiso   1.00
O361   O     0.11848   0.83781   0.18783   0.00000  Uiso   1.00
O362   O     0.27840   0.99619   0.46639   0.00000  Uiso   1.00
Zn363  Zn    0.10231   0.83933   0.25521   0.00000  Uiso   1.00
Zn364  Zn    0.23102   0.82734   0.24479   0.00000  Uiso   1.00
C365   C     0.51524   0.93156   0.24884   0.00000  Uiso   1.00
C366   C     0.52722   0.87595   0.40568   0.00000  Uiso   1.00
C367   C     0.49816   0.83362   0.11609   0.00000  Uiso   1.00
C368   C     0.50184   0.83304   0.38391   0.00000  Uiso   1.00
C369   C     0.52462   0.87592   0.09284   0.00000  Uiso   1.00
C370   C     0.47538   0.79075   0.40716   0.00000  Uiso   1.00
C371   C     0.52473   0.87641   0.04639   0.00000  Uiso   1.00
C372   C     0.47527   0.79026   0.45361   0.00000  Uiso   1.00
C373   C     0.49993   0.83289   0.02340   0.00000  Uiso   1.00
C374   C     0.50007   0.83378   0.47660   0.00000  Uiso   1.00
C375   C     0.47509   0.78860   0.04737   0.00000  Uiso   1.00
C376   C     0.48476   0.73511   0.25116   0.00000  Uiso   1.00
C377   C     0.52491   0.87807   0.45263   0.00000  Uiso   1.00
C378   C     0.54852   0.92017   0.02301   0.00000  Uiso   1.00
C379   C     0.45148   0.74649   0.47699   0.00000  Uiso   1.00
C380   C     0.56882   0.97184   0.45392   0.00000  Uiso   1.00
C381   C     0.43118   0.69483   0.04608   0.00000  Uiso   1.00
C382   C     0.54777   0.92223   0.47623   0.00000  Uiso   1.00
C383   C     0.45223   0.74444   0.02377   0.00000  Uiso   1.00
C384   C     0.52328   0.98606   0.24816   0.00000  Uiso   1.00
C385   C     0.47672   0.68060   0.25184   0.00000  Uiso   1.00
C386   C     0.50067   0.83333   0.33637   0.00000  Uiso   1.00
C387   C     0.49933   0.83334   0.16363   0.00000  Uiso   1.00
C388   C     0.47278   0.79072   0.09432   0.00000  Uiso   1.00
H389   H     0.45170   0.75953   0.11454   0.00000  Uiso   1.00
H390   H     0.66211   0.87254   0.28402   0.00000  Uiso   1.00
H391   H     0.55622   0.69330   0.40851   0.00000  Uiso   1.00
H392   H     0.44378   0.97337   0.09149   0.00000  Uiso   1.00
H393   H     0.54830   0.90714   0.38546   0.00000  Uiso   1.00
H394   H     0.54403   0.90871   0.11114   0.00000  Uiso   1.00
H395   H     0.45597   0.75796   0.38886   0.00000  Uiso   1.00
H396   H     0.56612   0.95362   0.04151   0.00000  Uiso   1.00
H397   H     0.43388   0.71304   0.45849   0.00000  Uiso   1.00
H398   H     0.56727   0.66973   0.24465   0.00000  Uiso   1.00
H399   H     0.43273   0.99693   0.25535   0.00000  Uiso   1.00
H400   H     0.33789   0.79413   0.21598   0.00000  Uiso   1.00
N401   N     0.65011   0.81932   0.23783   0.00000  Uiso   1.00
N402   N     0.34989   0.84735   0.26217   0.00000  Uiso   1.00
O403   O     0.46308   0.91286   0.25299   0.00000  Uiso   1.00
O404   O     0.53811   0.99216   0.42033   0.00000  Uiso   1.00
O405   O     0.38826   0.67047   0.03361   0.00000  Uiso   1.00
O406   O     0.46189   0.67451   0.07967   0.00000  Uiso   1.00
O407   O     0.53692   0.75381   0.24702   0.00000  Uiso   1.00
O408   O     0.55946   0.90387   0.24519   0.00000  Uiso   1.00
O409   O     0.44054   0.76279   0.25481   0.00000  Uiso   1.00
O410   O     0.45181   0.83784   0.31997   0.00000  Uiso   1.00
O411   O     0.54819   0.82883   0.18003   0.00000  Uiso   1.00
O412   O     0.54819   0.82885   0.31218   0.00000  Uiso   1.00
O413   O     0.45181   0.83781   0.18783   0.00000  Uiso   1.00
O414   O     0.61174   0.99619   0.46639   0.00000  Uiso   1.00
Zn415  Zn    0.43565   0.83933   0.25521   0.00000  Uiso   1.00
Zn416  Zn    0.56435   0.82734   0.24479   0.00000  Uiso   1.00
C417   C     0.84858   0.93156   0.24884   0.00000  Uiso   1.00
C418   C     0.86055   0.87595   0.40568   0.00000  Uiso   1.00
C419   C     0.83150   0.83362   0.11609   0.00000  Uiso   1.00
C420   C     0.83517   0.83304   0.38391   0.00000  Uiso   1.00
C421   C     0.85796   0.87592   0.09284   0.00000  Uiso   1.00
C422   C     0.80871   0.79075   0.40716   0.00000  Uiso   1.00
C423   C     0.85806   0.87641   0.04639   0.00000  Uiso   1.00
C424   C     0.80860   0.79026   0.45361   0.00000  Uiso   1.00
C425   C     0.83326   0.83289   0.02340   0.00000  Uiso   1.00
C426   C     0.83341   0.83378   0.47660   0.00000  Uiso   1.00
C427   C     0.80842   0.78860   0.04737   0.00000  Uiso   1.00
C428   C     0.81809   0.73511   0.25116   0.00000  Uiso   1.00
C429   C     0.85824   0.87807   0.45263   0.00000  Uiso   1.00
C430   C     0.88186   0.92017   0.02301   0.00000  Uiso   1.00
C431   C     0.78481   0.74649   0.47699   0.00000  Uiso   1.00
C432   C     0.90216   0.97184   0.45392   0.00000  Uiso   1.00
C433   C     0.76451   0.69483   0.04608   0.00000  Uiso   1.00
C434   C     0.88111   0.92223   0.47623   0.00000  Uiso   1.00
C435   C     0.78556   0.74444   0.02377   0.00000  Uiso   1.00
C436   C     0.85662   0.98606   0.24816   0.00000  Uiso   1.00
C437   C     0.81005   0.68060   0.25184   0.00000  Uiso   1.00
C438   C     0.83400   0.83333   0.33637   0.00000  Uiso   1.00
C439   C     0.83266   0.83334   0.16363   0.00000  Uiso   1.00
C440   C     0.80611   0.79072   0.09432   0.00000  Uiso   1.00
H441   H     0.78503   0.75953   0.11454   0.00000  Uiso   1.00
H442   H     0.99544   0.87254   0.28402   0.00000  Uiso   1.00
H443   H     0.88955   0.69330   0.40851   0.00000  Uiso   1.00
H444   H     0.77712   0.97337   0.09149   0.00000  Uiso   1.00
H445   H     0.88163   0.90714   0.38546   0.00000  Uiso   1.00
H446   H     0.87737   0.90871   0.11114   0.00000  Uiso   1.00
H447   H     0.78930   0.75796   0.38886   0.00000  Uiso   1.00
H448   H     0.89946   0.95362   0.04151   0.00000  Uiso   1.00
H449   H     0.76721   0.71304   0.45849   0.00000  Uiso   1.00
H450   H     0.90061   0.66973   0.24465   0.00000  Uiso   1.00
H451   H     0.76606   0.99693   0.25535   0.00000  Uiso   1.00
H452   H     0.67123   0.79413   0.21598   0.00000  Uiso   1.00
N453   N     0.98344   0.81932   0.23783   0.00000  Uiso   1.00
N454   N     0.68322   0.84735   0.26217   0.00000  Uiso   1.00
O455   O     0.79642   0.91286   0.25299   0.00000  Uiso   1.00
O456   O     0.87144   0.99216   0.42033   0.00000  Uiso   1.00
O457   O     0.72160   0.67047   0.03361   0.00000  Uiso   1.00
O458   O     0.79522   0.67451   0.07967   0.00000  Uiso   1.00
O459   O     0.87025   0.75381   0.24702   0.00000  Uiso   1.00
O460   O     0.89280   0.90387   0.24519   0.00000  Uiso   1.00
O461   O     0.77387   0.76279   0.25481   0.00000  Uiso   1.00
O462   O     0.78514   0.83784   0.31997   0.00000  Uiso   1.00
O463   O     0.88153   0.82883   0.18003   0.00000  Uiso   1.00
O464   O     0.88152   0.82885   0.31218   0.00000  Uiso   1.00
O465   O     0.78515   0.83781   0.18783   0.00000  Uiso   1.00
O466   O     0.94507   0.99619   0.46639   0.00000  Uiso   1.00
Zn467  Zn    0.76898   0.83933   0.25521   0.00000  Uiso   1.00
Zn468  Zn    0.89769   0.82734   0.24479   0.00000  Uiso   1.00
C469   C     0.18191   0.26489   0.74884   0.00000  Uiso   1.00
C470   C     0.19389   0.20928   0.90568   0.00000  Uiso   1.00
C471   C     0.16483   0.16696   0.61609   0.00000  Uiso   1.00
C472   C     0.16850   0.16638   0.88391   0.00000  Uiso   1.00
C473   C     0.19129   0.20925   0.59284   0.00000  Uiso   1.00
C474   C     0.14204   0.12408   0.90716   0.00000  Uiso   1.00
C475   C     0.19140   0.20974   0.54639   0.00000  Uiso   1.00
C476   C     0.14194   0.12359   0.95361   0.00000  Uiso   1.00
C477   C     0.16659   0.16622   0.52340   0.00000  Uiso   1.00
C478   C     0.16674   0.16711   0.97660   0.00000  Uiso   1.00
C479   C     0.14176   0.12193   0.54737   0.00000  Uiso   1.00
C480   C     0.15142   0.06844   0.75116   0.00000  Uiso   1.00
C481   C     0.19158   0.21140   0.95263   0.00000  Uiso   1.00
C482   C     0.21519   0.25351   0.52301   0.00000  Uiso   1.00
C483   C     0.11814   0.07983   0.97699   0.00000  Uiso   1.00
C484   C     0.23549   0.30517   0.95392   0.00000  Uiso   1.00
C485   C     0.09784   0.02816   0.54608   0.00000  Uiso   1.00
C486   C     0.21444   0.25556   0.97623   0.00000  Uiso   1.00
C487   C     0.11889   0.07777   0.52377   0.00000  Uiso   1.00
C488   C     0.18995   0.31940   0.74816   0.00000  Uiso   1.00
C489   C     0.14338   0.01394   0.75184   0.00000  Uiso   1.00
C490   C     0.16733   0.16666   0.83637   0.00000  Uiso   1.00
C491   C     0.16600   0.16667   0.66363   0.00000  Uiso   1.00
C492   C     0.13945   0.12405   0.59432   0.00000  Uiso   1.00
H493   H     0.11837   0.09287   0.61454   0.00000  Uiso   1.00
H494   H     0.32877   0.20587   0.78402   0.00000  Uiso   1.00
H495   H     0.22288   0.02663   0.90851   0.00000  Uiso   1.00
H496   H     0.11045   0.30670   0.59149   0.00000  Uiso   1.00
H497   H     0.21497   0.24047   0.88546   0.00000  Uiso   1.00
H498   H     0.21070   0.24204   0.61114   0.00000  Uiso   1.00
H499   H     0.12263   0.09129   0.88886   0.00000  Uiso   1.00
H500   H     0.23279   0.28696   0.54151   0.00000  Uiso   1.00
H501   H     0.10054   0.04638   0.95849   0.00000  Uiso   1.00
H502   H     0.23394   0.00307   0.74465   0.00000  Uiso   1.00
H503   H     0.09939   0.33027   0.75535   0.00000  Uiso   1.00
H504   H     0.00456   0.12746   0.71598   0.00000  Uiso   1.00
N505   N     0.31678   0.15265   0.73783   0.00000  Uiso   1.00
N506   N     0.01656   0.18068   0.76217   0.00000  Uiso   1.00
O507   O     0.12975   0.24619   0.75299   0.00000  Uiso   1.00
O508   O     0.20478   0.32549   0.92033   0.00000  Uiso   1.00
O509   O     0.05493   0.00381   0.53361   0.00000  Uiso   1.00
O510   O     0.12856   0.00784   0.57967   0.00000  Uiso   1.00
O511   O     0.20358   0.08714   0.74702   0.00000  Uiso   1.00
O512   O     0.22613   0.23721   0.74519   0.00000  Uiso   1.00
O513   O     0.10720   0.09613   0.75481   0.00000  Uiso   1.00
O514   O     0.11847   0.17117   0.81997   0.00000  Uiso   1.00
O515   O     0.21486   0.16216   0.68003   0.00000  Uiso   1.00
O516   O     0.21485   0.16219   0.81218   0.00000  Uiso   1.00
O517   O     0.11848   0.17115   0.68783   0.00000  Uiso   1.00
O518   O     0.27840   0.32952   0.96639   0.00000  Uiso   1.00
Zn519  Zn    0.10231   0.17266   0.75521   0.00000  Uiso   1.00
Zn520  Zn    0.23102   0.16067   0.74479   0.00000  Uiso   1.00
C521   C     0.51524   0.26489   0.74884   0.00000  Uiso   1.00
C522   C     0.52722   0.20928   0.90568   0.00000  Uiso   1.00
C523   C     0.49816   0.16696   0.61609   0.00000  Uiso   1.00
C524   C     0.50184   0.16638   0.88391   0.00000  Uiso   1.00
C525   C     0.52462   0.20925   0.59284   0.00000  Uiso   1.00
C526   C     0.47538   0.12408   0.90716   0.00000  Uiso   1.00
C527   C     0.52473   0.20974   0.54639   0.00000  Uiso   1.00
C528   C     0.47527   0.12359   0.95361   0.00000  Uiso   1.00
C529   C     0.49993   0.16622   0.52340   0.00000  Uiso   1.00
C530   C     0.50007   0.16711   0.97660   0.00000  Uiso   1.00
C531   C     0.47509   0.12193   0.54737   0.00000  Uiso   1.00
C532   C     0.48476   0.06844   0.75116   0.00000  Uiso   1.00
C533   C     0.52491   0.21140   0.95263   0.00000  Uiso   1.00
C534   C     0.54852   0.25351   0.52301   0.00000  Uiso   1.00
C535   C     0.45148   0.07983   0.97699   0.00000  Uiso   1.00
C536   C     0.56882   0.30517   0.95392   0.00000  Uiso   1.00
C537   C     0.43118   0.02816   0.54608   0.00000  Uiso   1.00
C538   C     0.54777   0.25556   0.97623   0.00000  Uiso   1.00
C539   C     0.45223   0.07777   0.52377   0.00000  Uiso   1.00
C540   C     0.52328   0.31940   0.74816   0.00000  Uiso   1.00
C541   C     0.47672   0.01394   0.75184   0.00000  Uiso   1.00
C542   C     0.50067   0.16666   0.83637   0.00000  Uiso   1.00
C543   C     0.49933   0.16667   0.66363   0.00000  Uiso   1.00
C544   C     0.47278   0.12405   0.59432   0.00000  Uiso   1.00
H545   H     0.45170   0.09287   0.61454   0.00000  Uiso   1.00
H546   H     0.66211   0.20587   0.78402   0.00000  Uiso   1.00
H547   H     0.55622   0.02663   0.90851   0.00000  Uiso   1.00
H548   H     0.44378   0.30670   0.59149   0.00000  Uiso   1.00
H549   H     0.54830   0.24047   0.88546   0.00000  Uiso   1.00
H550   H     0.54403   0.24204   0.61114   0.00000  Uiso   1.00
H551   H     0.45597   0.09129   0.88886   0.00000  Uiso   1.00
H552   H     0.56612   0.28696   0.54151   0.00000  Uiso   1.00
H553   H     0.43388   0.04638   0.95849   0.00000  Uiso   1.00
H554   H     0.56727   0.00307   0.74465   0.00000  Uiso   1.00
H555   H     0.43273   0.33027   0.75535   0.00000  Uiso   1.00
H556   H     0.33789   0.12746   0.71598   0.00000  Uiso   1.00
N557   N     0.65011   0.15265   0.73783   0.00000  Uiso   1.00
N558   N     0.34989   0.18068   0.76217   0.00000  Uiso   1.00
O559   O     0.46308   0.24619   0.75299   0.00000  Uiso   1.00
O560   O     0.53811   0.32549   0.92033   0.00000  Uiso   1.00
O561   O     0.38826   0.00381   0.53361   0.00000  Uiso   1.00
O562   O     0.46189   0.00784   0.57967   0.00000  Uiso   1.00
O563   O     0.53692   0.08714   0.74702   0.00000  Uiso   1.00
O564   O     0.55946   0.23721   0.74519   0.00000  Uiso   1.00
O565   O     0.44054   0.09613   0.75481   0.00000  Uiso   1.00
O566   O     0.45181   0.17117   0.81997   0.00000  Uiso   1.00
O567   O     0.54819   0.16216   0.68003   0.00000  Uiso   1.00
O568   O     0.54819   0.16219   0.81218   0.00000  Uiso   1.00
O569   O     0.45181   0.17115   0.68783   0.00000  Uiso   1.00
O570   O     0.61174   0.32952   0.96639   0.00000  Uiso   1.00
Zn571  Zn    0.43565   0.17266   0.75521   0.00000  Uiso   1.00
Zn572  Zn    0.56435   0.16067   0.74479   0.00000  Uiso   1.00
C573   C     0.84858   0.26489   0.74884   0.00000  Uiso   1.00
C574   C     0.86055   0.20928   0.90568   0.00000  Uiso   1.00
C575   C     0.83150   0.16696   0.61609   0.00000  Uiso   1.00
C576   C     0.83517   0.16638   0.88391   0.00000  Uiso   1.00
C577   C     0.85796   0.20925   0.59284   0.00000  Uiso   1.00
C578   C     0.80871   0.12408   0.90716   0.00000  Uiso   1.00
C579   C     0.85806   0.20974   0.54639   0.00000  Uiso   1.00
C580   C     0.80860   0.12359   0.95361   0.00000  Uiso   1.00
C581   C     0.83326   0.16622   0.52340   0.00000  Uiso   1.00
C582   C     0.83341   0.16711   0.97660   0.00000  Uiso   1.00
C583   C     0.80842   0.12193   0.54737   0.00000  Uiso   1.00
C584   C     0.81809   0.06844   0.75116   0.00000  Uiso   1.00
C585   C     0.85824   0.21140   0.95263   0.00000  Uiso   1.00
C586   C     0.88186   0.25351   0.52301   0.00000  Uiso   1.00
C587   C     0.78481   0.07983   0.97699   0.00000  Uiso   1.00
C588   C     0.90216   0.30517   0.95392   0.00000  Uiso   1.00
C589   C     0.76451   0.02816   0.54608   0.00000  Uiso   1.00
C590   C     0.88111   0.25556   0.97623   0.00000  Uiso   1.00
C591   C     0.78556   0.07777   0.52377   0.00000  Uiso   1.00
C592   C     0.85662   0.31940   0.74816   0.00000  Uiso   1.00
C593   C     0.81005   0.01394   0.75184   0.00000  Uiso   1.00
C594   C     0.83400   0.16666   0.83637   0.00000  Uiso   1.00
C595   C     0.83266   0.16667   0.66363   0.00000  Uiso   1.00
C596   C     0.80611   0.12405   0.59432   0.00000  Uiso   1.00
H597   H     0.78503   0.09287   0.61454   0.00000  Uiso   1.00
H598   H     0.99544   0.20587   0.78402   0.00000  Uiso   1.00
H599   H     0.88955   0.02663   0.90851   0.00000  Uiso   1.00
H600   H     0.77712   0.30670   0.59149   0.00000  Uiso   1.00
H601   H     0.88163   0.24047   0.88546   0.00000  Uiso   1.00
H602   H     0.87737   0.24204   0.61114   0.00000  Uiso   1.00
H603   H     0.78930   0.09129   0.88886   0.00000  Uiso   1.00
H604   H     0.89946   0.28696   0.54151   0.00000  Uiso   1.00
H605   H     0.76721   0.04638   0.95849   0.00000  Uiso   1.00
H606   H     0.90061   0.00307   0.74465   0.00000  Uiso   1.00
H607   H     0.76606   0.33027   0.75535   0.00000  Uiso   1.00
H608   H     0.67123   0.12746   0.71598   0.00000  Uiso   1.00
N609   N     0.98344   0.15265   0.73783   0.00000  Uiso   1.00
N610   N     0.68322   0.18068   0.76217   0.00000  Uiso   1.00
O611   O     0.79642   0.24619   0.75299   0.00000  Uiso   1.00
O612   O     0.87144   0.32549   0.92033   0.00000  Uiso   1.00
O613   O     0.72160   0.00381   0.53361   0.00000  Uiso   1.00
O614   O     0.79522   0.00784   0.57967   0.00000  Uiso   1.00
O615   O     0.87025   0.08714   0.74702   0.00000  Uiso   1.00
O616   O     0.89280   0.23721   0.74519   0.00000  Uiso   1.00
O617   O     0.77387   0.09613   0.75481   0.00000  Uiso   1.00
O618   O     0.78514   0.17117   0.81997   0.00000  Uiso   1.00
O619   O     0.88153   0.16216   0.68003   0.00000  Uiso   1.00
O620   O     0.88152   0.16219   0.81218   0.00000  Uiso   1.00
O621   O     0.78515   0.17115   0.68783   0.00000  Uiso   1.00
O622   O     0.94507   0.32952   0.96639   0.00000  Uiso   1.00
Zn623  Zn    0.76898   0.17266   0.75521   0.00000  Uiso   1.00
Zn624  Zn    0.89769   0.16067   0.74479   0.00000  Uiso   1.00
C625   C     0.18191   0.59823   0.74884   0.00000  Uiso   1.00
C626   C     0.19389   0.54261   0.90568   0.00000  Uiso   1.00
C627   C     0.16483   0.50029   0.61609   0.00000  Uiso   1.00
C628   C     0.16850   0.49971   0.88391   0.00000  Uiso   1.00
C629   C     0.19129   0.54258   0.59284   0.00000  Uiso   1.00
C630   C     0.14204   0.45742   0.90716   0.00000  Uiso   1.00
C631   C     0.19140   0.54307   0.54639   0.00000  Uiso   1.00
C632   C     0.14194   0.45693   0.95361   0.00000  Uiso   1.00
C633   C     0.16659   0.49956   0.52340   0.00000  Uiso   1.00
C634   C     0.16674   0.50044   0.97660   0.00000  Uiso   1.00
C635   C     0.14176   0.45527   0.54737   0.00000  Uiso   1.00
C636   C     0.15142   0.40177   0.75116   0.00000  Uiso   1.00
C637   C     0.19158   0.54473   0.95263   0.00000  Uiso   1.00
C638   C     0.21519   0.58684   0.52301   0.00000  Uiso   1.00
C639   C     0.11814   0.41316   0.97699   0.00000  Uiso   1.00
C640   C     0.23549   0.63850   0.95392   0.00000  Uiso   1.00
C641   C     0.09784   0.36150   0.54608   0.00000  Uiso   1.00
C642   C     0.21444   0.58889   0.97623   0.00000  Uiso   1.00
C643   C     0.11889   0.41111   0.52377   0.00000  Uiso   1.00
C644   C     0.18995   0.65273   0.74816   0.00000  Uiso   1.00
C645   C     0.14338   0.34727   0.75184   0.00000  Uiso   1.00
C646   C     0.16733   0.49999   0.83637   0.00000  Uiso   1.00
C647   C     0.16600   0.50001   0.66363   0.00000  Uiso   1.00
C648   C     0.13945   0.45739   0.59432   0.00000  Uiso   1.00
H649   H     0.11837   0.42620   0.61454   0.00000  Uiso   1.00
H650   H     0.32877   0.53921   0.78402   0.00000  Uiso   1.00
H651   H     0.22288   0.35996   0.90851   0.00000  Uiso   1.00
H652   H     0.11045   0.64004   0.59149   0.00000  Uiso   1.00
H653   H     0.21497   0.57380   0.88546   0.00000  Uiso   1.00
H654   H     0.21070   0.57537   0.61114   0.00000  Uiso   1.00
H655   H     0.12263   0.42463   0.88886   0.00000  Uiso   1.00
H656   H     0.23279   0.62029   0.54151   0.00000  Uiso   1.00
H657   H     0.10054   0.37971   0.95849   0.00000  Uiso   1.00
H658   H     0.23394   0.33640   0.74465   0.00000  Uiso   1.00
H659   H     0.09939   0.66360   0.75535   0.00000  Uiso   1.00
H660   H     0.00456   0.46079   0.71598   0.00000  Uiso   1.00
N661   N     0.31678   0.48598   0.73783   0.00000  Uiso   1.00
N662   N     0.01656   0.51402   0.76217   0.00000  Uiso   1.00
O663   O     0.12975   0.57952   0.75299   0.00000  Uiso   1.00
O664   O     0.20478   0.65882   0.92033   0.00000  Uiso   1.00
O665   O     0.05493   0.33714   0.53361   0.00000  Uiso   1.00
O666   O     0.12856   0.34118   0.57967   0.00000  Uiso   1.00
O667   O     0.20358   0.42048   0.74702   0.00000  Uiso   1.00
O668   O     0.22613   0.57054   0.74519   0.00000  Uiso   1.00
O669   O     0.10720   0.42946   0.75481   0.00000  Uiso   1.00
O670   O     0.11847   0.50450   0.81997   0.00000  Uiso   1.00
O671   O     0.21486   0.49550   0.68003   0.00000  Uiso   1.00
O672   O     0.21485   0.49552   0.81218   0.00000  Uiso   1.00
O673   O     0.11848   0.50448   0.68783   0.00000  Uiso   1.00
O674   O     0.27840   0.66286   0.96639   0.00000  Uiso   1.00
Zn675  Zn    0.10231   0.50600   0.75521   0.00000  Uiso   1.00
Zn676  Zn    0.23102   0.49400   0.74479   0.00000  Uiso   1.00
C677   C     0.51524   0.59823   0.74884   0.00000  Uiso   1.00
C678   C     0.52722   0.54261   0.90568   0.00000  Uiso   1.00
C679   C     0.49816   0.50029   0.61609   0.00000  Uiso   1.00
C680   C     0.50184   0.49971   0.88391   0.00000  Uiso   1.00
C681   C     0.52462   0.54258   0.59284   0.00000  Uiso   1.00
C682   C     0.47538   0.45742   0.90716   0.00000  Uiso   1.00
C683   C     0.52473   0.54307   0.54639   0.00000  Uiso   1.00
C684   C     0.47527   0.45693   0.95361   0.00000  Uiso   1.00
C685   C     0.49993   0.49956   0.52340   0.00000  Uiso   1.00
C686   C     0.50007   0.50044   0.97660   0.00000  Uiso   1.00
C687   C     0.47509   0.45527   0.54737   0.00000  Uiso   1.00
C688   C     0.48476   0.40177   0.75116   0.00000  Uiso   1.00
C689   C     0.52491   0.54473   0.95263   0.00000  Uiso   1.00
C690   C     0.54852   0.58684   0.52301   0.00000  Uiso   1.00
C691   C     0.45148   0.41316   0.97699   0.00000  Uiso   1.00
C692   C     0.56882   0.63850   0.95392   0.00000  Uiso   1.00
C693   C     0.43118   0.36150   0.54608   0.00000  Uiso   1.00
C694   C     0.54777   0.58889   0.97623   0.00000  Uiso   1.00
C695   C     0.45223   0.41111   0.52377   0.00000  Uiso   1.00
C696   C     0.52328   0.65273   0.74816   0.00000  Uiso   1.00
C697   C     0.47672   0.34727   0.75184   0.00000  Uiso   1.00
C698   C     0.50067   0.49999   0.83637   0.00000  Uiso   1.00
C699   C     0.49933   0.50001   0.66363   0.00000  Uiso   1.00
C700   C     0.47278   0.45739   0.59432   0.00000  Uiso   1.00
H701   H     0.45170   0.42620   0.61454   0.00000  Uiso   1.00
H702   H     0.66211   0.53921   0.78402   0.00000  Uiso   1.00
H703   H     0.55622   0.35996   0.90851   0.00000  Uiso   1.00
H704   H     0.44378   0.64004   0.59149   0.00000  Uiso   1.00
H705   H     0.54830   0.57380   0.88546   0.00000  Uiso   1.00
H706   H     0.54403   0.57537   0.61114   0.00000  Uiso   1.00
H707   H     0.45597   0.42463   0.88886   0.00000  Uiso   1.00
H708   H     0.56612   0.62029   0.54151   0.00000  Uiso   1.00
H709   H     0.43388   0.37971   0.95849   0.00000  Uiso   1.00
H710   H     0.56727   0.33640   0.74465   0.00000  Uiso   1.00
H711   H     0.43273   0.66360   0.75535   0.00000  Uiso   1.00
H712   H     0.33789   0.46079   0.71598   0.00000  Uiso   1.00
N713   N     0.65011   0.48598   0.73783   0.00000  Uiso   1.00
N714   N     0.34989   0.51402   0.76217   0.00000  Uiso   1.00
O715   O     0.46308   0.57952   0.75299   0.00000  Uiso   1.00
O716   O     0.53811   0.65882   0.92033   0.00000  Uiso   1.00
O717   O     0.38826   0.33714   0.53361   0.00000  Uiso   1.00
O718   O     0.46189   0.34118   0.57967   0.00000  Uiso   1.00
O719   O     0.53692   0.42048   0.74702   0.00000  Uiso   1.00
O720   O     0.55946   0.57054   0.74519   0.00000  Uiso   1.00
O721   O     0.44054   0.42946   0.75481   0.00000  Uiso   1.00
O722   O     0.45181   0.50450   0.81997   0.00000  Uiso   1.00
O723   O     0.54819   0.49550   0.68003   0.00000  Uiso   1.00
O724   O     0.54819   0.49552   0.81218   0.00000  Uiso   1.00
O725   O     0.45181   0.50448   0.68783   0.00000  Uiso   1.00
O726   O     0.61174   0.66286   0.96639   0.00000  Uiso   1.00
Zn727  Zn    0.43565   0.50600   0.75521   0.00000  Uiso   1.00
Zn728  Zn    0.56435   0.49400   0.74479   0.00000  Uiso   1.00
C729   C     0.84858   0.59823   0.74884   0.00000  Uiso   1.00
C730   C     0.86055   0.54261   0.90568   0.00000  Uiso   1.00
C731   C     0.83150   0.50029   0.61609   0.00000  Uiso   1.00
C732   C     0.83517   0.49971   0.88391   0.00000  Uiso   1.00
C733   C     0.85796   0.54258   0.59284   0.00000  Uiso   1.00
C734   C     0.80871   0.45742   0.90716   0.00000  Uiso   1.00
C735   C     0.85806   0.54307   0.54639   0.00000  Uiso   1.00
C736   C     0.80860   0.45693   0.95361   0.00000  Uiso   1.00
C737   C     0.83326   0.49956   0.52340   0.00000  Uiso   1.00
C738   C     0.83341   0.50044   0.97660   0.00000  Uiso   1.00
C739   C     0.80842   0.45527   0.54737   0.00000  Uiso   1.00
C740   C     0.81809   0.40177   0.75116   0.00000  Uiso   1.00
C741   C     0.85824   0.54473   0.95263   0.00000  Uiso   1.00
C742   C     0.88186   0.58684   0.52301   0.00000  Uiso   1.00
C743   C     0.78481   0.41316   0.97699   0.00000  Uiso   1.00
C744   C     0.90216   0.63850   0.95392   0.00000  Uiso   1.00
C745   C     0.76451   0.36150   0.54608   0.00000  Uiso   1.00
C746   C     0.88111   0.58889   0.97623   0.00000  Uiso   1.00
C747   C     0.78556   0.41111   0.52377   0.00000  Uiso   1.00
C748   C     0.85662   0.65273   0.74816   0.00000  Uiso   1.00
C749   C     0.81005   0.34727   0.75184   0.00000  Uiso   1.00
C750   C     0.83400   0.49999   0.83637   0.00000  Uiso   1.00
C751   C     0.83266   0.50001   0.66363   0.00000  Uiso   1.00
C752   C     0.80611   0.45739   0.59432   0.00000  Uiso   1.00
H753   H     0.78503   0.42620   0.61454   0.00000  Uiso   1.00
H754   H     0.99544   0.53921   0.78402   0.00000  Uiso   1.00
H755   H     0.88955   0.35996   0.90851   0.00000  Uiso   1.00
H756   H     0.77712   0.64004   0.59149   0.00000  Uiso   1.00
H757   H     0.88163   0.57380   0.88546   0.00000  Uiso   1.00
H758   H     0.87737   0.57537   0.61114   0.00000  Uiso   1.00
H759   H     0.78930   0.42463   0.88886   0.00000  Uiso   1.00
H760   H     0.89946   0.62029   0.54151   0.00000  Uiso   1.00
H761   H     0.76721   0.37971   0.95849   0.00000  Uiso   1.00
H762   H     0.90061   0.33640   0.74465   0.00000  Uiso   1.00
H763   H     0.76606   0.66360   0.75535   0.00000  Uiso   1.00
H764   H     0.67123   0.46079   0.71598   0.00000  Uiso   1.00
N765   N     0.98344   0.48598   0.73783   0.00000  Uiso   1.00
N766   N     0.68322   0.51402   0.76217   0.00000  Uiso   1.00
O767   O     0.79642   0.57952   0.75299   0.00000  Uiso   1.00
O768   O     0.87144   0.65882   0.92033   0.00000  Uiso   1.00
O769   O     0.72160   0.33714   0.53361   0.00000  Uiso   1.00
O770   O     0.79522   0.34118   0.57967   0.00000  Uiso   1.00
O771   O     0.87025   0.42048   0.74702   0.00000  Uiso   1.00
O772   O     0.89280   0.57054   0.74519   0.00000  Uiso   1.00
O773   O     0.77387   0.42946   0.75481   0.00000  Uiso   1.00
O774   O     0.78514   0.50450   0.81997   0.00000  Uiso   1.00
O775   O     0.88153   0.49550   0.68003   0.00000  Uiso   1.00
O776   O     0.88152   0.49552   0.81218   0.00000  Uiso   1.00
O777   O     0.78515   0.50448   0.68783   0.00000  Uiso   1.00
O778   O     0.94507   0.66286   0.96639   0.00000  Uiso   1.00
Zn779  Zn    0.76898   0.50600   0.75521   0.00000  Uiso   1.00
Zn780  Zn    0.89769   0.49400   0.74479   0.00000  Uiso   1.00
C781   C     0.18191   0.93156   0.74884   0.00000  Uiso   1.00
C782   C     0.19389   0.87595   0.90568   0.00000  Uiso   1.00
C783   C     0.16483   0.83362   0.61609   0.00000  Uiso   1.00
C784   C     0.16850   0.83304   0.88391   0.00000  Uiso   1.00
C785   C     0.19129   0.87592   0.59284   0.00000  Uiso   1.00
C786   C     0.14204   0.79075   0.90716   0.00000  Uiso   1.00
C787   C     0.19140   0.87641   0.54639   0.00000  Uiso   1.00
C788   C     0.14194   0.79026   0.95361   0.00000  Uiso   1.00
C789   C     0.16659   0.83289   0.52340   0.00000  Uiso   1.00
C790   C     0.16674   0.83378   0.97660   0.00000  Uiso   1.00
C791   C     0.14176   0.78860   0.54737   0.00000  Uiso   1.00
C792   C     0.15142   0.73511   0.75116   0.00000  Uiso   1.00
C793   C     0.19158   0.87807   0.95263   0.00000  Uiso   1.00
C794   C     0.21519   0.92017   0.52301   0.00000  Uiso   1.00
C795   C     0.11814   0.74649   0.97699   0.00000  Uiso   1.00
C796   C     0.23549   0.97184   0.95392   0.00000  Uiso   1.00
C797   C     0.09784   0.69483   0.54608   0.00000  Uiso   1.00
C798   C     0.21444   0.92223   0.97623   0.00000  Uiso   1.00
C799   C     0.11889   0.74444   0.52377   0.00000  Uiso   1.00
C800   C     0.18995   0.98606   0.74816   0.00000  Uiso   1.00
C801   C     0.14338   0.68060   0.75184   0.00000  Uiso   1.00
C802   C     0.16733   0.83333   0.83637   0.00000  Uiso   1.00
C803   C     0.16600   0.83334   0.66363   0.00000  Uiso   1.00
C804   C     0.13945   0.79072   0.59432   0.00000  Uiso   1.00
H805   H     0.11837   0.75953   0.61454   0.00000  Uiso   1.00
H806   H     0.32877   0.87254   0.78402   0.00000  Uiso   1.00
H807   H     0.22288   0.69330   0.90851   0.00000  Uiso   1.00
H808   H     0.11045   0.97337   0.59149   0.00000  Uiso   1.00
H809   H     0.21497   0.90714   0.88546   0.00000  Uiso   1.00
H810   H     0.21070   0.90871   0.61114   0.00000  Uiso   1.00
H811   H     0.12263   0.75796   0.88886   0.00000  Uiso   1.00
H812   H     0.23279   0.95362   0.54151   0.00000  Uiso   1.00
H813   H     0.10054   0.71304   0.95849   0.00000  Uiso   1.00
H814   H     0.23394   0.66973   0.74465   0.00000  Uiso   1.00
H815   H     0.09939   0.99693   0.75535   0.00000  Uiso   1.00
H816   H     0.00456   0.79413   0.71598   0.00000  Uiso   1.00
N817   N     0.31678   0.81932   0.73783   0.00000  Uiso   1.00
N818   N     0.01656   0.84735   0.76217   0.00000  Uiso   1.00
O819   O     0.12975   0.91286   0.75299   0.00000  Uiso   1.00
O820   O     0.20478   0.99216   0.92033   0.00000  Uiso   1.00
O821   O     0.05493   0.67047   0.53361   0.00000  Uiso   1.00
O822   O     0.12856   0.67451   0.57967   0.00000  Uiso   1.00
O823   O     0.20358   0.75381   0.74702   0.00000  Uiso   1.00
O824   O     0.22613   0.90387   0.74519   0.00000  Uiso   1.00
O825   O     0.10720   0.76279   0.75481   0.00000  Uiso   1.00
O826   O     0.11847   0.83784   0.81997   0.00000  Uiso   1.00
O827   O     0.21486   0.82883   0.68003   0.00000  Uiso   1.00
O828   O     0.21485   0.82885   0.81218   0.00000  Uiso   1.00
O829   O     0.11848   0.83781   0.68783   0.00000  Uiso   1.00
O830   O     0.27840   0.99619   0.96639   0.00000  Uiso   1.00
Zn831  Zn    0.10231   0.83933   0.75521   0.00000  Uiso   1.00
Zn832  Zn    0.23102   0.82734   0.74479   0.00000  Uiso   1.00
C833   C     0.51524   0.93156   0.74884   0.00000  Uiso   1.00
C834   C     0.52722   0.87595   0.90568   0.00000  Uiso   1.00
C835   C     0.49816   0.83362   0.61609   0.00000  Uiso   1.00
C836   C     0.50184   0.83304   0.88391   0.00000  Uiso   1.00
C837   C     0.52462   0.87592   0.59284   0.00000  Uiso   1.00
C838   C     0.47538   0.79075   0.90716   0.00000  Uiso   1.00
C839   C     0.52473   0.87641   0.54639   0.00000  Uiso   1.00
C840   C     0.47527   0.79026   0.95361   0.00000  Uiso   1.00
C841   C     0.49993   0.83289   0.52340   0.00000  Uiso   1.00
C842   C     0.50007   0.83378   0.97660   0.00000  Uiso   1.00
C843   C     0.47509   0.78860   0.54737   0.00000  Uiso   1.00
C844   C     0.48476   0.73511   0.75116   0.00000  Uiso   1.00
C845   C     0.52491   0.87807   0.95263   0.00000  Uiso   1.00
C846   C     0.54852   0.92017   0.52301   0.00000  Uiso   1.00
C847   C     0.45148   0.74649   0.97699   0.00000  Uiso   1.00
C848   C     0.56882   0.97184   0.95392   0.00000  Uiso   1.00
C849   C     0.43118   0.69483   0.54608   0.00000  Uiso   1.00
C850   C     0.54777   0.92223   0.97623   0.00000  Uiso   1.00
C851   C     0.45223   0.74444   0.52377   0.00000  Uiso   1.00
C852   C     0.52328   0.98606   0.74816   0.00000  Uiso   1.00
C853   C     0.47672   0.68060   0.75184   0.00000  Uiso   1.00
C854   C     0.50067   0.83333   0.83637   0.00000  Uiso   1.00
C855   C     0.49933   0.83334   0.66363   0.00000  Uiso   1.00
C856   C     0.47278   0.79072   0.59432   0.00000  Uiso   1.00
H857   H     0.45170   0.75953   0.61454   0.00000  Uiso   1.00
H858   H     0.66211   0.87254   0.78402   0.00000  Uiso   1.00
H859   H     0.55622   0.69330   0.90851   0.00000  Uiso   1.00
H860   H     0.44378   0.97337   0.59149   0.00000  Uiso   1.00
H861   H     0.54830   0.90714   0.88546   0.00000  Uiso   1.00
H862   H     0.54403   0.90871   0.61114   0.00000  Uiso   1.00
H863   H     0.45597   0.75796   0.88886   0.00000  Uiso   1.00
H864   H     0.56612   0.95362   0.54151   0.00000  Uiso   1.00
H865   H     0.43388   0.71304   0.95849   0.00000  Uiso   1.00
H866   H     0.56727   0.66973   0.74465   0.00000  Uiso   1.00
H867   H     0.43273   0.99693   0.75535   0.00000  Uiso   1.00
H868   H     0.33789   0.79413   0.71598   0.00000  Uiso   1.00
N869   N     0.65011   0.81932   0.73783   0.00000  Uiso   1.00
N870   N     0.34989   0.84735   0.76217   0.00000  Uiso   1.00
O871   O     0.46308   0.91286   0.75299   0.00000  Uiso   1.00
O872   O     0.53811   0.99216   0.92033   0.00000  Uiso   1.00
O873   O     0.38826   0.67047   0.53361   0.00000  Uiso   1.00
O874   O     0.46189   0.67451   0.57967   0.00000  Uiso   1.00
O875   O     0.53692   0.75381   0.74702   0.00000  Uiso   1.00
O876   O     0.55946   0.90387   0.74519   0.00000  Uiso   1.00
O877   O     0.44054   0.76279   0.75481   0.00000  Uiso   1.00
O878   O     0.45181   0.83784   0.81997   0.00000  Uiso   1.00
O879   O     0.54819   0.82883   0.68003   0.00000  Uiso   1.00
O880   O     0.54819   0.82885   0.81218   0.00000  Uiso   1.00
O881   O     0.45181   0.83781   0.68783   0.00000  Uiso   1.00
O882   O     0.61174   0.99619   0.96639   0.00000  Uiso   1.00
Zn883  Zn    0.43565   0.83933   0.75521   0.00000  Uiso   1.00
Zn884  Zn    0.56435   0.82734   0.74479   0.00000  Uiso   1.00
C885   C     0.84858   0.93156   0.74884   0.00000  Uiso   1.00
C886   C     0.86055   0.87595   0.90568   0.00000  Uiso   1.00
C887   C     0.83150   0.83362   0.61609   0.00000  Uiso   1.00
C888   C     0.83517   0.83304   0.88391   0.00000  Uiso   1.00
C889   C     0.85796   0.87592   0.59284   0.00000  Uiso   1.00
C890   C     0.80871   0.79075   0.90716   0.00000  Uiso   1.00
C891   C     0.85806   0.87641   0.54639   0.00000  Uiso   1.00
C892   C     0.80860   0.79026   0.95361   0.00000  Uiso   1.00
C893   C     0.83326   0.83289   0.52340   0.00000  Uiso   1.00
C894   C     0.83341   0.83378   0.97660   0.00000  Uiso   1.00
C895   C     0.80842   0.78860   0.54737   0.00000  Uiso   1.00
C896   C     0.81809   0.73511   0.75116   0.00000  Uiso   1.00
C897   C     0.85824   0.87807   0.95263   0.00000  Uiso   1.00
C898   C     0.88186   0.92017   0.52301   0.00000  Uiso   1.00
C899   C     0.78481   0.74649   0.97699   0.00000  Uiso   1.00
C900   C     0.90216   0.97184   0.95392   0.00000  Uiso   1.00
C901   C     0.76451   0.69483   0.54608   0.00000  Uiso   1.00
C902   C     0.88111   0.92223   0.97623   0.00000  Uiso   1.00
C903   C     0.78556   0.74444   0.52377   0.00000  Uiso   1.00
C904   C     0.85662   0.98606   0.74816   0.00000  Uiso   1.00
C905   C     0.81005   0.68060   0.75184   0.00000  Uiso   1.00
C906   C     0.83400   0.83333   0.83637   0.00000  Uiso   1.00
C907   C     0.83266   0.83334   0.66363   0.00000  Uiso   1.00
C908   C     0.80611   0.79072   0.59432   0.00000  Uiso   1.00
H909   H     0.78503   0.75953   0.61454   0.00000  Uiso   1.00
H910   H     0.99544   0.87254   0.78402   0.00000  Uiso   1.00
H911   H     0.88955   0.69330   0.90851   0.00000  Uiso   1.00
H912   H     0.77712   0.97337   0.59149   0.00000  Uiso   1.00
H913   H     0.88163   0.90714   0.88546   0.00000  Uiso   1.00
H914   H     0.87737   0.90871   0.61114   0.00000  Uiso   1.00
H915   H     0.78930   0.75796   0.88886   0.00000  Uiso   1.00
H916   H     0.89946   0.95362   0.54151   0.00000  Uiso   1.00
H917   H     0.76721   0.71304   0.95849   0.00000  Uiso   1.00
H918   H     0.90061   0.66973   0.74465   0.00000  Uiso   1.00
H919   H     0.76606   0.99693   0.75535   0.00000  Uiso   1.00
H920   H     0.67123   0.79413   0.71598   0.00000  Uiso   1.00
N921   N     0.98344   0.81932   0.73783   0.00000  Uiso   1.00
N922   N     0.68322   0.84735   0.76217   0.00000  Uiso   1.00
O923   O     0.79642   0.91286   0.75299   0.00000  Uiso   1.00
O924   O     0.87144   0.99216   0.92033   0.00000  Uiso   1.00
O925   O     0.72160   0.67047   0.53361   0.00000  Uiso   1.00
O926   O     0.79522   0.67451   0.57967   0.00000  Uiso   1.00
O927   O     0.87025   0.75381   0.74702   0.00000  Uiso   1.00
O928   O     0.89280   0.90387   0.74519   0.00000  Uiso   1.00
O929   O     0.77387   0.76279   0.75481   0.00000  Uiso   1.00
O930   O     0.78514   0.83784   0.81997   0.00000  Uiso   1.00
O931   O     0.88153   0.82883   0.68003   0.00000  Uiso   1.00
O932   O     0.88152   0.82885   0.81218   0.00000  Uiso   1.00
O933   O     0.78515   0.83781   0.68783   0.00000  Uiso   1.00
O934   O     0.94507   0.99619   0.96639   0.00000  Uiso   1.00
Zn935  Zn    0.76898   0.83933   0.75521   0.00000  Uiso   1.00
Zn936  Zn    0.89769   0.82734   0.74479   0.00000  Uiso   1.00
loop_
_geom_bond_atom_site_label_1
_geom_bond_atom_site_label_2
_geom_bond_distance
_geom_bond_site_symmetry_2
_ccdc_geom_bond_type
C1     O44     1.286   .     A
C1     O39     1.278   .     A
C1     C20     1.400   .     S
C2     C4      1.388   .     A
C2     H29     1.082   .     S
C2     C13     1.393   .     A
C3     C5      1.386   .     A
C3     C24     1.388   .     A
C3     C23     1.416   .     S
C4     C22     1.416   .     S
C4     C6      1.386   .     A
C5     H30     1.086   .     S
C5     C7      1.381   .     A
C6     H31     1.086   .     S
C6     C8      1.381   .     A
C7     C9      1.412   .     A
C7     C14     1.396   .     A
C8     C15     1.396   .     A
C8     C10     1.412   .     A
C9     C11     1.423   .     A
C9     C478    1.392   1_554 S
C10    C13     1.423   .     A
C10    C477    1.392   .     S
C11    C19     1.417   .     A
C11    C24     1.393   .     A
C12    C21     1.400   .     S
C12    O43     1.278   .     A
C12    O45     1.286   .     A
C13    C18     1.417   .     A
C14    H32     1.085   .     S
C14    C486    1.394   1_554 S
C15    H33     1.085   .     S
C15    C487    1.394   .     S
C16    O40     1.399   .     S
C16    O50     1.223   .     D
C16    C18     1.486   .     S
C17    C19     1.486   .     S
C17    O41     1.223   .     D
C17    O42     1.399   .     S
C18    C482    1.394   .     S
C19    C483    1.394   1_554 S
C20    C177    1.335   .     S
C20    H190    1.088   .     S
C21    C332    1.335   1_545 S
C21    H347    1.088   1_545 S
C22    O48     1.287   .     A
C22    O46     1.285   .     A
C23    O49     1.287   .     A
C23    O47     1.285   .     A
C24    H25     1.082   .     S
H26    N90     1.029   .     S
H27    O352    1.014   1_545 S
H28    O198    1.014   .     S
H34    C332    1.088   1_545 S
H35    C177    1.088   .     S
H36    N141    1.029   1_455 S
N37    Zn52    2.019   .     S
N37    H88     1.029   .     S
N37    N90     1.276   .     S
N38    Zn51    2.019   .     S
N38    H130    1.029   1_455 S
N38    N141    1.276   1_455 S
O39    Zn51    1.955   .     S
O40    H183    1.014   .     S
O42    H340    1.014   1_545 S
O43    Zn52    1.955   .     S
O44    Zn52    1.975   .     S
O45    Zn51    1.975   .     S
O46    Zn51    1.991   .     S
O47    Zn52    1.991   .     S
O48    Zn52    2.012   .     S
O49    Zn51    2.012   .     S
C53    O96     1.286   .     A
C53    O91     1.278   .     A
C53    C72     1.400   .     S
C54    C56     1.388   .     A
C54    H81     1.082   .     S
C54    C65     1.393   .     A
C55    C57     1.386   .     A
C55    C76     1.388   .     A
C55    C75     1.416   .     S
C56    C74     1.416   .     S
C56    C58     1.386   .     A
C57    H82     1.086   .     S
C57    C59     1.381   .     A
C58    H83     1.086   .     S
C58    C60     1.381   .     A
C59    C61     1.412   .     A
C59    C66     1.396   .     A
C60    C67     1.396   .     A
C60    C62     1.412   .     A
C61    C63     1.423   .     A
C61    C530    1.392   1_554 S
C62    C65     1.423   .     A
C62    C529    1.392   .     S
C63    C71     1.417   .     A
C63    C76     1.393   .     A
C64    C73     1.400   .     S
C64    O95     1.278   .     A
C64    O97     1.286   .     A
C65    C70     1.417   .     A
C66    H84     1.085   .     S
C66    C538    1.394   1_554 S
C67    H85     1.085   .     S
C67    C539    1.394   .     S
C68    O92     1.399   .     S
C68    O102    1.223   .     D
C68    C70     1.486   .     S
C69    C71     1.486   .     S
C69    O93     1.223   .     D
C69    O94     1.399   .     S
C70    C534    1.394   .     S
C71    C535    1.394   1_554 S
C72    C229    1.335   .     S
C72    H242    1.088   .     S
C73    C384    1.335   1_545 S
C73    H399    1.088   1_545 S
C74    O100    1.287   .     A
C74    O98     1.285   .     A
C75    O101    1.287   .     A
C75    O99     1.285   .     A
C76    H77     1.082   .     S
H78    N142    1.029   .     S
H79    O404    1.014   1_545 S
H80    O250    1.014   .     S
H86    C384    1.088   1_545 S
H87    C229    1.088   .     S
N89    Zn104   2.019   .     S
N89    H140    1.029   .     S
N89    N142    1.276   .     S
N90    Zn103   2.019   .     S
O91    Zn103   1.955   .     S
O92    H235    1.014   .     S
O94    H392    1.014   1_545 S
O95    Zn104   1.955   .     S
O96    Zn104   1.975   .     S
O97    Zn103   1.975   .     S
O98    Zn103   1.991   .     S
O99    Zn104   1.991   .     S
O100   Zn104   2.012   .     S
O101   Zn103   2.012   .     S
C105   O148    1.286   .     A
C105   O143    1.278   .     A
C105   C124    1.400   .     S
C106   C108    1.388   .     A
C106   H133    1.082   .     S
C106   C117    1.393   .     A
C107   C109    1.386   .     A
C107   C128    1.388   .     A
C107   C127    1.416   .     S
C108   C126    1.416   .     S
C108   C110    1.386   .     A
C109   H134    1.086   .     S
C109   C111    1.381   .     A
C110   H135    1.086   .     S
C110   C112    1.381   .     A
C111   C113    1.412   .     A
C111   C118    1.396   .     A
C112   C119    1.396   .     A
C112   C114    1.412   .     A
C113   C115    1.423   .     A
C113   C582    1.392   1_554 S
C114   C117    1.423   .     A
C114   C581    1.392   .     S
C115   C123    1.417   .     A
C115   C128    1.393   .     A
C116   C125    1.400   .     S
C116   O147    1.278   .     A
C116   O149    1.286   .     A
C117   C122    1.417   .     A
C118   H136    1.085   .     S
C118   C590    1.394   1_554 S
C119   H137    1.085   .     S
C119   C591    1.394   .     S
C120   O144    1.399   .     S
C120   O154    1.223   .     D
C120   C122    1.486   .     S
C121   C123    1.486   .     S
C121   O145    1.223   .     D
C121   O146    1.399   .     S
C122   C586    1.394   .     S
C123   C587    1.394   1_554 S
C124   C281    1.335   .     S
C124   H294    1.088   .     S
C125   C436    1.335   1_545 S
C125   H451    1.088   1_545 S
C126   O152    1.287   .     A
C126   O150    1.285   .     A
C127   O153    1.287   .     A
C127   O151    1.285   .     A
C128   H129    1.082   .     S
H130   N38     1.029   1_655 S
H131   O456    1.014   1_545 S
H132   O302    1.014   .     S
H138   C436    1.088   1_545 S
H139   C281    1.088   .     S
N141   Zn156   2.019   .     S
N141   H36     1.029   1_655 S
N141   N38     1.276   1_655 S
N142   Zn155   2.019   .     S
O143   Zn155   1.955   .     S
O144   H287    1.014   .     S
O146   H444    1.014   1_545 S
O147   Zn156   1.955   .     S
O148   Zn156   1.975   .     S
O149   Zn155   1.975   .     S
O150   Zn155   1.991   .     S
O151   Zn156   1.991   .     S
O152   Zn156   2.012   .     S
O153   Zn155   2.012   .     S
C157   O200    1.286   .     A
C157   O195    1.278   .     A
C157   C176    1.400   .     S
C158   C160    1.388   .     A
C158   H185    1.082   .     S
C158   C169    1.393   .     A
C159   C161    1.386   .     A
C159   C180    1.388   .     A
C159   C179    1.416   .     S
C160   C178    1.416   .     S
C160   C162    1.386   .     A
C161   H186    1.086   .     S
C161   C163    1.381   .     A
C162   H187    1.086   .     S
C162   C164    1.381   .     A
C163   C165    1.412   .     A
C163   C170    1.396   .     A
C164   C171    1.396   .     A
C164   C166    1.412   .     A
C165   C167    1.423   .     A
C165   C634    1.392   1_554 S
C166   C169    1.423   .     A
C166   C633    1.392   .     S
C167   C175    1.417   .     A
C167   C180    1.393   .     A
C168   C177    1.400   .     S
C168   O199    1.278   .     A
C168   O201    1.286   .     A
C169   C174    1.417   .     A
C170   H188    1.085   .     S
C170   C642    1.394   1_554 S
C171   H189    1.085   .     S
C171   C643    1.394   .     S
C172   O196    1.399   .     S
C172   O206    1.223   .     D
C172   C174    1.486   .     S
C173   C175    1.486   .     S
C173   O197    1.223   .     D
C173   O198    1.399   .     S
C174   C638    1.394   .     S
C175   C639    1.394   1_554 S
C176   C333    1.335   .     S
C176   H346    1.088   .     S
C178   O204    1.287   .     A
C178   O202    1.285   .     A
C179   O205    1.287   .     A
C179   O203    1.285   .     A
C180   H181    1.082   .     S
H182   N246    1.029   .     S
H184   O354    1.014   .     S
H191   C333    1.088   .     S
H192   N297    1.029   1_455 S
N193   Zn208   2.019   .     S
N193   H244    1.029   .     S
N193   N246    1.276   .     S
N194   Zn207   2.019   .     S
N194   H286    1.029   1_455 S
N194   N297    1.276   1_455 S
O195   Zn207   1.955   .     S
O196   H339    1.014   .     S
O199   Zn208   1.955   .     S
O200   Zn208   1.975   .     S
O201   Zn207   1.975   .     S
O202   Zn207   1.991   .     S
O203   Zn208   1.991   .     S
O204   Zn208   2.012   .     S
O205   Zn207   2.012   .     S
C209   O252    1.286   .     A
C209   O247    1.278   .     A
C209   C228    1.400   .     S
C210   C212    1.388   .     A
C210   H237    1.082   .     S
C210   C221    1.393   .     A
C211   C213    1.386   .     A
C211   C232    1.388   .     A
C211   C231    1.416   .     S
C212   C230    1.416   .     S
C212   C214    1.386   .     A
C213   H238    1.086   .     S
C213   C215    1.381   .     A
C214   H239    1.086   .     S
C214   C216    1.381   .     A
C215   C217    1.412   .     A
C215   C222    1.396   .     A
C216   C223    1.396   .     A
C216   C218    1.412   .     A
C217   C219    1.423   .     A
C217   C686    1.392   1_554 S
C218   C221    1.423   .     A
C218   C685    1.392   .     S
C219   C227    1.417   .     A
C219   C232    1.393   .     A
C220   C229    1.400   .     S
C220   O251    1.278   .     A
C220   O253    1.286   .     A
C221   C226    1.417   .     A
C222   H240    1.085   .     S
C222   C694    1.394   1_554 S
C223   H241    1.085   .     S
C223   C695    1.394   .     S
C224   O248    1.399   .     S
C224   O258    1.223   .     D
C224   C226    1.486   .     S
C225   C227    1.486   .     S
C225   O249    1.223   .     D
C225   O250    1.399   .     S
C226   C690    1.394   .     S
C227   C691    1.394   1_554 S
C228   C385    1.335   .     S
C228   H398    1.088   .     S
C230   O256    1.287   .     A
C230   O254    1.285   .     A
C231   O257    1.287   .     A
C231   O255    1.285   .     A
C232   H233    1.082   .     S
H234   N298    1.029   .     S
H236   O406    1.014   .     S
H243   C385    1.088   .     S
N245   Zn260   2.019   .     S
N245   H296    1.029   .     S
N245   N298    1.276   .     S
N246   Zn259   2.019   .     S
O247   Zn259   1.955   .     S
O248   H391    1.014   .     S
O251   Zn260   1.955   .     S
O252   Zn260   1.975   .     S
O253   Zn259   1.975   .     S
O254   Zn259   1.991   .     S
O255   Zn260   1.991   .     S
O256   Zn260   2.012   .     S
O257   Zn259   2.012   .     S
C261   O304    1.286   .     A
C261   O299    1.278   .     A
C261   C280    1.400   .     S
C262   C264    1.388   .     A
C262   H289    1.082   .     S
C262   C273    1.393   .     A
C263   C265    1.386   .     A
C263   C284    1.388   .     A
C263   C283    1.416   .     S
C264   C282    1.416   .     S
C264   C266    1.386   .     A
C265   H290    1.086   .     S
C265   C267    1.381   .     A
C266   H291    1.086   .     S
C266   C268    1.381   .     A
C267   C269    1.412   .     A
C267   C274    1.396   .     A
C268   C275    1.396   .     A
C268   C270    1.412   .     A
C269   C271    1.423   .     A
C269   C738    1.392   1_554 S
C270   C273    1.423   .     A
C270   C737    1.392   .     S
C271   C279    1.417   .     A
C271   C284    1.393   .     A
C272   C281    1.400   .     S
C272   O303    1.278   .     A
C272   O305    1.286   .     A
C273   C278    1.417   .     A
C274   H292    1.085   .     S
C274   C746    1.394   1_554 S
C275   H293    1.085   .     S
C275   C747    1.394   .     S
C276   O300    1.399   .     S
C276   O310    1.223   .     D
C276   C278    1.486   .     S
C277   C279    1.486   .     S
C277   O301    1.223   .     D
C277   O302    1.399   .     S
C278   C742    1.394   .     S
C279   C743    1.394   1_554 S
C280   C437    1.335   .     S
C280   H450    1.088   .     S
C282   O308    1.287   .     A
C282   O306    1.285   .     A
C283   O309    1.287   .     A
C283   O307    1.285   .     A
C284   H285    1.082   .     S
H286   N194    1.029   1_655 S
H288   O458    1.014   .     S
H295   C437    1.088   .     S
N297   Zn312   2.019   .     S
N297   H192    1.029   1_655 S
N297   N194    1.276   1_655 S
N298   Zn311   2.019   .     S
O299   Zn311   1.955   .     S
O300   H443    1.014   .     S
O303   Zn312   1.955   .     S
O304   Zn312   1.975   .     S
O305   Zn311   1.975   .     S
O306   Zn311   1.991   .     S
O307   Zn312   1.991   .     S
O308   Zn312   2.012   .     S
O309   Zn311   2.012   .     S
C313   O356    1.286   .     A
C313   O351    1.278   .     A
C313   C332    1.400   .     S
C314   C316    1.388   .     A
C314   H341    1.082   .     S
C314   C325    1.393   .     A
C315   C317    1.386   .     A
C315   C336    1.388   .     A
C315   C335    1.416   .     S
C316   C334    1.416   .     S
C316   C318    1.386   .     A
C317   H342    1.086   .     S
C317   C319    1.381   .     A
C318   H343    1.086   .     S
C318   C320    1.381   .     A
C319   C321    1.412   .     A
C319   C326    1.396   .     A
C320   C327    1.396   .     A
C320   C322    1.412   .     A
C321   C323    1.423   .     A
C321   C790    1.392   1_554 S
C322   C325    1.423   .     A
C322   C789    1.392   .     S
C323   C331    1.417   .     A
C323   C336    1.393   .     A
C324   C333    1.400   .     S
C324   O355    1.278   .     A
C324   O357    1.286   .     A
C325   C330    1.417   .     A
C326   H344    1.085   .     S
C326   C798    1.394   1_554 S
C327   H345    1.085   .     S
C327   C799    1.394   .     S
C328   O352    1.399   .     S
C328   O362    1.223   .     D
C328   C330    1.486   .     S
C329   C331    1.486   .     S
C329   O353    1.223   .     D
C329   O354    1.399   .     S
C330   C794    1.394   .     S
C331   C795    1.394   1_554 S
C332   C21     1.335   1_565 S
C332   H34     1.088   1_565 S
C334   O360    1.287   .     A
C334   O358    1.285   .     A
C335   O361    1.287   .     A
C335   O359    1.285   .     A
C336   H337    1.082   .     S
H338   N402    1.029   .     S
H340   O42     1.014   1_565 S
H347   C21     1.088   1_565 S
H348   N453    1.029   1_455 S
N349   Zn364   2.019   .     S
N349   H400    1.029   .     S
N349   N402    1.276   .     S
N350   Zn363   2.019   .     S
N350   H442    1.029   1_455 S
N350   N453    1.276   1_455 S
O351   Zn363   1.955   .     S
O352   H27     1.014   1_565 S
O355   Zn364   1.955   .     S
O356   Zn364   1.975   .     S
O357   Zn363   1.975   .     S
O358   Zn363   1.991   .     S
O359   Zn364   1.991   .     S
O360   Zn364   2.012   .     S
O361   Zn363   2.012   .     S
C365   O408    1.286   .     A
C365   O403    1.278   .     A
C365   C384    1.400   .     S
C366   C368    1.388   .     A
C366   H393    1.082   .     S
C366   C377    1.393   .     A
C367   C369    1.386   .     A
C367   C388    1.388   .     A
C367   C387    1.416   .     S
C368   C386    1.416   .     S
C368   C370    1.386   .     A
C369   H394    1.086   .     S
C369   C371    1.381   .     A
C370   H395    1.086   .     S
C370   C372    1.381   .     A
C371   C373    1.412   .     A
C371   C378    1.396   .     A
C372   C379    1.396   .     A
C372   C374    1.412   .     A
C373   C375    1.423   .     A
C373   C842    1.392   1_554 S
C374   C377    1.423   .     A
C374   C841    1.392   .     S
C375   C383    1.417   .     A
C375   C388    1.393   .     A
C376   C385    1.400   .     S
C376   O407    1.278   .     A
C376   O409    1.286   .     A
C377   C382    1.417   .     A
C378   H396    1.085   .     S
C378   C850    1.394   1_554 S
C379   H397    1.085   .     S
C379   C851    1.394   .     S
C380   O404    1.399   .     S
C380   O414    1.223   .     D
C380   C382    1.486   .     S
C381   C383    1.486   .     S
C381   O405    1.223   .     D
C381   O406    1.399   .     S
C382   C846    1.394   .     S
C383   C847    1.394   1_554 S
C384   C73     1.335   1_565 S
C384   H86     1.088   1_565 S
C386   O412    1.287   .     A
C386   O410    1.285   .     A
C387   O413    1.287   .     A
C387   O411    1.285   .     A
C388   H389    1.082   .     S
H390   N454    1.029   .     S
H392   O94     1.014   1_565 S
H399   C73     1.088   1_565 S
N401   Zn416   2.019   .     S
N401   H452    1.029   .     S
N401   N454    1.276   .     S
N402   Zn415   2.019   .     S
O403   Zn415   1.955   .     S
O404   H79     1.014   1_565 S
O407   Zn416   1.955   .     S
O408   Zn416   1.975   .     S
O409   Zn415   1.975   .     S
O410   Zn415   1.991   .     S
O411   Zn416   1.991   .     S
O412   Zn416   2.012   .     S
O413   Zn415   2.012   .     S
C417   O460    1.286   .     A
C417   O455    1.278   .     A
C417   C436    1.400   .     S
C418   C420    1.388   .     A
C418   H445    1.082   .     S
C418   C429    1.393   .     A
C419   C421    1.386   .     A
C419   C440    1.388   .     A
C419   C439    1.416   .     S
C420   C438    1.416   .     S
C420   C422    1.386   .     A
C421   H446    1.086   .     S
C421   C423    1.381   .     A
C422   H447    1.086   .     S
C422   C424    1.381   .     A
C423   C425    1.412   .     A
C423   C430    1.396   .     A
C424   C431    1.396   .     A
C424   C426    1.412   .     A
C425   C427    1.423   .     A
C425   C894    1.392   1_554 S
C426   C429    1.423   .     A
C426   C893    1.392   .     S
C427   C435    1.417   .     A
C427   C440    1.393   .     A
C428   C437    1.400   .     S
C428   O459    1.278   .     A
C428   O461    1.286   .     A
C429   C434    1.417   .     A
C430   H448    1.085   .     S
C430   C902    1.394   1_554 S
C431   H449    1.085   .     S
C431   C903    1.394   .     S
C432   O456    1.399   .     S
C432   O466    1.223   .     D
C432   C434    1.486   .     S
C433   C435    1.486   .     S
C433   O457    1.223   .     D
C433   O458    1.399   .     S
C434   C898    1.394   .     S
C435   C899    1.394   1_554 S
C436   C125    1.335   1_565 S
C436   H138    1.088   1_565 S
C438   O464    1.287   .     A
C438   O462    1.285   .     A
C439   O465    1.287   .     A
C439   O463    1.285   .     A
C440   H441    1.082   .     S
H442   N350    1.029   1_655 S
H444   O146    1.014   1_565 S
H451   C125    1.088   1_565 S
N453   Zn468   2.019   .     S
N453   H348    1.029   1_655 S
N453   N350    1.276   1_655 S
N454   Zn467   2.019   .     S
O455   Zn467   1.955   .     S
O456   H131    1.014   1_565 S
O459   Zn468   1.955   .     S
O460   Zn468   1.975   .     S
O461   Zn467   1.975   .     S
O462   Zn467   1.991   .     S
O463   Zn468   1.991   .     S
O464   Zn468   2.012   .     S
O465   Zn467   2.012   .     S
C469   O512    1.286   .     A
C469   O507    1.278   .     A
C469   C488    1.400   .     S
C470   C472    1.388   .     A
C470   H497    1.082   .     S
C470   C481    1.393   .     A
C471   C473    1.386   .     A
C471   C492    1.388   .     A
C471   C491    1.416   .     S
C472   C490    1.416   .     S
C472   C474    1.386   .     A
C473   H498    1.086   .     S
C473   C475    1.381   .     A
C474   H499    1.086   .     S
C474   C476    1.381   .     A
C475   C477    1.412   .     A
C475   C482    1.396   .     A
C476   C483    1.396   .     A
C476   C478    1.412   .     A
C477   C479    1.423   .     A
C478   C481    1.423   .     A
C478   C9      1.392   1_556 S
C479   C487    1.417   .     A
C479   C492    1.393   .     A
C480   C489    1.400   .     S
C480   O511    1.278   .     A
C480   O513    1.286   .     A
C481   C486    1.417   .     A
C482   H500    1.085   .     S
C483   H501    1.085   .     S
C483   C19     1.394   1_556 S
C484   O508    1.399   .     S
C484   O518    1.223   .     D
C484   C486    1.486   .     S
C485   C487    1.486   .     S
C485   O509    1.223   .     D
C485   O510    1.399   .     S
C486   C14     1.394   1_556 S
C488   C645    1.335   .     S
C488   H658    1.088   .     S
C489   C800    1.335   1_545 S
C489   H815    1.088   1_545 S
C490   O516    1.287   .     A
C490   O514    1.285   .     A
C491   O517    1.287   .     A
C491   O515    1.285   .     A
C492   H493    1.082   .     S
H494   N558    1.029   .     S
H495   O820    1.014   1_545 S
H496   O666    1.014   .     S
H502   C800    1.088   1_545 S
H503   C645    1.088   .     S
H504   N609    1.029   1_455 S
N505   Zn520   2.019   .     S
N505   H556    1.029   .     S
N505   N558    1.276   .     S
N506   Zn519   2.019   .     S
N506   H598    1.029   1_455 S
N506   N609    1.276   1_455 S
O507   Zn519   1.955   .     S
O508   H651    1.014   .     S
O510   H808    1.014   1_545 S
O511   Zn520   1.955   .     S
O512   Zn520   1.975   .     S
O513   Zn519   1.975   .     S
O514   Zn519   1.991   .     S
O515   Zn520   1.991   .     S
O516   Zn520   2.012   .     S
O517   Zn519   2.012   .     S
C521   O564    1.286   .     A
C521   O559    1.278   .     A
C521   C540    1.400   .     S
C522   C524    1.388   .     A
C522   H549    1.082   .     S
C522   C533    1.393   .     A
C523   C525    1.386   .     A
C523   C544    1.388   .     A
C523   C543    1.416   .     S
C524   C542    1.416   .     S
C524   C526    1.386   .     A
C525   H550    1.086   .     S
C525   C527    1.381   .     A
C526   H551    1.086   .     S
C526   C528    1.381   .     A
C527   C529    1.412   .     A
C527   C534    1.396   .     A
C528   C535    1.396   .     A
C528   C530    1.412   .     A
C529   C531    1.423   .     A
C530   C533    1.423   .     A
C530   C61     1.392   1_556 S
C531   C539    1.417   .     A
C531   C544    1.393   .     A
C532   C541    1.400   .     S
C532   O563    1.278   .     A
C532   O565    1.286   .     A
C533   C538    1.417   .     A
C534   H552    1.085   .     S
C535   H553    1.085   .     S
C535   C71     1.394   1_556 S
C536   O560    1.399   .     S
C536   O570    1.223   .     D
C536   C538    1.486   .     S
C537   C539    1.486   .     S
C537   O561    1.223   .     D
C537   O562    1.399   .     S
C538   C66     1.394   1_556 S
C540   C697    1.335   .     S
C540   H710    1.088   .     S
C541   C852    1.335   1_545 S
C541   H867    1.088   1_545 S
C542   O568    1.287   .     A
C542   O566    1.285   .     A
C543   O569    1.287   .     A
C543   O567    1.285   .     A
C544   H545    1.082   .     S
H546   N610    1.029   .     S
H547   O872    1.014   1_545 S
H548   O718    1.014   .     S
H554   C852    1.088   1_545 S
H555   C697    1.088   .     S
N557   Zn572   2.019   .     S
N557   H608    1.029   .     S
N557   N610    1.276   .     S
N558   Zn571   2.019   .     S
O559   Zn571   1.955   .     S
O560   H703    1.014   .     S
O562   H860    1.014   1_545 S
O563   Zn572   1.955   .     S
O564   Zn572   1.975   .     S
O565   Zn571   1.975   .     S
O566   Zn571   1.991   .     S
O567   Zn572   1.991   .     S
O568   Zn572   2.012   .     S
O569   Zn571   2.012   .     S
C573   O616    1.286   .     A
C573   O611    1.278   .     A
C573   C592    1.400   .     S
C574   C576    1.388   .     A
C574   H601    1.082   .     S
C574   C585    1.393   .     A
C575   C577    1.386   .     A
C575   C596    1.388   .     A
C575   C595    1.416   .     S
C576   C594    1.416   .     S
C576   C578    1.386   .     A
C577   H602    1.086   .     S
C577   C579    1.381   .     A
C578   H603    1.086   .     S
C578   C580    1.381   .     A
C579   C581    1.412   .     A
C579   C586    1.396   .     A
C580   C587    1.396   .     A
C580   C582    1.412   .     A
C581   C583    1.423   .     A
C582   C585    1.423   .     A
C582   C113    1.392   1_556 S
C583   C591    1.417   .     A
C583   C596    1.393   .     A
C584   C593    1.400   .     S
C584   O615    1.278   .     A
C584   O617    1.286   .     A
C585   C590    1.417   .     A
C586   H604    1.085   .     S
C587   H605    1.085   .     S
C587   C123    1.394   1_556 S
C588   O612    1.399   .     S
C588   O622    1.223   .     D
C588   C590    1.486   .     S
C589   C591    1.486   .     S
C589   O613    1.223   .     D
C589   O614    1.399   .     S
C590   C118    1.394   1_556 S
C592   C749    1.335   .     S
C592   H762    1.088   .     S
C593   C904    1.335   1_545 S
C593   H919    1.088   1_545 S
C594   O620    1.287   .     A
C594   O618    1.285   .     A
C595   O621    1.287   .     A
C595   O619    1.285   .     A
C596   H597    1.082   .     S
H598   N506    1.029   1_655 S
H599   O924    1.014   1_545 S
H600   O770    1.014   .     S
H606   C904    1.088   1_545 S
H607   C749    1.088   .     S
N609   Zn624   2.019   .     S
N609   H504    1.029   1_655 S
N609   N506    1.276   1_655 S
N610   Zn623   2.019   .     S
O611   Zn623   1.955   .     S
O612   H755    1.014   .     S
O614   H912    1.014   1_545 S
O615   Zn624   1.955   .     S
O616   Zn624   1.975   .     S
O617   Zn623   1.975   .     S
O618   Zn623   1.991   .     S
O619   Zn624   1.991   .     S
O620   Zn624   2.012   .     S
O621   Zn623   2.012   .     S
C625   O668    1.286   .     A
C625   O663    1.278   .     A
C625   C644    1.400   .     S
C626   C628    1.388   .     A
C626   H653    1.082   .     S
C626   C637    1.393   .     A
C627   C629    1.386   .     A
C627   C648    1.388   .     A
C627   C647    1.416   .     S
C628   C646    1.416   .     S
C628   C630    1.386   .     A
C629   H654    1.086   .     S
C629   C631    1.381   .     A
C630   H655    1.086   .     S
C630   C632    1.381   .     A
C631   C633    1.412   .     A
C631   C638    1.396   .     A
C632   C639    1.396   .     A
C632   C634    1.412   .     A
C633   C635    1.423   .     A
C634   C637    1.423   .     A
C634   C165    1.392   1_556 S
C635   C643    1.417   .     A
C635   C648    1.393   .     A
C636   C645    1.400   .     S
C636   O667    1.278   .     A
C636   O669    1.286   .     A
C637   C642    1.417   .     A
C638   H656    1.085   .     S
C639   H657    1.085   .     S
C639   C175    1.394   1_556 S
C640   O664    1.399   .     S
C640   O674    1.223   .     D
C640   C642    1.486   .     S
C641   C643    1.486   .     S
C641   O665    1.223   .     D
C641   O666    1.399   .     S
C642   C170    1.394   1_556 S
C644   C801    1.335   .     S
C644   H814    1.088   .     S
C646   O672    1.287   .     A
C646   O670    1.285   .     A
C647   O673    1.287   .     A
C647   O671    1.285   .     A
C648   H649    1.082   .     S
H650   N714    1.029   .     S
H652   O822    1.014   .     S
H659   C801    1.088   .     S
H660   N765    1.029   1_455 S
N661   Zn676   2.019   .     S
N661   H712    1.029   .     S
N661   N714    1.276   .     S
N662   Zn675   2.019   .     S
N662   H754    1.029   1_455 S
N662   N765    1.276   1_455 S
O663   Zn675   1.955   .     S
O664   H807    1.014   .     S
O667   Zn676   1.955   .     S
O668   Zn676   1.975   .     S
O669   Zn675   1.975   .     S
O670   Zn675   1.991   .     S
O671   Zn676   1.991   .     S
O672   Zn676   2.012   .     S
O673   Zn675   2.012   .     S
C677   O720    1.286   .     A
C677   O715    1.278   .     A
C677   C696    1.400   .     S
C678   C680    1.388   .     A
C678   H705    1.082   .     S
C678   C689    1.393   .     A
C679   C681    1.386   .     A
C679   C700    1.388   .     A
C679   C699    1.416   .     S
C680   C698    1.416   .     S
C680   C682    1.386   .     A
C681   H706    1.086   .     S
C681   C683    1.381   .     A
C682   H707    1.086   .     S
C682   C684    1.381   .     A
C683   C685    1.412   .     A
C683   C690    1.396   .     A
C684   C691    1.396   .     A
C684   C686    1.412   .     A
C685   C687    1.423   .     A
C686   C689    1.423   .     A
C686   C217    1.392   1_556 S
C687   C695    1.417   .     A
C687   C700    1.393   .     A
C688   C697    1.400   .     S
C688   O719    1.278   .     A
C688   O721    1.286   .     A
C689   C694    1.417   .     A
C690   H708    1.085   .     S
C691   H709    1.085   .     S
C691   C227    1.394   1_556 S
C692   O716    1.399   .     S
C692   O726    1.223   .     D
C692   C694    1.486   .     S
C693   C695    1.486   .     S
C693   O717    1.223   .     D
C693   O718    1.399   .     S
C694   C222    1.394   1_556 S
C696   C853    1.335   .     S
C696   H866    1.088   .     S
C698   O724    1.287   .     A
C698   O722    1.285   .     A
C699   O725    1.287   .     A
C699   O723    1.285   .     A
C700   H701    1.082   .     S
H702   N766    1.029   .     S
H704   O874    1.014   .     S
H711   C853    1.088   .     S
N713   Zn728   2.019   .     S
N713   H764    1.029   .     S
N713   N766    1.276   .     S
N714   Zn727   2.019   .     S
O715   Zn727   1.955   .     S
O716   H859    1.014   .     S
O719   Zn728   1.955   .     S
O720   Zn728   1.975   .     S
O721   Zn727   1.975   .     S
O722   Zn727   1.991   .     S
O723   Zn728   1.991   .     S
O724   Zn728   2.012   .     S
O725   Zn727   2.012   .     S
C729   O772    1.286   .     A
C729   O767    1.278   .     A
C729   C748    1.400   .     S
C730   C732    1.388   .     A
C730   H757    1.082   .     S
C730   C741    1.393   .     A
C731   C733    1.386   .     A
C731   C752    1.388   .     A
C731   C751    1.416   .     S
C732   C750    1.416   .     S
C732   C734    1.386   .     A
C733   H758    1.086   .     S
C733   C735    1.381   .     A
C734   H759    1.086   .     S
C734   C736    1.381   .     A
C735   C737    1.412   .     A
C735   C742    1.396   .     A
C736   C743    1.396   .     A
C736   C738    1.412   .     A
C737   C739    1.423   .     A
C738   C741    1.423   .     A
C738   C269    1.392   1_556 S
C739   C747    1.417   .     A
C739   C752    1.393   .     A
C740   C749    1.400   .     S
C740   O771    1.278   .     A
C740   O773    1.286   .     A
C741   C746    1.417   .     A
C742   H760    1.085   .     S
C743   H761    1.085   .     S
C743   C279    1.394   1_556 S
C744   O768    1.399   .     S
C744   O778    1.223   .     D
C744   C746    1.486   .     S
C745   C747    1.486   .     S
C745   O769    1.223   .     D
C745   O770    1.399   .     S
C746   C274    1.394   1_556 S
C748   C905    1.335   .     S
C748   H918    1.088   .     S
C750   O776    1.287   .     A
C750   O774    1.285   .     A
C751   O777    1.287   .     A
C751   O775    1.285   .     A
C752   H753    1.082   .     S
H754   N662    1.029   1_655 S
H756   O926    1.014   .     S
H763   C905    1.088   .     S
N765   Zn780   2.019   .     S
N765   H660    1.029   1_655 S
N765   N662    1.276   1_655 S
N766   Zn779   2.019   .     S
O767   Zn779   1.955   .     S
O768   H911    1.014   .     S
O771   Zn780   1.955   .     S
O772   Zn780   1.975   .     S
O773   Zn779   1.975   .     S
O774   Zn779   1.991   .     S
O775   Zn780   1.991   .     S
O776   Zn780   2.012   .     S
O777   Zn779   2.012   .     S
C781   O824    1.286   .     A
C781   O819    1.278   .     A
C781   C800    1.400   .     S
C782   C784    1.388   .     A
C782   H809    1.082   .     S
C782   C793    1.393   .     A
C783   C785    1.386   .     A
C783   C804    1.388   .     A
C783   C803    1.416   .     S
C784   C802    1.416   .     S
C784   C786    1.386   .     A
C785   H810    1.086   .     S
C785   C787    1.381   .     A
C786   H811    1.086   .     S
C786   C788    1.381   .     A
C787   C789    1.412   .     A
C787   C794    1.396   .     A
C788   C795    1.396   .     A
C788   C790    1.412   .     A
C789   C791    1.423   .     A
C790   C793    1.423   .     A
C790   C321    1.392   1_556 S
C791   C799    1.417   .     A
C791   C804    1.393   .     A
C792   C801    1.400   .     S
C792   O823    1.278   .     A
C792   O825    1.286   .     A
C793   C798    1.417   .     A
C794   H812    1.085   .     S
C795   H813    1.085   .     S
C795   C331    1.394   1_556 S
C796   O820    1.399   .     S
C796   O830    1.223   .     D
C796   C798    1.486   .     S
C797   C799    1.486   .     S
C797   O821    1.223   .     D
C797   O822    1.399   .     S
C798   C326    1.394   1_556 S
C800   C489    1.335   1_565 S
C800   H502    1.088   1_565 S
C802   O828    1.287   .     A
C802   O826    1.285   .     A
C803   O829    1.287   .     A
C803   O827    1.285   .     A
C804   H805    1.082   .     S
H806   N870    1.029   .     S
H808   O510    1.014   1_565 S
H815   C489    1.088   1_565 S
H816   N921    1.029   1_455 S
N817   Zn832   2.019   .     S
N817   H868    1.029   .     S
N817   N870    1.276   .     S
N818   Zn831   2.019   .     S
N818   H910    1.029   1_455 S
N818   N921    1.276   1_455 S
O819   Zn831   1.955   .     S
O820   H495    1.014   1_565 S
O823   Zn832   1.955   .     S
O824   Zn832   1.975   .     S
O825   Zn831   1.975   .     S
O826   Zn831   1.991   .     S
O827   Zn832   1.991   .     S
O828   Zn832   2.012   .     S
O829   Zn831   2.012   .     S
C833   O876    1.286   .     A
C833   O871    1.278   .     A
C833   C852    1.400   .     S
C834   C836    1.388   .     A
C834   H861    1.082   .     S
C834   C845    1.393   .     A
C835   C837    1.386   .     A
C835   C856    1.388   .     A
C835   C855    1.416   .     S
C836   C854    1.416   .     S
C836   C838    1.386   .     A
C837   H862    1.086   .     S
C837   C839    1.381   .     A
C838   H863    1.086   .     S
C838   C840    1.381   .     A
C839   C841    1.412   .     A
C839   C846    1.396   .     A
C840   C847    1.396   .     A
C840   C842    1.412   .     A
C841   C843    1.423   .     A
C842   C845    1.423   .     A
C842   C373    1.392   1_556 S
C843   C851    1.417   .     A
C843   C856    1.393   .     A
C844   C853    1.400   .     S
C844   O875    1.278   .     A
C844   O877    1.286   .     A
C845   C850    1.417   .     A
C846   H864    1.085   .     S
C847   H865    1.085   .     S
C847   C383    1.394   1_556 S
C848   O872    1.399   .     S
C848   O882    1.223   .     D
C848   C850    1.486   .     S
C849   C851    1.486   .     S
C849   O873    1.223   .     D
C849   O874    1.399   .     S
C850   C378    1.394   1_556 S
C852   C541    1.335   1_565 S
C852   H554    1.088   1_565 S
C854   O880    1.287   .     A
C854   O878    1.285   .     A
C855   O881    1.287   .     A
C855   O879    1.285   .     A
C856   H857    1.082   .     S
H858   N922    1.029   .     S
H860   O562    1.014   1_565 S
H867   C541    1.088   1_565 S
N869   Zn884   2.019   .     S
N869   H920    1.029   .     S
N869   N922    1.276   .     S
N870   Zn883   2.019   .     S
O871   Zn883   1.955   .     S
O872   H547    1.014   1_565 S
O875   Zn884   1.955   .     S
O876   Zn884   1.975   .     S
O877   Zn883   1.975   .     S
O878   Zn883   1.991   .     S
O879   Zn884   1.991   .     S
O880   Zn884   2.012   .     S
O881   Zn883   2.012   .     S
C885   O928    1.286   .     A
C885   O923    1.278   .     A
C885   C904    1.400   .     S
C886   C888    1.388   .     A
C886   H913    1.082   .     S
C886   C897    1.393   .     A
C887   C889    1.386   .     A
C887   C908    1.388   .     A
C887   C907    1.416   .     S
C888   C906    1.416   .     S
C888   C890    1.386   .     A
C889   H914    1.086   .     S
C889   C891    1.381   .     A
C890   H915    1.086   .     S
C890   C892    1.381   .     A
C891   C893    1.412   .     A
C891   C898    1.396   .     A
C892   C899    1.396   .     A
C892   C894    1.412   .     A
C893   C895    1.423   .     A
C894   C897    1.423   .     A
C894   C425    1.392   1_556 S
C895   C903    1.417   .     A
C895   C908    1.393   .     A
C896   C905    1.400   .     S
C896   O927    1.278   .     A
C896   O929    1.286   .     A
C897   C902    1.417   .     A
C898   H916    1.085   .     S
C899   H917    1.085   .     S
C899   C435    1.394   1_556 S
C900   O924    1.399   .     S
C900   O934    1.223   .     D
C900   C902    1.486   .     S
C901   C903    1.486   .     S
C901   O925    1.223   .     D
C901   O926    1.399   .     S
C902   C430    1.394   1_556 S
C904   C593    1.335   1_565 S
C904   H606    1.088   1_565 S
C906   O932    1.287   .     A
C906   O930    1.285   .     A
C907   O933    1.287   .     A
C907   O931    1.285   .     A
C908   H909    1.082   .     S
H910   N818    1.029   1_655 S
H912   O614    1.014   1_565 S
H919   C593    1.088   1_565 S
N921   Zn936   2.019   .     S
N921   H816    1.029   1_655 S
N921   N818    1.276   1_655 S
N922   Zn935   2.019   .     S
O923   Zn935   1.955   .     S
O924   H599    1.014   1_565 S
O927   Zn936   1.955   .     S
O928   Zn936   1.975   .     S
O929   Zn935   1.975   .     S
O930   Zn935   1.991   .     S
O931   Zn936   1.991   .     S
O932   Zn936   2.012   .     S
O933   Zn935   2.012   .     S
