data_str_m3_o10_o18_pcu_sym.95
_audit_creation_date              2020-01-03
_audit_creation_method            'Materials Studio'
_symmetry_space_group_name_H-M    'P1'
_symmetry_Int_Tables_number       1
_symmetry_cell_setting            triclinic
loop_
_symmetry_equiv_pos_as_xyz
  x,y,z
_cell_length_a                    23.6658
_cell_length_b                    25.6176
_cell_length_c                    27.1459
_cell_angle_alpha                 94.4184
_cell_angle_beta                  93.4241
_cell_angle_gamma                 92.7888
loop_
_atom_site_label
_atom_site_type_symbol
_atom_site_fract_x
_atom_site_fract_y
_atom_site_fract_z
_atom_site_U_iso_or_equiv
_atom_site_adp_type
_atom_site_occupancy
C1     C     0.01409   0.26466   0.24821   0.00000  Uiso   1.00
C2     C     0.31228   0.16252   0.15856   0.00000  Uiso   1.00
C3     C     0.03242   0.18130   0.39447   0.00000  Uiso   1.00
C4     C     0.30323   0.15908   0.10490   0.00000  Uiso   1.00
C5     C     0.03589   0.24735   0.46276   0.00000  Uiso   1.00
C6     C     0.32531   0.12285   0.02393   0.00000  Uiso   1.00
C7     C     0.00860   0.22385   0.41928   0.00000  Uiso   1.00
C8     C     0.00637   0.13200   0.07443   0.00000  Uiso   1.00
C9     C     0.07894   0.15899   0.41616   0.00000  Uiso   1.00
C10    C     0.25597   0.18133   0.08408   0.00000  Uiso   1.00
C11    C     0.11295   0.18726   0.45366   0.00000  Uiso   1.00
C12    C     0.31933   0.06856   0.25153   0.00000  Uiso   1.00
C13    C     0.24352   0.17626   0.03302   0.00000  Uiso   1.00
C14    C     0.08918   0.23089   0.47886   0.00000  Uiso   1.00
C15    C     0.27543   0.14232   0.00376   0.00000  Uiso   1.00
C16    C     0.16920   0.17379   0.46696   0.00000  Uiso   1.00
C17    C     0.19545   0.19851   0.01189   0.00000  Uiso   1.00
C18    C     0.14690   0.10511   0.16603   0.00000  Uiso   1.00
C19    C     0.18490   0.24130   0.32577   0.00000  Uiso   1.00
C20    C     0.17296   0.24457   0.03402   0.00000  Uiso   1.00
C21    C     0.20216   0.13898   0.43746   0.00000  Uiso   1.00
C22    C     0.11993   0.25950   0.01787   0.00000  Uiso   1.00
C23    C     0.25558   0.12603   0.45572   0.00000  Uiso   1.00
C24    C     0.01604   0.31690   0.23671   0.00000  Uiso   1.00
C25    C     0.31824   0.01629   0.26321   0.00000  Uiso   1.00
C26    C     0.02096   0.17019   0.34145   0.00000  Uiso   1.00
H27    H     0.10342   0.29479   0.03493   0.00000  Uiso   1.00
H28    H     0.10084   0.09574   0.16206   0.00000  Uiso   1.00
H29    H     0.16808   0.07311   0.14574   0.00000  Uiso   1.00
H30    H     0.23043   0.23611   0.33418   0.00000  Uiso   1.00
H31    H     0.15872   0.21750   0.34912   0.00000  Uiso   1.00
H32    H     0.17669   0.28296   0.33553   0.00000  Uiso   1.00
H33    H     0.28070   0.10056   0.43309   0.00000  Uiso   1.00
H34    H     0.22691   0.19989   0.10828   0.00000  Uiso   1.00
H35    H     0.08861   0.12063   0.40168   0.00000  Uiso   1.00
H36    H     0.04373   0.11500   0.08993   0.00000  Uiso   1.00
H37    H     0.30460   0.24079   0.40363   0.00000  Uiso   1.00
H38    H     0.01767   0.28084   0.48148   0.00000  Uiso   1.00
H39    H     0.01817   0.09853   0.00126   0.00000  Uiso   1.00
H40    H     0.15722   0.14213   0.14871   0.00000  Uiso   1.00
I41    I     0.22083   0.30316   0.08166   0.00000  Uiso   1.00
I42    I     0.18626   0.10685   0.36253   0.00000  Uiso   1.00
I43    I     0.04171   0.32770   0.16404   0.00000  Uiso   1.00
I44    I     0.30024   0.00556   0.33790   0.00000  Uiso   1.00
N45    N     0.14695   0.15216   0.23739   0.00000  Uiso   1.00
N46    N     0.18638   0.18117   0.26260   0.00000  Uiso   1.00
O47    O     0.29719   0.24631   0.25309   0.00000  Uiso   1.00
O48    O     0.16886   0.22922   0.27549   0.00000  Uiso   1.00
O49    O     0.03614   0.08702   0.24690   0.00000  Uiso   1.00
O50    O     0.05822   0.23702   0.24501   0.00000  Uiso   1.00
O51    O     0.27512   0.09632   0.25498   0.00000  Uiso   1.00
O52    O     0.30328   0.17397   0.32247   0.00000  Uiso   1.00
O53    O     0.03005   0.15937   0.17753   0.00000  Uiso   1.00
O54    O     0.06431   0.16467   0.31439   0.00000  Uiso   1.00
O55    O     0.26902   0.16866   0.18561   0.00000  Uiso   1.00
O56    O     0.16637   0.10810   0.21601   0.00000  Uiso   1.00
Zn57   Zn    0.27033   0.17287   0.25539   0.00000  Uiso   1.00
Zn58   Zn    0.06300   0.16046   0.24460   0.00000  Uiso   1.00
C59    C     0.34743   0.26466   0.24821   0.00000  Uiso   1.00
C60    C     0.64562   0.16252   0.15856   0.00000  Uiso   1.00
C61    C     0.36575   0.18130   0.39447   0.00000  Uiso   1.00
C62    C     0.63656   0.15908   0.10490   0.00000  Uiso   1.00
C63    C     0.36922   0.24735   0.46276   0.00000  Uiso   1.00
C64    C     0.65865   0.12285   0.02393   0.00000  Uiso   1.00
C65    C     0.34193   0.22385   0.41928   0.00000  Uiso   1.00
C66    C     0.33971   0.13200   0.07443   0.00000  Uiso   1.00
C67    C     0.41228   0.15899   0.41616   0.00000  Uiso   1.00
C68    C     0.58930   0.18133   0.08408   0.00000  Uiso   1.00
C69    C     0.44628   0.18726   0.45366   0.00000  Uiso   1.00
C70    C     0.65266   0.06856   0.25153   0.00000  Uiso   1.00
C71    C     0.57685   0.17626   0.03302   0.00000  Uiso   1.00
C72    C     0.42251   0.23089   0.47886   0.00000  Uiso   1.00
C73    C     0.60876   0.14232   0.00376   0.00000  Uiso   1.00
C74    C     0.50253   0.17379   0.46696   0.00000  Uiso   1.00
C75    C     0.52879   0.19851   0.01189   0.00000  Uiso   1.00
C76    C     0.48023   0.10511   0.16603   0.00000  Uiso   1.00
C77    C     0.51823   0.24130   0.32577   0.00000  Uiso   1.00
C78    C     0.50629   0.24457   0.03402   0.00000  Uiso   1.00
C79    C     0.53549   0.13898   0.43746   0.00000  Uiso   1.00
C80    C     0.45327   0.25950   0.01787   0.00000  Uiso   1.00
C81    C     0.58891   0.12603   0.45572   0.00000  Uiso   1.00
C82    C     0.34938   0.31690   0.23671   0.00000  Uiso   1.00
C83    C     0.65157   0.01629   0.26321   0.00000  Uiso   1.00
C84    C     0.35429   0.17019   0.34145   0.00000  Uiso   1.00
H85    H     0.43675   0.29479   0.03493   0.00000  Uiso   1.00
H86    H     0.43417   0.09574   0.16206   0.00000  Uiso   1.00
H87    H     0.50142   0.07311   0.14574   0.00000  Uiso   1.00
H88    H     0.56376   0.23611   0.33418   0.00000  Uiso   1.00
H89    H     0.49205   0.21750   0.34912   0.00000  Uiso   1.00
H90    H     0.51003   0.28296   0.33553   0.00000  Uiso   1.00
H91    H     0.61403   0.10056   0.43309   0.00000  Uiso   1.00
H92    H     0.56024   0.19989   0.10828   0.00000  Uiso   1.00
H93    H     0.42194   0.12063   0.40168   0.00000  Uiso   1.00
H94    H     0.37707   0.11500   0.08993   0.00000  Uiso   1.00
H95    H     0.63793   0.24079   0.40363   0.00000  Uiso   1.00
H96    H     0.35101   0.28084   0.48148   0.00000  Uiso   1.00
H97    H     0.35150   0.09853   0.00126   0.00000  Uiso   1.00
H98    H     0.49056   0.14213   0.14871   0.00000  Uiso   1.00
I99    I     0.55416   0.30316   0.08166   0.00000  Uiso   1.00
I100   I     0.51959   0.10685   0.36253   0.00000  Uiso   1.00
I101   I     0.37504   0.32770   0.16404   0.00000  Uiso   1.00
I102   I     0.63358   0.00556   0.33790   0.00000  Uiso   1.00
N103   N     0.48029   0.15216   0.23739   0.00000  Uiso   1.00
N104   N     0.51971   0.18117   0.26260   0.00000  Uiso   1.00
O105   O     0.63052   0.24631   0.25309   0.00000  Uiso   1.00
O106   O     0.50219   0.22922   0.27549   0.00000  Uiso   1.00
O107   O     0.36948   0.08702   0.24690   0.00000  Uiso   1.00
O108   O     0.39155   0.23702   0.24501   0.00000  Uiso   1.00
O109   O     0.60845   0.09632   0.25498   0.00000  Uiso   1.00
O110   O     0.63662   0.17397   0.32247   0.00000  Uiso   1.00
O111   O     0.36338   0.15937   0.17753   0.00000  Uiso   1.00
O112   O     0.39764   0.16467   0.31439   0.00000  Uiso   1.00
O113   O     0.60236   0.16866   0.18561   0.00000  Uiso   1.00
O114   O     0.49970   0.10810   0.21601   0.00000  Uiso   1.00
Zn115  Zn    0.60366   0.17287   0.25539   0.00000  Uiso   1.00
Zn116  Zn    0.39634   0.16046   0.24460   0.00000  Uiso   1.00
C117   C     0.68076   0.26466   0.24821   0.00000  Uiso   1.00
C118   C     0.97895   0.16252   0.15856   0.00000  Uiso   1.00
C119   C     0.69909   0.18130   0.39447   0.00000  Uiso   1.00
C120   C     0.96989   0.15908   0.10490   0.00000  Uiso   1.00
C121   C     0.70256   0.24735   0.46276   0.00000  Uiso   1.00
C122   C     0.99198   0.12285   0.02393   0.00000  Uiso   1.00
C123   C     0.67526   0.22385   0.41928   0.00000  Uiso   1.00
C124   C     0.67304   0.13200   0.07443   0.00000  Uiso   1.00
C125   C     0.74561   0.15899   0.41616   0.00000  Uiso   1.00
C126   C     0.92263   0.18133   0.08408   0.00000  Uiso   1.00
C127   C     0.77961   0.18726   0.45366   0.00000  Uiso   1.00
C128   C     0.98600   0.06856   0.25153   0.00000  Uiso   1.00
C129   C     0.91019   0.17626   0.03302   0.00000  Uiso   1.00
C130   C     0.75585   0.23089   0.47886   0.00000  Uiso   1.00
C131   C     0.94210   0.14232   0.00376   0.00000  Uiso   1.00
C132   C     0.83586   0.17379   0.46696   0.00000  Uiso   1.00
C133   C     0.86212   0.19851   0.01189   0.00000  Uiso   1.00
C134   C     0.81356   0.10511   0.16603   0.00000  Uiso   1.00
C135   C     0.85157   0.24130   0.32577   0.00000  Uiso   1.00
C136   C     0.83963   0.24457   0.03402   0.00000  Uiso   1.00
C137   C     0.86883   0.13898   0.43746   0.00000  Uiso   1.00
C138   C     0.78660   0.25950   0.01787   0.00000  Uiso   1.00
C139   C     0.92225   0.12603   0.45572   0.00000  Uiso   1.00
C140   C     0.68271   0.31690   0.23671   0.00000  Uiso   1.00
C141   C     0.98490   0.01629   0.26321   0.00000  Uiso   1.00
C142   C     0.68762   0.17019   0.34145   0.00000  Uiso   1.00
H143   H     0.77009   0.29479   0.03493   0.00000  Uiso   1.00
H144   H     0.76750   0.09574   0.16206   0.00000  Uiso   1.00
H145   H     0.83475   0.07311   0.14574   0.00000  Uiso   1.00
H146   H     0.89709   0.23611   0.33418   0.00000  Uiso   1.00
H147   H     0.82539   0.21750   0.34912   0.00000  Uiso   1.00
H148   H     0.84336   0.28296   0.33553   0.00000  Uiso   1.00
H149   H     0.94736   0.10056   0.43309   0.00000  Uiso   1.00
H150   H     0.89357   0.19989   0.10828   0.00000  Uiso   1.00
H151   H     0.75528   0.12063   0.40168   0.00000  Uiso   1.00
H152   H     0.71040   0.11500   0.08993   0.00000  Uiso   1.00
H153   H     0.97127   0.24079   0.40363   0.00000  Uiso   1.00
H154   H     0.68434   0.28084   0.48148   0.00000  Uiso   1.00
H155   H     0.68483   0.09853   0.00126   0.00000  Uiso   1.00
H156   H     0.82389   0.14213   0.14871   0.00000  Uiso   1.00
I157   I     0.88750   0.30316   0.08166   0.00000  Uiso   1.00
I158   I     0.85292   0.10685   0.36253   0.00000  Uiso   1.00
I159   I     0.70838   0.32770   0.16404   0.00000  Uiso   1.00
I160   I     0.96691   0.00556   0.33790   0.00000  Uiso   1.00
N161   N     0.81362   0.15216   0.23739   0.00000  Uiso   1.00
N162   N     0.85305   0.18117   0.26260   0.00000  Uiso   1.00
O163   O     0.96386   0.24631   0.25309   0.00000  Uiso   1.00
O164   O     0.83553   0.22922   0.27549   0.00000  Uiso   1.00
O165   O     0.70281   0.08702   0.24690   0.00000  Uiso   1.00
O166   O     0.72488   0.23702   0.24501   0.00000  Uiso   1.00
O167   O     0.94178   0.09632   0.25498   0.00000  Uiso   1.00
O168   O     0.96995   0.17397   0.32247   0.00000  Uiso   1.00
O169   O     0.69672   0.15937   0.17753   0.00000  Uiso   1.00
O170   O     0.73098   0.16467   0.31439   0.00000  Uiso   1.00
O171   O     0.93569   0.16866   0.18561   0.00000  Uiso   1.00
O172   O     0.83304   0.10810   0.21601   0.00000  Uiso   1.00
Zn173  Zn    0.93700   0.17287   0.25539   0.00000  Uiso   1.00
Zn174  Zn    0.72967   0.16046   0.24460   0.00000  Uiso   1.00
C175   C     0.01409   0.59800   0.24821   0.00000  Uiso   1.00
C176   C     0.31228   0.49586   0.15856   0.00000  Uiso   1.00
C177   C     0.03242   0.51463   0.39447   0.00000  Uiso   1.00
C178   C     0.30323   0.49241   0.10490   0.00000  Uiso   1.00
C179   C     0.03589   0.58068   0.46276   0.00000  Uiso   1.00
C180   C     0.32531   0.45618   0.02393   0.00000  Uiso   1.00
C181   C     0.00860   0.55719   0.41928   0.00000  Uiso   1.00
C182   C     0.00637   0.46533   0.07443   0.00000  Uiso   1.00
C183   C     0.07894   0.49232   0.41616   0.00000  Uiso   1.00
C184   C     0.25597   0.51466   0.08408   0.00000  Uiso   1.00
C185   C     0.11295   0.52059   0.45366   0.00000  Uiso   1.00
C186   C     0.31933   0.40189   0.25153   0.00000  Uiso   1.00
C187   C     0.24352   0.50959   0.03302   0.00000  Uiso   1.00
C188   C     0.08918   0.56422   0.47886   0.00000  Uiso   1.00
C189   C     0.27543   0.47565   0.00376   0.00000  Uiso   1.00
C190   C     0.16920   0.50712   0.46696   0.00000  Uiso   1.00
C191   C     0.19545   0.53184   0.01189   0.00000  Uiso   1.00
C192   C     0.14690   0.43844   0.16603   0.00000  Uiso   1.00
C193   C     0.18490   0.57464   0.32577   0.00000  Uiso   1.00
C194   C     0.17296   0.57790   0.03402   0.00000  Uiso   1.00
C195   C     0.20216   0.47232   0.43746   0.00000  Uiso   1.00
C196   C     0.11993   0.59283   0.01787   0.00000  Uiso   1.00
C197   C     0.25558   0.45936   0.45572   0.00000  Uiso   1.00
C198   C     0.01604   0.65023   0.23671   0.00000  Uiso   1.00
C199   C     0.31824   0.34962   0.26321   0.00000  Uiso   1.00
C200   C     0.02096   0.50353   0.34145   0.00000  Uiso   1.00
H201   H     0.10342   0.62812   0.03493   0.00000  Uiso   1.00
H202   H     0.10084   0.42907   0.16206   0.00000  Uiso   1.00
H203   H     0.16808   0.40645   0.14574   0.00000  Uiso   1.00
H204   H     0.23043   0.56944   0.33418   0.00000  Uiso   1.00
H205   H     0.15872   0.55083   0.34912   0.00000  Uiso   1.00
H206   H     0.17669   0.61630   0.33553   0.00000  Uiso   1.00
H207   H     0.28070   0.43390   0.43309   0.00000  Uiso   1.00
H208   H     0.22691   0.53323   0.10828   0.00000  Uiso   1.00
H209   H     0.08861   0.45397   0.40168   0.00000  Uiso   1.00
H210   H     0.04373   0.44833   0.08993   0.00000  Uiso   1.00
H211   H     0.30460   0.57412   0.40363   0.00000  Uiso   1.00
H212   H     0.01767   0.61417   0.48148   0.00000  Uiso   1.00
H213   H     0.01817   0.43187   0.00126   0.00000  Uiso   1.00
H214   H     0.15722   0.47546   0.14871   0.00000  Uiso   1.00
I215   I     0.22083   0.63650   0.08166   0.00000  Uiso   1.00
I216   I     0.18626   0.44019   0.36253   0.00000  Uiso   1.00
I217   I     0.04171   0.66103   0.16404   0.00000  Uiso   1.00
I218   I     0.30024   0.33890   0.33790   0.00000  Uiso   1.00
N219   N     0.14695   0.48550   0.23739   0.00000  Uiso   1.00
N220   N     0.18638   0.51450   0.26260   0.00000  Uiso   1.00
O221   O     0.29719   0.57964   0.25309   0.00000  Uiso   1.00
O222   O     0.16886   0.56255   0.27549   0.00000  Uiso   1.00
O223   O     0.03614   0.42036   0.24690   0.00000  Uiso   1.00
O224   O     0.05822   0.57035   0.24501   0.00000  Uiso   1.00
O225   O     0.27512   0.42965   0.25498   0.00000  Uiso   1.00
O226   O     0.30328   0.50730   0.32247   0.00000  Uiso   1.00
O227   O     0.03005   0.49270   0.17753   0.00000  Uiso   1.00
O228   O     0.06431   0.49801   0.31439   0.00000  Uiso   1.00
O229   O     0.26902   0.50199   0.18561   0.00000  Uiso   1.00
O230   O     0.16637   0.44143   0.21601   0.00000  Uiso   1.00
Zn231  Zn    0.27033   0.50621   0.25539   0.00000  Uiso   1.00
Zn232  Zn    0.06300   0.49379   0.24460   0.00000  Uiso   1.00
C233   C     0.34743   0.59800   0.24821   0.00000  Uiso   1.00
C234   C     0.64562   0.49586   0.15856   0.00000  Uiso   1.00
C235   C     0.36575   0.51463   0.39447   0.00000  Uiso   1.00
C236   C     0.63656   0.49241   0.10490   0.00000  Uiso   1.00
C237   C     0.36922   0.58068   0.46276   0.00000  Uiso   1.00
C238   C     0.65865   0.45618   0.02393   0.00000  Uiso   1.00
C239   C     0.34193   0.55719   0.41928   0.00000  Uiso   1.00
C240   C     0.33971   0.46533   0.07443   0.00000  Uiso   1.00
C241   C     0.41228   0.49232   0.41616   0.00000  Uiso   1.00
C242   C     0.58930   0.51466   0.08408   0.00000  Uiso   1.00
C243   C     0.44628   0.52059   0.45366   0.00000  Uiso   1.00
C244   C     0.65266   0.40189   0.25153   0.00000  Uiso   1.00
C245   C     0.57685   0.50959   0.03302   0.00000  Uiso   1.00
C246   C     0.42251   0.56422   0.47886   0.00000  Uiso   1.00
C247   C     0.60876   0.47565   0.00376   0.00000  Uiso   1.00
C248   C     0.50253   0.50712   0.46696   0.00000  Uiso   1.00
C249   C     0.52879   0.53184   0.01189   0.00000  Uiso   1.00
C250   C     0.48023   0.43844   0.16603   0.00000  Uiso   1.00
C251   C     0.51823   0.57464   0.32577   0.00000  Uiso   1.00
C252   C     0.50629   0.57790   0.03402   0.00000  Uiso   1.00
C253   C     0.53549   0.47232   0.43746   0.00000  Uiso   1.00
C254   C     0.45327   0.59283   0.01787   0.00000  Uiso   1.00
C255   C     0.58891   0.45936   0.45572   0.00000  Uiso   1.00
C256   C     0.34938   0.65023   0.23671   0.00000  Uiso   1.00
C257   C     0.65157   0.34962   0.26321   0.00000  Uiso   1.00
C258   C     0.35429   0.50353   0.34145   0.00000  Uiso   1.00
H259   H     0.43675   0.62812   0.03493   0.00000  Uiso   1.00
H260   H     0.43417   0.42907   0.16206   0.00000  Uiso   1.00
H261   H     0.50142   0.40645   0.14574   0.00000  Uiso   1.00
H262   H     0.56376   0.56944   0.33418   0.00000  Uiso   1.00
H263   H     0.49205   0.55083   0.34912   0.00000  Uiso   1.00
H264   H     0.51003   0.61630   0.33553   0.00000  Uiso   1.00
H265   H     0.61403   0.43390   0.43309   0.00000  Uiso   1.00
H266   H     0.56024   0.53323   0.10828   0.00000  Uiso   1.00
H267   H     0.42194   0.45397   0.40168   0.00000  Uiso   1.00
H268   H     0.37707   0.44833   0.08993   0.00000  Uiso   1.00
H269   H     0.63793   0.57412   0.40363   0.00000  Uiso   1.00
H270   H     0.35101   0.61417   0.48148   0.00000  Uiso   1.00
H271   H     0.35150   0.43187   0.00126   0.00000  Uiso   1.00
H272   H     0.49056   0.47546   0.14871   0.00000  Uiso   1.00
I273   I     0.55416   0.63650   0.08166   0.00000  Uiso   1.00
I274   I     0.51959   0.44019   0.36253   0.00000  Uiso   1.00
I275   I     0.37504   0.66103   0.16404   0.00000  Uiso   1.00
I276   I     0.63358   0.33890   0.33790   0.00000  Uiso   1.00
N277   N     0.48029   0.48550   0.23739   0.00000  Uiso   1.00
N278   N     0.51971   0.51450   0.26260   0.00000  Uiso   1.00
O279   O     0.63052   0.57964   0.25309   0.00000  Uiso   1.00
O280   O     0.50219   0.56255   0.27549   0.00000  Uiso   1.00
O281   O     0.36948   0.42036   0.24690   0.00000  Uiso   1.00
O282   O     0.39155   0.57035   0.24501   0.00000  Uiso   1.00
O283   O     0.60845   0.42965   0.25498   0.00000  Uiso   1.00
O284   O     0.63662   0.50730   0.32247   0.00000  Uiso   1.00
O285   O     0.36338   0.49270   0.17753   0.00000  Uiso   1.00
O286   O     0.39764   0.49801   0.31439   0.00000  Uiso   1.00
O287   O     0.60236   0.50199   0.18561   0.00000  Uiso   1.00
O288   O     0.49970   0.44143   0.21601   0.00000  Uiso   1.00
Zn289  Zn    0.60366   0.50621   0.25539   0.00000  Uiso   1.00
Zn290  Zn    0.39634   0.49379   0.24460   0.00000  Uiso   1.00
C291   C     0.68076   0.59800   0.24821   0.00000  Uiso   1.00
C292   C     0.97895   0.49586   0.15856   0.00000  Uiso   1.00
C293   C     0.69909   0.51463   0.39447   0.00000  Uiso   1.00
C294   C     0.96989   0.49241   0.10490   0.00000  Uiso   1.00
C295   C     0.70256   0.58068   0.46276   0.00000  Uiso   1.00
C296   C     0.99198   0.45618   0.02393   0.00000  Uiso   1.00
C297   C     0.67526   0.55719   0.41928   0.00000  Uiso   1.00
C298   C     0.67304   0.46533   0.07443   0.00000  Uiso   1.00
C299   C     0.74561   0.49232   0.41616   0.00000  Uiso   1.00
C300   C     0.92263   0.51466   0.08408   0.00000  Uiso   1.00
C301   C     0.77961   0.52059   0.45366   0.00000  Uiso   1.00
C302   C     0.98600   0.40189   0.25153   0.00000  Uiso   1.00
C303   C     0.91019   0.50959   0.03302   0.00000  Uiso   1.00
C304   C     0.75585   0.56422   0.47886   0.00000  Uiso   1.00
C305   C     0.94210   0.47565   0.00376   0.00000  Uiso   1.00
C306   C     0.83586   0.50712   0.46696   0.00000  Uiso   1.00
C307   C     0.86212   0.53184   0.01189   0.00000  Uiso   1.00
C308   C     0.81356   0.43844   0.16603   0.00000  Uiso   1.00
C309   C     0.85157   0.57464   0.32577   0.00000  Uiso   1.00
C310   C     0.83963   0.57790   0.03402   0.00000  Uiso   1.00
C311   C     0.86883   0.47232   0.43746   0.00000  Uiso   1.00
C312   C     0.78660   0.59283   0.01787   0.00000  Uiso   1.00
C313   C     0.92225   0.45936   0.45572   0.00000  Uiso   1.00
C314   C     0.68271   0.65023   0.23671   0.00000  Uiso   1.00
C315   C     0.98490   0.34962   0.26321   0.00000  Uiso   1.00
C316   C     0.68762   0.50353   0.34145   0.00000  Uiso   1.00
H317   H     0.77009   0.62812   0.03493   0.00000  Uiso   1.00
H318   H     0.76750   0.42907   0.16206   0.00000  Uiso   1.00
H319   H     0.83475   0.40645   0.14574   0.00000  Uiso   1.00
H320   H     0.89709   0.56944   0.33418   0.00000  Uiso   1.00
H321   H     0.82539   0.55083   0.34912   0.00000  Uiso   1.00
H322   H     0.84336   0.61630   0.33553   0.00000  Uiso   1.00
H323   H     0.94736   0.43390   0.43309   0.00000  Uiso   1.00
H324   H     0.89357   0.53323   0.10828   0.00000  Uiso   1.00
H325   H     0.75528   0.45397   0.40168   0.00000  Uiso   1.00
H326   H     0.71040   0.44833   0.08993   0.00000  Uiso   1.00
H327   H     0.97127   0.57412   0.40363   0.00000  Uiso   1.00
H328   H     0.68434   0.61417   0.48148   0.00000  Uiso   1.00
H329   H     0.68483   0.43187   0.00126   0.00000  Uiso   1.00
H330   H     0.82389   0.47546   0.14871   0.00000  Uiso   1.00
I331   I     0.88750   0.63650   0.08166   0.00000  Uiso   1.00
I332   I     0.85292   0.44019   0.36253   0.00000  Uiso   1.00
I333   I     0.70838   0.66103   0.16404   0.00000  Uiso   1.00
I334   I     0.96691   0.33890   0.33790   0.00000  Uiso   1.00
N335   N     0.81362   0.48550   0.23739   0.00000  Uiso   1.00
N336   N     0.85305   0.51450   0.26260   0.00000  Uiso   1.00
O337   O     0.96386   0.57964   0.25309   0.00000  Uiso   1.00
O338   O     0.83553   0.56255   0.27549   0.00000  Uiso   1.00
O339   O     0.70281   0.42036   0.24690   0.00000  Uiso   1.00
O340   O     0.72488   0.57035   0.24501   0.00000  Uiso   1.00
O341   O     0.94178   0.42965   0.25498   0.00000  Uiso   1.00
O342   O     0.96995   0.50730   0.32247   0.00000  Uiso   1.00
O343   O     0.69672   0.49270   0.17753   0.00000  Uiso   1.00
O344   O     0.73098   0.49801   0.31439   0.00000  Uiso   1.00
O345   O     0.93569   0.50199   0.18561   0.00000  Uiso   1.00
O346   O     0.83304   0.44143   0.21601   0.00000  Uiso   1.00
Zn347  Zn    0.93700   0.50621   0.25539   0.00000  Uiso   1.00
Zn348  Zn    0.72967   0.49379   0.24460   0.00000  Uiso   1.00
C349   C     0.01409   0.93133   0.24821   0.00000  Uiso   1.00
C350   C     0.31228   0.82919   0.15856   0.00000  Uiso   1.00
C351   C     0.03242   0.84796   0.39447   0.00000  Uiso   1.00
C352   C     0.30323   0.82575   0.10490   0.00000  Uiso   1.00
C353   C     0.03589   0.91401   0.46276   0.00000  Uiso   1.00
C354   C     0.32531   0.78951   0.02393   0.00000  Uiso   1.00
C355   C     0.00860   0.89052   0.41928   0.00000  Uiso   1.00
C356   C     0.00637   0.79866   0.07443   0.00000  Uiso   1.00
C357   C     0.07894   0.82565   0.41616   0.00000  Uiso   1.00
C358   C     0.25597   0.84799   0.08408   0.00000  Uiso   1.00
C359   C     0.11295   0.85392   0.45366   0.00000  Uiso   1.00
C360   C     0.31933   0.73522   0.25153   0.00000  Uiso   1.00
C361   C     0.24352   0.84293   0.03302   0.00000  Uiso   1.00
C362   C     0.08918   0.89756   0.47886   0.00000  Uiso   1.00
C363   C     0.27543   0.80899   0.00376   0.00000  Uiso   1.00
C364   C     0.16920   0.84046   0.46696   0.00000  Uiso   1.00
C365   C     0.19545   0.86518   0.01189   0.00000  Uiso   1.00
C366   C     0.14690   0.77178   0.16603   0.00000  Uiso   1.00
C367   C     0.18490   0.90797   0.32577   0.00000  Uiso   1.00
C368   C     0.17296   0.91123   0.03402   0.00000  Uiso   1.00
C369   C     0.20216   0.80565   0.43746   0.00000  Uiso   1.00
C370   C     0.11993   0.92616   0.01787   0.00000  Uiso   1.00
C371   C     0.25558   0.79270   0.45572   0.00000  Uiso   1.00
C372   C     0.01604   0.98356   0.23671   0.00000  Uiso   1.00
C373   C     0.31824   0.68296   0.26321   0.00000  Uiso   1.00
C374   C     0.02096   0.83686   0.34145   0.00000  Uiso   1.00
H375   H     0.10342   0.96145   0.03493   0.00000  Uiso   1.00
H376   H     0.10084   0.76241   0.16206   0.00000  Uiso   1.00
H377   H     0.16808   0.73978   0.14574   0.00000  Uiso   1.00
H378   H     0.23043   0.90278   0.33418   0.00000  Uiso   1.00
H379   H     0.15872   0.88416   0.34912   0.00000  Uiso   1.00
H380   H     0.17669   0.94963   0.33553   0.00000  Uiso   1.00
H381   H     0.28070   0.76723   0.43309   0.00000  Uiso   1.00
H382   H     0.22691   0.86656   0.10828   0.00000  Uiso   1.00
H383   H     0.08861   0.78730   0.40168   0.00000  Uiso   1.00
H384   H     0.04373   0.78166   0.08993   0.00000  Uiso   1.00
H385   H     0.30460   0.90745   0.40363   0.00000  Uiso   1.00
H386   H     0.01767   0.94751   0.48148   0.00000  Uiso   1.00
H387   H     0.01817   0.76520   0.00126   0.00000  Uiso   1.00
H388   H     0.15722   0.80880   0.14871   0.00000  Uiso   1.00
I389   I     0.22083   0.96983   0.08166   0.00000  Uiso   1.00
I390   I     0.18626   0.77352   0.36253   0.00000  Uiso   1.00
I391   I     0.04171   0.99436   0.16404   0.00000  Uiso   1.00
I392   I     0.30024   0.67223   0.33790   0.00000  Uiso   1.00
N393   N     0.14695   0.81883   0.23739   0.00000  Uiso   1.00
N394   N     0.18638   0.84784   0.26260   0.00000  Uiso   1.00
O395   O     0.29719   0.91298   0.25309   0.00000  Uiso   1.00
O396   O     0.16886   0.89589   0.27549   0.00000  Uiso   1.00
O397   O     0.03614   0.75369   0.24690   0.00000  Uiso   1.00
O398   O     0.05822   0.90368   0.24501   0.00000  Uiso   1.00
O399   O     0.27512   0.76298   0.25498   0.00000  Uiso   1.00
O400   O     0.30328   0.84063   0.32247   0.00000  Uiso   1.00
O401   O     0.03005   0.82603   0.17753   0.00000  Uiso   1.00
O402   O     0.06431   0.83134   0.31439   0.00000  Uiso   1.00
O403   O     0.26902   0.83533   0.18561   0.00000  Uiso   1.00
O404   O     0.16637   0.77476   0.21601   0.00000  Uiso   1.00
Zn405  Zn    0.27033   0.83954   0.25539   0.00000  Uiso   1.00
Zn406  Zn    0.06300   0.82713   0.24460   0.00000  Uiso   1.00
C407   C     0.34743   0.93133   0.24821   0.00000  Uiso   1.00
C408   C     0.64562   0.82919   0.15856   0.00000  Uiso   1.00
C409   C     0.36575   0.84796   0.39447   0.00000  Uiso   1.00
C410   C     0.63656   0.82575   0.10490   0.00000  Uiso   1.00
C411   C     0.36922   0.91401   0.46276   0.00000  Uiso   1.00
C412   C     0.65865   0.78951   0.02393   0.00000  Uiso   1.00
C413   C     0.34193   0.89052   0.41928   0.00000  Uiso   1.00
C414   C     0.33971   0.79866   0.07443   0.00000  Uiso   1.00
C415   C     0.41228   0.82565   0.41616   0.00000  Uiso   1.00
C416   C     0.58930   0.84799   0.08408   0.00000  Uiso   1.00
C417   C     0.44628   0.85392   0.45366   0.00000  Uiso   1.00
C418   C     0.65266   0.73522   0.25153   0.00000  Uiso   1.00
C419   C     0.57685   0.84293   0.03302   0.00000  Uiso   1.00
C420   C     0.42251   0.89756   0.47886   0.00000  Uiso   1.00
C421   C     0.60876   0.80899   0.00376   0.00000  Uiso   1.00
C422   C     0.50253   0.84046   0.46696   0.00000  Uiso   1.00
C423   C     0.52879   0.86518   0.01189   0.00000  Uiso   1.00
C424   C     0.48023   0.77178   0.16603   0.00000  Uiso   1.00
C425   C     0.51823   0.90797   0.32577   0.00000  Uiso   1.00
C426   C     0.50629   0.91123   0.03402   0.00000  Uiso   1.00
C427   C     0.53549   0.80565   0.43746   0.00000  Uiso   1.00
C428   C     0.45327   0.92616   0.01787   0.00000  Uiso   1.00
C429   C     0.58891   0.79270   0.45572   0.00000  Uiso   1.00
C430   C     0.34938   0.98356   0.23671   0.00000  Uiso   1.00
C431   C     0.65157   0.68296   0.26321   0.00000  Uiso   1.00
C432   C     0.35429   0.83686   0.34145   0.00000  Uiso   1.00
H433   H     0.43675   0.96145   0.03493   0.00000  Uiso   1.00
H434   H     0.43417   0.76241   0.16206   0.00000  Uiso   1.00
H435   H     0.50142   0.73978   0.14574   0.00000  Uiso   1.00
H436   H     0.56376   0.90278   0.33418   0.00000  Uiso   1.00
H437   H     0.49205   0.88416   0.34912   0.00000  Uiso   1.00
H438   H     0.51003   0.94963   0.33553   0.00000  Uiso   1.00
H439   H     0.61403   0.76723   0.43309   0.00000  Uiso   1.00
H440   H     0.56024   0.86656   0.10828   0.00000  Uiso   1.00
H441   H     0.42194   0.78730   0.40168   0.00000  Uiso   1.00
H442   H     0.37707   0.78166   0.08993   0.00000  Uiso   1.00
H443   H     0.63793   0.90745   0.40363   0.00000  Uiso   1.00
H444   H     0.35101   0.94751   0.48148   0.00000  Uiso   1.00
H445   H     0.35150   0.76520   0.00126   0.00000  Uiso   1.00
H446   H     0.49056   0.80880   0.14871   0.00000  Uiso   1.00
I447   I     0.55416   0.96983   0.08166   0.00000  Uiso   1.00
I448   I     0.51959   0.77352   0.36253   0.00000  Uiso   1.00
I449   I     0.37504   0.99436   0.16404   0.00000  Uiso   1.00
I450   I     0.63358   0.67223   0.33790   0.00000  Uiso   1.00
N451   N     0.48029   0.81883   0.23739   0.00000  Uiso   1.00
N452   N     0.51971   0.84784   0.26260   0.00000  Uiso   1.00
O453   O     0.63052   0.91298   0.25309   0.00000  Uiso   1.00
O454   O     0.50219   0.89589   0.27549   0.00000  Uiso   1.00
O455   O     0.36948   0.75369   0.24690   0.00000  Uiso   1.00
O456   O     0.39155   0.90368   0.24501   0.00000  Uiso   1.00
O457   O     0.60845   0.76298   0.25498   0.00000  Uiso   1.00
O458   O     0.63662   0.84063   0.32247   0.00000  Uiso   1.00
O459   O     0.36338   0.82603   0.17753   0.00000  Uiso   1.00
O460   O     0.39764   0.83134   0.31439   0.00000  Uiso   1.00
O461   O     0.60236   0.83533   0.18561   0.00000  Uiso   1.00
O462   O     0.49970   0.77476   0.21601   0.00000  Uiso   1.00
Zn463  Zn    0.60366   0.83954   0.25539   0.00000  Uiso   1.00
Zn464  Zn    0.39634   0.82713   0.24460   0.00000  Uiso   1.00
C465   C     0.68076   0.93133   0.24821   0.00000  Uiso   1.00
C466   C     0.97895   0.82919   0.15856   0.00000  Uiso   1.00
C467   C     0.69909   0.84796   0.39447   0.00000  Uiso   1.00
C468   C     0.96989   0.82575   0.10490   0.00000  Uiso   1.00
C469   C     0.70256   0.91401   0.46276   0.00000  Uiso   1.00
C470   C     0.99198   0.78951   0.02393   0.00000  Uiso   1.00
C471   C     0.67526   0.89052   0.41928   0.00000  Uiso   1.00
C472   C     0.67304   0.79866   0.07443   0.00000  Uiso   1.00
C473   C     0.74561   0.82565   0.41616   0.00000  Uiso   1.00
C474   C     0.92263   0.84799   0.08408   0.00000  Uiso   1.00
C475   C     0.77961   0.85392   0.45366   0.00000  Uiso   1.00
C476   C     0.98600   0.73522   0.25153   0.00000  Uiso   1.00
C477   C     0.91019   0.84293   0.03302   0.00000  Uiso   1.00
C478   C     0.75585   0.89756   0.47886   0.00000  Uiso   1.00
C479   C     0.94210   0.80899   0.00376   0.00000  Uiso   1.00
C480   C     0.83586   0.84046   0.46696   0.00000  Uiso   1.00
C481   C     0.86212   0.86518   0.01189   0.00000  Uiso   1.00
C482   C     0.81356   0.77178   0.16603   0.00000  Uiso   1.00
C483   C     0.85157   0.90797   0.32577   0.00000  Uiso   1.00
C484   C     0.83963   0.91123   0.03402   0.00000  Uiso   1.00
C485   C     0.86883   0.80565   0.43746   0.00000  Uiso   1.00
C486   C     0.78660   0.92616   0.01787   0.00000  Uiso   1.00
C487   C     0.92225   0.79270   0.45572   0.00000  Uiso   1.00
C488   C     0.68271   0.98356   0.23671   0.00000  Uiso   1.00
C489   C     0.98490   0.68296   0.26321   0.00000  Uiso   1.00
C490   C     0.68762   0.83686   0.34145   0.00000  Uiso   1.00
H491   H     0.77009   0.96145   0.03493   0.00000  Uiso   1.00
H492   H     0.76750   0.76241   0.16206   0.00000  Uiso   1.00
H493   H     0.83475   0.73978   0.14574   0.00000  Uiso   1.00
H494   H     0.89709   0.90278   0.33418   0.00000  Uiso   1.00
H495   H     0.82539   0.88416   0.34912   0.00000  Uiso   1.00
H496   H     0.84336   0.94963   0.33553   0.00000  Uiso   1.00
H497   H     0.94736   0.76723   0.43309   0.00000  Uiso   1.00
H498   H     0.89357   0.86656   0.10828   0.00000  Uiso   1.00
H499   H     0.75528   0.78730   0.40168   0.00000  Uiso   1.00
H500   H     0.71040   0.78166   0.08993   0.00000  Uiso   1.00
H501   H     0.97127   0.90745   0.40363   0.00000  Uiso   1.00
H502   H     0.68434   0.94751   0.48148   0.00000  Uiso   1.00
H503   H     0.68483   0.76520   0.00126   0.00000  Uiso   1.00
H504   H     0.82389   0.80880   0.14871   0.00000  Uiso   1.00
I505   I     0.88750   0.96983   0.08166   0.00000  Uiso   1.00
I506   I     0.85292   0.77352   0.36253   0.00000  Uiso   1.00
I507   I     0.70838   0.99436   0.16404   0.00000  Uiso   1.00
I508   I     0.96691   0.67223   0.33790   0.00000  Uiso   1.00
N509   N     0.81362   0.81883   0.23739   0.00000  Uiso   1.00
N510   N     0.85305   0.84784   0.26260   0.00000  Uiso   1.00
O511   O     0.96386   0.91298   0.25309   0.00000  Uiso   1.00
O512   O     0.83553   0.89589   0.27549   0.00000  Uiso   1.00
O513   O     0.70281   0.75369   0.24690   0.00000  Uiso   1.00
O514   O     0.72488   0.90368   0.24501   0.00000  Uiso   1.00
O515   O     0.94178   0.76298   0.25498   0.00000  Uiso   1.00
O516   O     0.96995   0.84063   0.32247   0.00000  Uiso   1.00
O517   O     0.69672   0.82603   0.17753   0.00000  Uiso   1.00
O518   O     0.73098   0.83134   0.31439   0.00000  Uiso   1.00
O519   O     0.93569   0.83533   0.18561   0.00000  Uiso   1.00
O520   O     0.83304   0.77476   0.21601   0.00000  Uiso   1.00
Zn521  Zn    0.93700   0.83954   0.25539   0.00000  Uiso   1.00
Zn522  Zn    0.72967   0.82713   0.24460   0.00000  Uiso   1.00
C523   C     0.01409   0.26466   0.74821   0.00000  Uiso   1.00
C524   C     0.31228   0.16252   0.65856   0.00000  Uiso   1.00
C525   C     0.03242   0.18130   0.89447   0.00000  Uiso   1.00
C526   C     0.30323   0.15908   0.60490   0.00000  Uiso   1.00
C527   C     0.03589   0.24735   0.96276   0.00000  Uiso   1.00
C528   C     0.32531   0.12285   0.52393   0.00000  Uiso   1.00
C529   C     0.00860   0.22385   0.91928   0.00000  Uiso   1.00
C530   C     0.00637   0.13200   0.57443   0.00000  Uiso   1.00
C531   C     0.07894   0.15899   0.91616   0.00000  Uiso   1.00
C532   C     0.25597   0.18133   0.58408   0.00000  Uiso   1.00
C533   C     0.11295   0.18726   0.95366   0.00000  Uiso   1.00
C534   C     0.31933   0.06856   0.75153   0.00000  Uiso   1.00
C535   C     0.24352   0.17626   0.53302   0.00000  Uiso   1.00
C536   C     0.08918   0.23089   0.97886   0.00000  Uiso   1.00
C537   C     0.27543   0.14232   0.50376   0.00000  Uiso   1.00
C538   C     0.16920   0.17379   0.96696   0.00000  Uiso   1.00
C539   C     0.19545   0.19851   0.51189   0.00000  Uiso   1.00
C540   C     0.14690   0.10511   0.66603   0.00000  Uiso   1.00
C541   C     0.18490   0.24130   0.82577   0.00000  Uiso   1.00
C542   C     0.17296   0.24457   0.53402   0.00000  Uiso   1.00
C543   C     0.20216   0.13898   0.93746   0.00000  Uiso   1.00
C544   C     0.11993   0.25950   0.51787   0.00000  Uiso   1.00
C545   C     0.25558   0.12603   0.95572   0.00000  Uiso   1.00
C546   C     0.01604   0.31690   0.73671   0.00000  Uiso   1.00
C547   C     0.31824   0.01629   0.76321   0.00000  Uiso   1.00
C548   C     0.02096   0.17019   0.84145   0.00000  Uiso   1.00
H549   H     0.10342   0.29479   0.53493   0.00000  Uiso   1.00
H550   H     0.10084   0.09574   0.66206   0.00000  Uiso   1.00
H551   H     0.16808   0.07311   0.64574   0.00000  Uiso   1.00
H552   H     0.23043   0.23611   0.83418   0.00000  Uiso   1.00
H553   H     0.15872   0.21750   0.84912   0.00000  Uiso   1.00
H554   H     0.17669   0.28296   0.83553   0.00000  Uiso   1.00
H555   H     0.28070   0.10056   0.93309   0.00000  Uiso   1.00
H556   H     0.22691   0.19989   0.60828   0.00000  Uiso   1.00
H557   H     0.08861   0.12063   0.90168   0.00000  Uiso   1.00
H558   H     0.04373   0.11500   0.58993   0.00000  Uiso   1.00
H559   H     0.30460   0.24079   0.90363   0.00000  Uiso   1.00
H560   H     0.01767   0.28084   0.98148   0.00000  Uiso   1.00
H561   H     0.01817   0.09853   0.50126   0.00000  Uiso   1.00
H562   H     0.15722   0.14213   0.64871   0.00000  Uiso   1.00
I563   I     0.22083   0.30316   0.58166   0.00000  Uiso   1.00
I564   I     0.18626   0.10685   0.86253   0.00000  Uiso   1.00
I565   I     0.04171   0.32770   0.66404   0.00000  Uiso   1.00
I566   I     0.30024   0.00556   0.83790   0.00000  Uiso   1.00
N567   N     0.14695   0.15216   0.73739   0.00000  Uiso   1.00
N568   N     0.18638   0.18117   0.76260   0.00000  Uiso   1.00
O569   O     0.29719   0.24631   0.75309   0.00000  Uiso   1.00
O570   O     0.16886   0.22922   0.77549   0.00000  Uiso   1.00
O571   O     0.03614   0.08702   0.74690   0.00000  Uiso   1.00
O572   O     0.05822   0.23702   0.74501   0.00000  Uiso   1.00
O573   O     0.27512   0.09632   0.75498   0.00000  Uiso   1.00
O574   O     0.30328   0.17397   0.82247   0.00000  Uiso   1.00
O575   O     0.03005   0.15937   0.67753   0.00000  Uiso   1.00
O576   O     0.06431   0.16467   0.81439   0.00000  Uiso   1.00
O577   O     0.26902   0.16866   0.68561   0.00000  Uiso   1.00
O578   O     0.16637   0.10810   0.71601   0.00000  Uiso   1.00
Zn579  Zn    0.27033   0.17287   0.75539   0.00000  Uiso   1.00
Zn580  Zn    0.06300   0.16046   0.74460   0.00000  Uiso   1.00
C581   C     0.34743   0.26466   0.74821   0.00000  Uiso   1.00
C582   C     0.64562   0.16252   0.65856   0.00000  Uiso   1.00
C583   C     0.36575   0.18130   0.89447   0.00000  Uiso   1.00
C584   C     0.63656   0.15908   0.60490   0.00000  Uiso   1.00
C585   C     0.36922   0.24735   0.96276   0.00000  Uiso   1.00
C586   C     0.65865   0.12285   0.52393   0.00000  Uiso   1.00
C587   C     0.34193   0.22385   0.91928   0.00000  Uiso   1.00
C588   C     0.33971   0.13200   0.57443   0.00000  Uiso   1.00
C589   C     0.41228   0.15899   0.91616   0.00000  Uiso   1.00
C590   C     0.58930   0.18133   0.58408   0.00000  Uiso   1.00
C591   C     0.44628   0.18726   0.95366   0.00000  Uiso   1.00
C592   C     0.65266   0.06856   0.75153   0.00000  Uiso   1.00
C593   C     0.57685   0.17626   0.53302   0.00000  Uiso   1.00
C594   C     0.42251   0.23089   0.97886   0.00000  Uiso   1.00
C595   C     0.60876   0.14232   0.50376   0.00000  Uiso   1.00
C596   C     0.50253   0.17379   0.96696   0.00000  Uiso   1.00
C597   C     0.52879   0.19851   0.51189   0.00000  Uiso   1.00
C598   C     0.48023   0.10511   0.66603   0.00000  Uiso   1.00
C599   C     0.51823   0.24130   0.82577   0.00000  Uiso   1.00
C600   C     0.50629   0.24457   0.53402   0.00000  Uiso   1.00
C601   C     0.53549   0.13898   0.93746   0.00000  Uiso   1.00
C602   C     0.45327   0.25950   0.51787   0.00000  Uiso   1.00
C603   C     0.58891   0.12603   0.95572   0.00000  Uiso   1.00
C604   C     0.34938   0.31690   0.73671   0.00000  Uiso   1.00
C605   C     0.65157   0.01629   0.76321   0.00000  Uiso   1.00
C606   C     0.35429   0.17019   0.84145   0.00000  Uiso   1.00
H607   H     0.43675   0.29479   0.53493   0.00000  Uiso   1.00
H608   H     0.43417   0.09574   0.66206   0.00000  Uiso   1.00
H609   H     0.50142   0.07311   0.64574   0.00000  Uiso   1.00
H610   H     0.56376   0.23611   0.83418   0.00000  Uiso   1.00
H611   H     0.49205   0.21750   0.84912   0.00000  Uiso   1.00
H612   H     0.51003   0.28296   0.83553   0.00000  Uiso   1.00
H613   H     0.61403   0.10056   0.93309   0.00000  Uiso   1.00
H614   H     0.56024   0.19989   0.60828   0.00000  Uiso   1.00
H615   H     0.42194   0.12063   0.90168   0.00000  Uiso   1.00
H616   H     0.37707   0.11500   0.58993   0.00000  Uiso   1.00
H617   H     0.63793   0.24079   0.90363   0.00000  Uiso   1.00
H618   H     0.35101   0.28084   0.98148   0.00000  Uiso   1.00
H619   H     0.35150   0.09853   0.50126   0.00000  Uiso   1.00
H620   H     0.49056   0.14213   0.64871   0.00000  Uiso   1.00
I621   I     0.55416   0.30316   0.58166   0.00000  Uiso   1.00
I622   I     0.51959   0.10685   0.86253   0.00000  Uiso   1.00
I623   I     0.37504   0.32770   0.66404   0.00000  Uiso   1.00
I624   I     0.63358   0.00556   0.83790   0.00000  Uiso   1.00
N625   N     0.48029   0.15216   0.73739   0.00000  Uiso   1.00
N626   N     0.51971   0.18117   0.76260   0.00000  Uiso   1.00
O627   O     0.63052   0.24631   0.75309   0.00000  Uiso   1.00
O628   O     0.50219   0.22922   0.77549   0.00000  Uiso   1.00
O629   O     0.36948   0.08702   0.74690   0.00000  Uiso   1.00
O630   O     0.39155   0.23702   0.74501   0.00000  Uiso   1.00
O631   O     0.60845   0.09632   0.75498   0.00000  Uiso   1.00
O632   O     0.63662   0.17397   0.82247   0.00000  Uiso   1.00
O633   O     0.36338   0.15937   0.67753   0.00000  Uiso   1.00
O634   O     0.39764   0.16467   0.81439   0.00000  Uiso   1.00
O635   O     0.60236   0.16866   0.68561   0.00000  Uiso   1.00
O636   O     0.49970   0.10810   0.71601   0.00000  Uiso   1.00
Zn637  Zn    0.60366   0.17287   0.75539   0.00000  Uiso   1.00
Zn638  Zn    0.39634   0.16046   0.74460   0.00000  Uiso   1.00
C639   C     0.68076   0.26466   0.74821   0.00000  Uiso   1.00
C640   C     0.97895   0.16252   0.65856   0.00000  Uiso   1.00
C641   C     0.69909   0.18130   0.89447   0.00000  Uiso   1.00
C642   C     0.96989   0.15908   0.60490   0.00000  Uiso   1.00
C643   C     0.70256   0.24735   0.96276   0.00000  Uiso   1.00
C644   C     0.99198   0.12285   0.52393   0.00000  Uiso   1.00
C645   C     0.67526   0.22385   0.91928   0.00000  Uiso   1.00
C646   C     0.67304   0.13200   0.57443   0.00000  Uiso   1.00
C647   C     0.74561   0.15899   0.91616   0.00000  Uiso   1.00
C648   C     0.92263   0.18133   0.58408   0.00000  Uiso   1.00
C649   C     0.77961   0.18726   0.95366   0.00000  Uiso   1.00
C650   C     0.98600   0.06856   0.75153   0.00000  Uiso   1.00
C651   C     0.91019   0.17626   0.53302   0.00000  Uiso   1.00
C652   C     0.75585   0.23089   0.97886   0.00000  Uiso   1.00
C653   C     0.94210   0.14232   0.50376   0.00000  Uiso   1.00
C654   C     0.83586   0.17379   0.96696   0.00000  Uiso   1.00
C655   C     0.86212   0.19851   0.51189   0.00000  Uiso   1.00
C656   C     0.81356   0.10511   0.66603   0.00000  Uiso   1.00
C657   C     0.85157   0.24130   0.82577   0.00000  Uiso   1.00
C658   C     0.83963   0.24457   0.53402   0.00000  Uiso   1.00
C659   C     0.86883   0.13898   0.93746   0.00000  Uiso   1.00
C660   C     0.78660   0.25950   0.51787   0.00000  Uiso   1.00
C661   C     0.92225   0.12603   0.95572   0.00000  Uiso   1.00
C662   C     0.68271   0.31690   0.73671   0.00000  Uiso   1.00
C663   C     0.98490   0.01629   0.76321   0.00000  Uiso   1.00
C664   C     0.68762   0.17019   0.84145   0.00000  Uiso   1.00
H665   H     0.77009   0.29479   0.53493   0.00000  Uiso   1.00
H666   H     0.76750   0.09574   0.66206   0.00000  Uiso   1.00
H667   H     0.83475   0.07311   0.64574   0.00000  Uiso   1.00
H668   H     0.89709   0.23611   0.83418   0.00000  Uiso   1.00
H669   H     0.82539   0.21750   0.84912   0.00000  Uiso   1.00
H670   H     0.84336   0.28296   0.83553   0.00000  Uiso   1.00
H671   H     0.94736   0.10056   0.93309   0.00000  Uiso   1.00
H672   H     0.89357   0.19989   0.60828   0.00000  Uiso   1.00
H673   H     0.75528   0.12063   0.90168   0.00000  Uiso   1.00
H674   H     0.71040   0.11500   0.58993   0.00000  Uiso   1.00
H675   H     0.97127   0.24079   0.90363   0.00000  Uiso   1.00
H676   H     0.68434   0.28084   0.98148   0.00000  Uiso   1.00
H677   H     0.68483   0.09853   0.50126   0.00000  Uiso   1.00
H678   H     0.82389   0.14213   0.64871   0.00000  Uiso   1.00
I679   I     0.88750   0.30316   0.58166   0.00000  Uiso   1.00
I680   I     0.85292   0.10685   0.86253   0.00000  Uiso   1.00
I681   I     0.70838   0.32770   0.66404   0.00000  Uiso   1.00
I682   I     0.96691   0.00556   0.83790   0.00000  Uiso   1.00
N683   N     0.81362   0.15216   0.73739   0.00000  Uiso   1.00
N684   N     0.85305   0.18117   0.76260   0.00000  Uiso   1.00
O685   O     0.96386   0.24631   0.75309   0.00000  Uiso   1.00
O686   O     0.83553   0.22922   0.77549   0.00000  Uiso   1.00
O687   O     0.70281   0.08702   0.74690   0.00000  Uiso   1.00
O688   O     0.72488   0.23702   0.74501   0.00000  Uiso   1.00
O689   O     0.94178   0.09632   0.75498   0.00000  Uiso   1.00
O690   O     0.96995   0.17397   0.82247   0.00000  Uiso   1.00
O691   O     0.69672   0.15937   0.67753   0.00000  Uiso   1.00
O692   O     0.73098   0.16467   0.81439   0.00000  Uiso   1.00
O693   O     0.93569   0.16866   0.68561   0.00000  Uiso   1.00
O694   O     0.83304   0.10810   0.71601   0.00000  Uiso   1.00
Zn695  Zn    0.93700   0.17287   0.75539   0.00000  Uiso   1.00
Zn696  Zn    0.72967   0.16046   0.74460   0.00000  Uiso   1.00
C697   C     0.01409   0.59800   0.74821   0.00000  Uiso   1.00
C698   C     0.31228   0.49586   0.65856   0.00000  Uiso   1.00
C699   C     0.03242   0.51463   0.89447   0.00000  Uiso   1.00
C700   C     0.30323   0.49241   0.60490   0.00000  Uiso   1.00
C701   C     0.03589   0.58068   0.96276   0.00000  Uiso   1.00
C702   C     0.32531   0.45618   0.52393   0.00000  Uiso   1.00
C703   C     0.00860   0.55719   0.91928   0.00000  Uiso   1.00
C704   C     0.00637   0.46533   0.57443   0.00000  Uiso   1.00
C705   C     0.07894   0.49232   0.91616   0.00000  Uiso   1.00
C706   C     0.25597   0.51466   0.58408   0.00000  Uiso   1.00
C707   C     0.11295   0.52059   0.95366   0.00000  Uiso   1.00
C708   C     0.31933   0.40189   0.75153   0.00000  Uiso   1.00
C709   C     0.24352   0.50959   0.53302   0.00000  Uiso   1.00
C710   C     0.08918   0.56422   0.97886   0.00000  Uiso   1.00
C711   C     0.27543   0.47565   0.50376   0.00000  Uiso   1.00
C712   C     0.16920   0.50712   0.96696   0.00000  Uiso   1.00
C713   C     0.19545   0.53184   0.51189   0.00000  Uiso   1.00
C714   C     0.14690   0.43844   0.66603   0.00000  Uiso   1.00
C715   C     0.18490   0.57464   0.82577   0.00000  Uiso   1.00
C716   C     0.17296   0.57790   0.53402   0.00000  Uiso   1.00
C717   C     0.20216   0.47232   0.93746   0.00000  Uiso   1.00
C718   C     0.11993   0.59283   0.51787   0.00000  Uiso   1.00
C719   C     0.25558   0.45936   0.95572   0.00000  Uiso   1.00
C720   C     0.01604   0.65023   0.73671   0.00000  Uiso   1.00
C721   C     0.31824   0.34962   0.76321   0.00000  Uiso   1.00
C722   C     0.02096   0.50353   0.84145   0.00000  Uiso   1.00
H723   H     0.10342   0.62812   0.53493   0.00000  Uiso   1.00
H724   H     0.10084   0.42907   0.66206   0.00000  Uiso   1.00
H725   H     0.16808   0.40645   0.64574   0.00000  Uiso   1.00
H726   H     0.23043   0.56944   0.83418   0.00000  Uiso   1.00
H727   H     0.15872   0.55083   0.84912   0.00000  Uiso   1.00
H728   H     0.17669   0.61630   0.83553   0.00000  Uiso   1.00
H729   H     0.28070   0.43390   0.93309   0.00000  Uiso   1.00
H730   H     0.22691   0.53323   0.60828   0.00000  Uiso   1.00
H731   H     0.08861   0.45397   0.90168   0.00000  Uiso   1.00
H732   H     0.04373   0.44833   0.58993   0.00000  Uiso   1.00
H733   H     0.30460   0.57412   0.90363   0.00000  Uiso   1.00
H734   H     0.01767   0.61417   0.98148   0.00000  Uiso   1.00
H735   H     0.01817   0.43187   0.50126   0.00000  Uiso   1.00
H736   H     0.15722   0.47546   0.64871   0.00000  Uiso   1.00
I737   I     0.22083   0.63650   0.58166   0.00000  Uiso   1.00
I738   I     0.18626   0.44019   0.86253   0.00000  Uiso   1.00
I739   I     0.04171   0.66103   0.66404   0.00000  Uiso   1.00
I740   I     0.30024   0.33890   0.83790   0.00000  Uiso   1.00
N741   N     0.14695   0.48550   0.73739   0.00000  Uiso   1.00
N742   N     0.18638   0.51450   0.76260   0.00000  Uiso   1.00
O743   O     0.29719   0.57964   0.75309   0.00000  Uiso   1.00
O744   O     0.16886   0.56255   0.77549   0.00000  Uiso   1.00
O745   O     0.03614   0.42036   0.74690   0.00000  Uiso   1.00
O746   O     0.05822   0.57035   0.74501   0.00000  Uiso   1.00
O747   O     0.27512   0.42965   0.75498   0.00000  Uiso   1.00
O748   O     0.30328   0.50730   0.82247   0.00000  Uiso   1.00
O749   O     0.03005   0.49270   0.67753   0.00000  Uiso   1.00
O750   O     0.06431   0.49801   0.81439   0.00000  Uiso   1.00
O751   O     0.26902   0.50199   0.68561   0.00000  Uiso   1.00
O752   O     0.16637   0.44143   0.71601   0.00000  Uiso   1.00
Zn753  Zn    0.27033   0.50621   0.75539   0.00000  Uiso   1.00
Zn754  Zn    0.06300   0.49379   0.74460   0.00000  Uiso   1.00
C755   C     0.34743   0.59800   0.74821   0.00000  Uiso   1.00
C756   C     0.64562   0.49586   0.65856   0.00000  Uiso   1.00
C757   C     0.36575   0.51463   0.89447   0.00000  Uiso   1.00
C758   C     0.63656   0.49241   0.60490   0.00000  Uiso   1.00
C759   C     0.36922   0.58068   0.96276   0.00000  Uiso   1.00
C760   C     0.65865   0.45618   0.52393   0.00000  Uiso   1.00
C761   C     0.34193   0.55719   0.91928   0.00000  Uiso   1.00
C762   C     0.33971   0.46533   0.57443   0.00000  Uiso   1.00
C763   C     0.41228   0.49232   0.91616   0.00000  Uiso   1.00
C764   C     0.58930   0.51466   0.58408   0.00000  Uiso   1.00
C765   C     0.44628   0.52059   0.95366   0.00000  Uiso   1.00
C766   C     0.65266   0.40189   0.75153   0.00000  Uiso   1.00
C767   C     0.57685   0.50959   0.53302   0.00000  Uiso   1.00
C768   C     0.42251   0.56422   0.97886   0.00000  Uiso   1.00
C769   C     0.60876   0.47565   0.50376   0.00000  Uiso   1.00
C770   C     0.50253   0.50712   0.96696   0.00000  Uiso   1.00
C771   C     0.52879   0.53184   0.51189   0.00000  Uiso   1.00
C772   C     0.48023   0.43844   0.66603   0.00000  Uiso   1.00
C773   C     0.51823   0.57464   0.82577   0.00000  Uiso   1.00
C774   C     0.50629   0.57790   0.53402   0.00000  Uiso   1.00
C775   C     0.53549   0.47232   0.93746   0.00000  Uiso   1.00
C776   C     0.45327   0.59283   0.51787   0.00000  Uiso   1.00
C777   C     0.58891   0.45936   0.95572   0.00000  Uiso   1.00
C778   C     0.34938   0.65023   0.73671   0.00000  Uiso   1.00
C779   C     0.65157   0.34962   0.76321   0.00000  Uiso   1.00
C780   C     0.35429   0.50353   0.84145   0.00000  Uiso   1.00
H781   H     0.43675   0.62812   0.53493   0.00000  Uiso   1.00
H782   H     0.43417   0.42907   0.66206   0.00000  Uiso   1.00
H783   H     0.50142   0.40645   0.64574   0.00000  Uiso   1.00
H784   H     0.56376   0.56944   0.83418   0.00000  Uiso   1.00
H785   H     0.49205   0.55083   0.84912   0.00000  Uiso   1.00
H786   H     0.51003   0.61630   0.83553   0.00000  Uiso   1.00
H787   H     0.61403   0.43390   0.93309   0.00000  Uiso   1.00
H788   H     0.56024   0.53323   0.60828   0.00000  Uiso   1.00
H789   H     0.42194   0.45397   0.90168   0.00000  Uiso   1.00
H790   H     0.37707   0.44833   0.58993   0.00000  Uiso   1.00
H791   H     0.63793   0.57412   0.90363   0.00000  Uiso   1.00
H792   H     0.35101   0.61417   0.98148   0.00000  Uiso   1.00
H793   H     0.35150   0.43187   0.50126   0.00000  Uiso   1.00
H794   H     0.49056   0.47546   0.64871   0.00000  Uiso   1.00
I795   I     0.55416   0.63650   0.58166   0.00000  Uiso   1.00
I796   I     0.51959   0.44019   0.86253   0.00000  Uiso   1.00
I797   I     0.37504   0.66103   0.66404   0.00000  Uiso   1.00
I798   I     0.63358   0.33890   0.83790   0.00000  Uiso   1.00
N799   N     0.48029   0.48550   0.73739   0.00000  Uiso   1.00
N800   N     0.51971   0.51450   0.76260   0.00000  Uiso   1.00
O801   O     0.63052   0.57964   0.75309   0.00000  Uiso   1.00
O802   O     0.50219   0.56255   0.77549   0.00000  Uiso   1.00
O803   O     0.36948   0.42036   0.74690   0.00000  Uiso   1.00
O804   O     0.39155   0.57035   0.74501   0.00000  Uiso   1.00
O805   O     0.60845   0.42965   0.75498   0.00000  Uiso   1.00
O806   O     0.63662   0.50730   0.82247   0.00000  Uiso   1.00
O807   O     0.36338   0.49270   0.67753   0.00000  Uiso   1.00
O808   O     0.39764   0.49801   0.81439   0.00000  Uiso   1.00
O809   O     0.60236   0.50199   0.68561   0.00000  Uiso   1.00
O810   O     0.49970   0.44143   0.71601   0.00000  Uiso   1.00
Zn811  Zn    0.60366   0.50621   0.75539   0.00000  Uiso   1.00
Zn812  Zn    0.39634   0.49379   0.74460   0.00000  Uiso   1.00
C813   C     0.68076   0.59800   0.74821   0.00000  Uiso   1.00
C814   C     0.97895   0.49586   0.65856   0.00000  Uiso   1.00
C815   C     0.69909   0.51463   0.89447   0.00000  Uiso   1.00
C816   C     0.96989   0.49241   0.60490   0.00000  Uiso   1.00
C817   C     0.70256   0.58068   0.96276   0.00000  Uiso   1.00
C818   C     0.99198   0.45618   0.52393   0.00000  Uiso   1.00
C819   C     0.67526   0.55719   0.91928   0.00000  Uiso   1.00
C820   C     0.67304   0.46533   0.57443   0.00000  Uiso   1.00
C821   C     0.74561   0.49232   0.91616   0.00000  Uiso   1.00
C822   C     0.92263   0.51466   0.58408   0.00000  Uiso   1.00
C823   C     0.77961   0.52059   0.95366   0.00000  Uiso   1.00
C824   C     0.98600   0.40189   0.75153   0.00000  Uiso   1.00
C825   C     0.91019   0.50959   0.53302   0.00000  Uiso   1.00
C826   C     0.75585   0.56422   0.97886   0.00000  Uiso   1.00
C827   C     0.94210   0.47565   0.50376   0.00000  Uiso   1.00
C828   C     0.83586   0.50712   0.96696   0.00000  Uiso   1.00
C829   C     0.86212   0.53184   0.51189   0.00000  Uiso   1.00
C830   C     0.81356   0.43844   0.66603   0.00000  Uiso   1.00
C831   C     0.85157   0.57464   0.82577   0.00000  Uiso   1.00
C832   C     0.83963   0.57790   0.53402   0.00000  Uiso   1.00
C833   C     0.86883   0.47232   0.93746   0.00000  Uiso   1.00
C834   C     0.78660   0.59283   0.51787   0.00000  Uiso   1.00
C835   C     0.92225   0.45936   0.95572   0.00000  Uiso   1.00
C836   C     0.68271   0.65023   0.73671   0.00000  Uiso   1.00
C837   C     0.98490   0.34962   0.76321   0.00000  Uiso   1.00
C838   C     0.68762   0.50353   0.84145   0.00000  Uiso   1.00
H839   H     0.77009   0.62812   0.53493   0.00000  Uiso   1.00
H840   H     0.76750   0.42907   0.66206   0.00000  Uiso   1.00
H841   H     0.83475   0.40645   0.64574   0.00000  Uiso   1.00
H842   H     0.89709   0.56944   0.83418   0.00000  Uiso   1.00
H843   H     0.82539   0.55083   0.84912   0.00000  Uiso   1.00
H844   H     0.84336   0.61630   0.83553   0.00000  Uiso   1.00
H845   H     0.94736   0.43390   0.93309   0.00000  Uiso   1.00
H846   H     0.89357   0.53323   0.60828   0.00000  Uiso   1.00
H847   H     0.75528   0.45397   0.90168   0.00000  Uiso   1.00
H848   H     0.71040   0.44833   0.58993   0.00000  Uiso   1.00
H849   H     0.97127   0.57412   0.90363   0.00000  Uiso   1.00
H850   H     0.68434   0.61417   0.98148   0.00000  Uiso   1.00
H851   H     0.68483   0.43187   0.50126   0.00000  Uiso   1.00
H852   H     0.82389   0.47546   0.64871   0.00000  Uiso   1.00
I853   I     0.88750   0.63650   0.58166   0.00000  Uiso   1.00
I854   I     0.85292   0.44019   0.86253   0.00000  Uiso   1.00
I855   I     0.70838   0.66103   0.66404   0.00000  Uiso   1.00
I856   I     0.96691   0.33890   0.83790   0.00000  Uiso   1.00
N857   N     0.81362   0.48550   0.73739   0.00000  Uiso   1.00
N858   N     0.85305   0.51450   0.76260   0.00000  Uiso   1.00
O859   O     0.96386   0.57964   0.75309   0.00000  Uiso   1.00
O860   O     0.83553   0.56255   0.77549   0.00000  Uiso   1.00
O861   O     0.70281   0.42036   0.74690   0.00000  Uiso   1.00
O862   O     0.72488   0.57035   0.74501   0.00000  Uiso   1.00
O863   O     0.94178   0.42965   0.75498   0.00000  Uiso   1.00
O864   O     0.96995   0.50730   0.82247   0.00000  Uiso   1.00
O865   O     0.69672   0.49270   0.67753   0.00000  Uiso   1.00
O866   O     0.73098   0.49801   0.81439   0.00000  Uiso   1.00
O867   O     0.93569   0.50199   0.68561   0.00000  Uiso   1.00
O868   O     0.83304   0.44143   0.71601   0.00000  Uiso   1.00
Zn869  Zn    0.93700   0.50621   0.75539   0.00000  Uiso   1.00
Zn870  Zn    0.72967   0.49379   0.74460   0.00000  Uiso   1.00
C871   C     0.01409   0.93133   0.74821   0.00000  Uiso   1.00
C872   C     0.31228   0.82919   0.65856   0.00000  Uiso   1.00
C873   C     0.03242   0.84796   0.89447   0.00000  Uiso   1.00
C874   C     0.30323   0.82575   0.60490   0.00000  Uiso   1.00
C875   C     0.03589   0.91401   0.96276   0.00000  Uiso   1.00
C876   C     0.32531   0.78951   0.52393   0.00000  Uiso   1.00
C877   C     0.00860   0.89052   0.91928   0.00000  Uiso   1.00
C878   C     0.00637   0.79866   0.57443   0.00000  Uiso   1.00
C879   C     0.07894   0.82565   0.91616   0.00000  Uiso   1.00
C880   C     0.25597   0.84799   0.58408   0.00000  Uiso   1.00
C881   C     0.11295   0.85392   0.95366   0.00000  Uiso   1.00
C882   C     0.31933   0.73522   0.75153   0.00000  Uiso   1.00
C883   C     0.24352   0.84293   0.53302   0.00000  Uiso   1.00
C884   C     0.08918   0.89756   0.97886   0.00000  Uiso   1.00
C885   C     0.27543   0.80899   0.50376   0.00000  Uiso   1.00
C886   C     0.16920   0.84046   0.96696   0.00000  Uiso   1.00
C887   C     0.19545   0.86518   0.51189   0.00000  Uiso   1.00
C888   C     0.14690   0.77178   0.66603   0.00000  Uiso   1.00
C889   C     0.18490   0.90797   0.82577   0.00000  Uiso   1.00
C890   C     0.17296   0.91123   0.53402   0.00000  Uiso   1.00
C891   C     0.20216   0.80565   0.93746   0.00000  Uiso   1.00
C892   C     0.11993   0.92616   0.51787   0.00000  Uiso   1.00
C893   C     0.25558   0.79270   0.95572   0.00000  Uiso   1.00
C894   C     0.01604   0.98356   0.73671   0.00000  Uiso   1.00
C895   C     0.31824   0.68296   0.76321   0.00000  Uiso   1.00
C896   C     0.02096   0.83686   0.84145   0.00000  Uiso   1.00
H897   H     0.10342   0.96145   0.53493   0.00000  Uiso   1.00
H898   H     0.10084   0.76241   0.66206   0.00000  Uiso   1.00
H899   H     0.16808   0.73978   0.64574   0.00000  Uiso   1.00
H900   H     0.23043   0.90278   0.83418   0.00000  Uiso   1.00
H901   H     0.15872   0.88416   0.84912   0.00000  Uiso   1.00
H902   H     0.17669   0.94963   0.83553   0.00000  Uiso   1.00
H903   H     0.28070   0.76723   0.93309   0.00000  Uiso   1.00
H904   H     0.22691   0.86656   0.60828   0.00000  Uiso   1.00
H905   H     0.08861   0.78730   0.90168   0.00000  Uiso   1.00
H906   H     0.04373   0.78166   0.58993   0.00000  Uiso   1.00
H907   H     0.30460   0.90745   0.90363   0.00000  Uiso   1.00
H908   H     0.01767   0.94751   0.98148   0.00000  Uiso   1.00
H909   H     0.01817   0.76520   0.50126   0.00000  Uiso   1.00
H910   H     0.15722   0.80880   0.64871   0.00000  Uiso   1.00
I911   I     0.22083   0.96983   0.58166   0.00000  Uiso   1.00
I912   I     0.18626   0.77352   0.86253   0.00000  Uiso   1.00
I913   I     0.04171   0.99436   0.66404   0.00000  Uiso   1.00
I914   I     0.30024   0.67223   0.83790   0.00000  Uiso   1.00
N915   N     0.14695   0.81883   0.73739   0.00000  Uiso   1.00
N916   N     0.18638   0.84784   0.76260   0.00000  Uiso   1.00
O917   O     0.29719   0.91298   0.75309   0.00000  Uiso   1.00
O918   O     0.16886   0.89589   0.77549   0.00000  Uiso   1.00
O919   O     0.03614   0.75369   0.74690   0.00000  Uiso   1.00
O920   O     0.05822   0.90368   0.74501   0.00000  Uiso   1.00
O921   O     0.27512   0.76298   0.75498   0.00000  Uiso   1.00
O922   O     0.30328   0.84063   0.82247   0.00000  Uiso   1.00
O923   O     0.03005   0.82603   0.67753   0.00000  Uiso   1.00
O924   O     0.06431   0.83134   0.81439   0.00000  Uiso   1.00
O925   O     0.26902   0.83533   0.68561   0.00000  Uiso   1.00
O926   O     0.16637   0.77476   0.71601   0.00000  Uiso   1.00
Zn927  Zn    0.27033   0.83954   0.75539   0.00000  Uiso   1.00
Zn928  Zn    0.06300   0.82713   0.74460   0.00000  Uiso   1.00
C929   C     0.34743   0.93133   0.74821   0.00000  Uiso   1.00
C930   C     0.64562   0.82919   0.65856   0.00000  Uiso   1.00
C931   C     0.36575   0.84796   0.89447   0.00000  Uiso   1.00
C932   C     0.63656   0.82575   0.60490   0.00000  Uiso   1.00
C933   C     0.36922   0.91401   0.96276   0.00000  Uiso   1.00
C934   C     0.65865   0.78951   0.52393   0.00000  Uiso   1.00
C935   C     0.34193   0.89052   0.91928   0.00000  Uiso   1.00
C936   C     0.33971   0.79866   0.57443   0.00000  Uiso   1.00
C937   C     0.41228   0.82565   0.91616   0.00000  Uiso   1.00
C938   C     0.58930   0.84799   0.58408   0.00000  Uiso   1.00
C939   C     0.44628   0.85392   0.95366   0.00000  Uiso   1.00
C940   C     0.65266   0.73522   0.75153   0.00000  Uiso   1.00
C941   C     0.57685   0.84293   0.53302   0.00000  Uiso   1.00
C942   C     0.42251   0.89756   0.97886   0.00000  Uiso   1.00
C943   C     0.60876   0.80899   0.50376   0.00000  Uiso   1.00
C944   C     0.50253   0.84046   0.96696   0.00000  Uiso   1.00
C945   C     0.52879   0.86518   0.51189   0.00000  Uiso   1.00
C946   C     0.48023   0.77178   0.66603   0.00000  Uiso   1.00
C947   C     0.51823   0.90797   0.82577   0.00000  Uiso   1.00
C948   C     0.50629   0.91123   0.53402   0.00000  Uiso   1.00
C949   C     0.53549   0.80565   0.93746   0.00000  Uiso   1.00
C950   C     0.45327   0.92616   0.51787   0.00000  Uiso   1.00
C951   C     0.58891   0.79270   0.95572   0.00000  Uiso   1.00
C952   C     0.34938   0.98356   0.73671   0.00000  Uiso   1.00
C953   C     0.65157   0.68296   0.76321   0.00000  Uiso   1.00
C954   C     0.35429   0.83686   0.84145   0.00000  Uiso   1.00
H955   H     0.43675   0.96145   0.53493   0.00000  Uiso   1.00
H956   H     0.43417   0.76241   0.66206   0.00000  Uiso   1.00
H957   H     0.50142   0.73978   0.64574   0.00000  Uiso   1.00
H958   H     0.56376   0.90278   0.83418   0.00000  Uiso   1.00
H959   H     0.49205   0.88416   0.84912   0.00000  Uiso   1.00
H960   H     0.51003   0.94963   0.83553   0.00000  Uiso   1.00
H961   H     0.61403   0.76723   0.93309   0.00000  Uiso   1.00
H962   H     0.56024   0.86656   0.60828   0.00000  Uiso   1.00
H963   H     0.42194   0.78730   0.90168   0.00000  Uiso   1.00
H964   H     0.37707   0.78166   0.58993   0.00000  Uiso   1.00
H965   H     0.63793   0.90745   0.90363   0.00000  Uiso   1.00
H966   H     0.35101   0.94751   0.98148   0.00000  Uiso   1.00
H967   H     0.35150   0.76520   0.50126   0.00000  Uiso   1.00
H968   H     0.49056   0.80880   0.64871   0.00000  Uiso   1.00
I969   I     0.55416   0.96983   0.58166   0.00000  Uiso   1.00
I970   I     0.51959   0.77352   0.86253   0.00000  Uiso   1.00
I971   I     0.37504   0.99436   0.66404   0.00000  Uiso   1.00
I972   I     0.63358   0.67223   0.83790   0.00000  Uiso   1.00
N973   N     0.48029   0.81883   0.73739   0.00000  Uiso   1.00
N974   N     0.51971   0.84784   0.76260   0.00000  Uiso   1.00
O975   O     0.63052   0.91298   0.75309   0.00000  Uiso   1.00
O976   O     0.50219   0.89589   0.77549   0.00000  Uiso   1.00
O977   O     0.36948   0.75369   0.74690   0.00000  Uiso   1.00
O978   O     0.39155   0.90368   0.74501   0.00000  Uiso   1.00
O979   O     0.60845   0.76298   0.75498   0.00000  Uiso   1.00
O980   O     0.63662   0.84063   0.82247   0.00000  Uiso   1.00
O981   O     0.36338   0.82603   0.67753   0.00000  Uiso   1.00
O982   O     0.39764   0.83134   0.81439   0.00000  Uiso   1.00
O983   O     0.60236   0.83533   0.68561   0.00000  Uiso   1.00
O984   O     0.49970   0.77476   0.71601   0.00000  Uiso   1.00
Zn985  Zn    0.60366   0.83954   0.75539   0.00000  Uiso   1.00
Zn986  Zn    0.39634   0.82713   0.74460   0.00000  Uiso   1.00
C987   C     0.68076   0.93133   0.74821   0.00000  Uiso   1.00
C988   C     0.97895   0.82919   0.65856   0.00000  Uiso   1.00
C989   C     0.69909   0.84796   0.89447   0.00000  Uiso   1.00
C990   C     0.96989   0.82575   0.60490   0.00000  Uiso   1.00
C991   C     0.70256   0.91401   0.96276   0.00000  Uiso   1.00
C992   C     0.99198   0.78951   0.52393   0.00000  Uiso   1.00
C993   C     0.67526   0.89052   0.91928   0.00000  Uiso   1.00
C994   C     0.67304   0.79866   0.57443   0.00000  Uiso   1.00
C995   C     0.74561   0.82565   0.91616   0.00000  Uiso   1.00
C996   C     0.92263   0.84799   0.58408   0.00000  Uiso   1.00
C997   C     0.77961   0.85392   0.95366   0.00000  Uiso   1.00
C998   C     0.98600   0.73522   0.75153   0.00000  Uiso   1.00
C999   C     0.91019   0.84293   0.53302   0.00000  Uiso   1.00
C1000  C     0.75585   0.89756   0.97886   0.00000  Uiso   1.00
C1001  C     0.94210   0.80899   0.50376   0.00000  Uiso   1.00
C1002  C     0.83586   0.84046   0.96696   0.00000  Uiso   1.00
C1003  C     0.86212   0.86518   0.51189   0.00000  Uiso   1.00
C1004  C     0.81356   0.77178   0.66603   0.00000  Uiso   1.00
C1005  C     0.85157   0.90797   0.82577   0.00000  Uiso   1.00
C1006  C     0.83963   0.91123   0.53402   0.00000  Uiso   1.00
C1007  C     0.86883   0.80565   0.93746   0.00000  Uiso   1.00
C1008  C     0.78660   0.92616   0.51787   0.00000  Uiso   1.00
C1009  C     0.92225   0.79270   0.95572   0.00000  Uiso   1.00
C1010  C     0.68271   0.98356   0.73671   0.00000  Uiso   1.00
C1011  C     0.98490   0.68296   0.76321   0.00000  Uiso   1.00
C1012  C     0.68762   0.83686   0.84145   0.00000  Uiso   1.00
H1013  H     0.77009   0.96145   0.53493   0.00000  Uiso   1.00
H1014  H     0.76750   0.76241   0.66206   0.00000  Uiso   1.00
H1015  H     0.83475   0.73978   0.64574   0.00000  Uiso   1.00
H1016  H     0.89709   0.90278   0.83418   0.00000  Uiso   1.00
H1017  H     0.82539   0.88416   0.84912   0.00000  Uiso   1.00
H1018  H     0.84336   0.94963   0.83553   0.00000  Uiso   1.00
H1019  H     0.94736   0.76723   0.93309   0.00000  Uiso   1.00
H1020  H     0.89357   0.86656   0.60828   0.00000  Uiso   1.00
H1021  H     0.75528   0.78730   0.90168   0.00000  Uiso   1.00
H1022  H     0.71040   0.78166   0.58993   0.00000  Uiso   1.00
H1023  H     0.97127   0.90745   0.90363   0.00000  Uiso   1.00
H1024  H     0.68434   0.94751   0.98148   0.00000  Uiso   1.00
H1025  H     0.68483   0.76520   0.50126   0.00000  Uiso   1.00
H1026  H     0.82389   0.80880   0.64871   0.00000  Uiso   1.00
I1027  I     0.88750   0.96983   0.58166   0.00000  Uiso   1.00
I1028  I     0.85292   0.77352   0.86253   0.00000  Uiso   1.00
I1029  I     0.70838   0.99436   0.66404   0.00000  Uiso   1.00
I1030  I     0.96691   0.67223   0.83790   0.00000  Uiso   1.00
N1031  N     0.81362   0.81883   0.73739   0.00000  Uiso   1.00
N1032  N     0.85305   0.84784   0.76260   0.00000  Uiso   1.00
O1033  O     0.96386   0.91298   0.75309   0.00000  Uiso   1.00
O1034  O     0.83553   0.89589   0.77549   0.00000  Uiso   1.00
O1035  O     0.70281   0.75369   0.74690   0.00000  Uiso   1.00
O1036  O     0.72488   0.90368   0.74501   0.00000  Uiso   1.00
O1037  O     0.94178   0.76298   0.75498   0.00000  Uiso   1.00
O1038  O     0.96995   0.84063   0.82247   0.00000  Uiso   1.00
O1039  O     0.69672   0.82603   0.67753   0.00000  Uiso   1.00
O1040  O     0.73098   0.83134   0.81439   0.00000  Uiso   1.00
O1041  O     0.93569   0.83533   0.68561   0.00000  Uiso   1.00
O1042  O     0.83304   0.77476   0.71601   0.00000  Uiso   1.00
Zn1043 Zn    0.93700   0.83954   0.75539   0.00000  Uiso   1.00
Zn1044 Zn    0.72967   0.82713   0.74460   0.00000  Uiso   1.00
loop_
_geom_bond_atom_site_label_1
_geom_bond_atom_site_label_2
_geom_bond_distance
_geom_bond_site_symmetry_2
_ccdc_geom_bond_type
C1     O50     1.293   .     A
C1     C24     1.396   .     S
C1     O163    1.275   1_455 S
C2     C4      1.455   .     S
C2     O55     1.304   .     A
C2     O111    1.295   .     S
C3     C9      1.386   .     A
C3     C26     1.452   .     S
C3     C7      1.397   .     A
C4     C10     1.390   .     A
C4     C66     1.402   .     S
C5     C14     1.405   .     A
C5     H38     1.084   .     S
C5     C7      1.391   .     A
C6     C15     1.402   .     A
C6     C66     1.392   .     S
C6     H97     1.084   .     S
C7     H153    1.082   1_455 S
C8     H36     1.082   .     S
C8     C120    1.402   1_455 S
C8     C122    1.392   1_455 S
C9     C11     1.393   .     A
C9     H35     1.070   .     S
C10    H34     1.081   .     S
C10    C13     1.394   .     A
C11    C14     1.422   .     A
C11    C16     1.424   .     A
C12    C25     1.399   .     S
C12    O51     1.297   .     A
C12    O107    1.273   .     S
C13    C17     1.408   .     A
C13    C15     1.409   .     A
C14    C544    1.387   .     S
C15    C545    1.385   1_554 S
C16    C21     1.441   .     A
C16    C539    1.424   .     S
C17    C20     1.423   .     A
C17    C538    1.424   1_554 S
C18    O56     1.402   .     S
C18    H29     1.109   .     S
C18    H28     1.102   .     S
C18    H40     1.113   .     S
C19    H31     1.108   .     S
C19    H32     1.109   .     S
C19    O48     1.401   .     S
C19    H30     1.105   .     S
C20    C22     1.386   .     A
C20    I41     2.138   .     S
C21    C23     1.395   .     A
C21    I42     2.139   .     S
C22    H27     1.084   .     S
C22    C536    1.387   1_554 S
C23    H33     1.084   .     S
C23    C537    1.385   .     S
C24    I43     2.133   .     S
C24    C315    1.339   1_455 S
C25    I44     2.132   .     S
C25    C430    1.339   1_545 S
C26    O54     1.304   .     A
C26    O168    1.295   1_455 S
H37    C65     1.082   .     S
H39    C122    1.084   1_455 S
N45    N46     1.292   .     D
N45    Zn58    2.028   .     S
N45    O56     1.343   .     S
N46    O48     1.345   .     S
N46    Zn57    2.028   .     S
O47    Zn57    1.963   .     S
O47    C59     1.275   .     S
O49    Zn58    1.963   .     S
O49    C128    1.273   1_455 S
O50    Zn58    1.969   .     S
O51    Zn57    1.969   .     S
O52    Zn57    1.935   .     S
O52    C84     1.295   .     S
O53    Zn58    1.935   .     S
O53    C118    1.295   1_455 S
O54    Zn58    1.887   .     S
O55    Zn57    1.887   .     S
C59    O108    1.293   .     A
C59    C82     1.396   .     S
C60    C62     1.455   .     S
C60    O113    1.304   .     A
C60    O169    1.295   .     S
C61    C67     1.386   .     A
C61    C84     1.452   .     S
C61    C65     1.397   .     A
C62    C68     1.390   .     A
C62    C124    1.402   .     S
C63    C72     1.405   .     A
C63    H96     1.084   .     S
C63    C65     1.391   .     A
C64    C73     1.402   .     A
C64    C124    1.392   .     S
C64    H155    1.084   .     S
C66    H94     1.082   .     S
C67    C69     1.393   .     A
C67    H93     1.070   .     S
C68    H92     1.081   .     S
C68    C71     1.394   .     A
C69    C72     1.422   .     A
C69    C74     1.424   .     A
C70    C83     1.399   .     S
C70    O109    1.297   .     A
C70    O165    1.273   .     S
C71    C75     1.408   .     A
C71    C73     1.409   .     A
C72    C602    1.387   .     S
C73    C603    1.385   1_554 S
C74    C79     1.441   .     A
C74    C597    1.424   .     S
C75    C78     1.423   .     A
C75    C596    1.424   1_554 S
C76    O114    1.402   .     S
C76    H87     1.109   .     S
C76    H86     1.102   .     S
C76    H98     1.113   .     S
C77    H89     1.108   .     S
C77    H90     1.109   .     S
C77    O106    1.401   .     S
C77    H88     1.105   .     S
C78    C80     1.386   .     A
C78    I99     2.138   .     S
C79    C81     1.395   .     A
C79    I100    2.139   .     S
C80    H85     1.084   .     S
C80    C594    1.387   1_554 S
C81    H91     1.084   .     S
C81    C595    1.385   .     S
C82    I101    2.133   .     S
C82    C199    1.339   .     S
C83    I102    2.132   .     S
C83    C488    1.339   1_545 S
C84    O112    1.304   .     A
H95    C123    1.082   .     S
N103   N104    1.292   .     D
N103   Zn116   2.028   .     S
N103   O114    1.343   .     S
N104   O106    1.345   .     S
N104   Zn115   2.028   .     S
O105   Zn115   1.963   .     S
O105   C117    1.275   .     S
O107   Zn116   1.963   .     S
O108   Zn116   1.969   .     S
O109   Zn115   1.969   .     S
O110   Zn115   1.935   .     S
O110   C142    1.295   .     S
O111   Zn116   1.935   .     S
O112   Zn116   1.887   .     S
O113   Zn115   1.887   .     S
C117   O166    1.293   .     A
C117   C140    1.396   .     S
C118   C120    1.455   .     S
C118   O171    1.304   .     A
C118   O53     1.295   1_655 S
C119   C125    1.386   .     A
C119   C142    1.452   .     S
C119   C123    1.397   .     A
C120   C126    1.390   .     A
C120   C8      1.402   1_655 S
C121   C130    1.405   .     A
C121   H154    1.084   .     S
C121   C123    1.391   .     A
C122   C131    1.402   .     A
C122   C8      1.392   1_655 S
C122   H39     1.084   1_655 S
C124   H152    1.082   .     S
C125   C127    1.393   .     A
C125   H151    1.070   .     S
C126   H150    1.081   .     S
C126   C129    1.394   .     A
C127   C130    1.422   .     A
C127   C132    1.424   .     A
C128   C141    1.399   .     S
C128   O167    1.297   .     A
C128   O49     1.273   1_655 S
C129   C133    1.408   .     A
C129   C131    1.409   .     A
C130   C660    1.387   .     S
C131   C661    1.385   1_554 S
C132   C137    1.441   .     A
C132   C655    1.424   .     S
C133   C136    1.423   .     A
C133   C654    1.424   1_554 S
C134   O172    1.402   .     S
C134   H145    1.109   .     S
C134   H144    1.102   .     S
C134   H156    1.113   .     S
C135   H147    1.108   .     S
C135   H148    1.109   .     S
C135   O164    1.401   .     S
C135   H146    1.105   .     S
C136   C138    1.386   .     A
C136   I157    2.138   .     S
C137   C139    1.395   .     A
C137   I158    2.139   .     S
C138   H143    1.084   .     S
C138   C652    1.387   1_554 S
C139   H149    1.084   .     S
C139   C653    1.385   .     S
C140   I159    2.133   .     S
C140   C257    1.339   .     S
C141   I160    2.132   .     S
C141   C372    1.339   1_645 S
C142   O170    1.304   .     A
H153   C7      1.082   1_655 S
N161   N162    1.292   .     D
N161   Zn174   2.028   .     S
N161   O172    1.343   .     S
N162   O164    1.345   .     S
N162   Zn173   2.028   .     S
O163   Zn173   1.963   .     S
O163   C1      1.275   1_655 S
O165   Zn174   1.963   .     S
O166   Zn174   1.969   .     S
O167   Zn173   1.969   .     S
O168   Zn173   1.935   .     S
O168   C26     1.295   1_655 S
O169   Zn174   1.935   .     S
O170   Zn174   1.887   .     S
O171   Zn173   1.887   .     S
C175   O224    1.293   .     A
C175   C198    1.396   .     S
C175   O337    1.275   1_455 S
C176   C178    1.455   .     S
C176   O229    1.304   .     A
C176   O285    1.295   .     S
C177   C183    1.386   .     A
C177   C200    1.452   .     S
C177   C181    1.397   .     A
C178   C184    1.390   .     A
C178   C240    1.402   .     S
C179   C188    1.405   .     A
C179   H212    1.084   .     S
C179   C181    1.391   .     A
C180   C189    1.402   .     A
C180   C240    1.392   .     S
C180   H271    1.084   .     S
C181   H327    1.082   1_455 S
C182   H210    1.082   .     S
C182   C294    1.402   1_455 S
C182   C296    1.392   1_455 S
C183   C185    1.393   .     A
C183   H209    1.070   .     S
C184   H208    1.081   .     S
C184   C187    1.394   .     A
C185   C188    1.422   .     A
C185   C190    1.424   .     A
C186   C199    1.399   .     S
C186   O225    1.297   .     A
C186   O281    1.273   .     S
C187   C191    1.408   .     A
C187   C189    1.409   .     A
C188   C718    1.387   .     S
C189   C719    1.385   1_554 S
C190   C195    1.441   .     A
C190   C713    1.424   .     S
C191   C194    1.423   .     A
C191   C712    1.424   1_554 S
C192   O230    1.402   .     S
C192   H203    1.109   .     S
C192   H202    1.102   .     S
C192   H214    1.113   .     S
C193   H205    1.108   .     S
C193   H206    1.109   .     S
C193   O222    1.401   .     S
C193   H204    1.105   .     S
C194   C196    1.386   .     A
C194   I215    2.138   .     S
C195   C197    1.395   .     A
C195   I216    2.139   .     S
C196   H201    1.084   .     S
C196   C710    1.387   1_554 S
C197   H207    1.084   .     S
C197   C711    1.385   .     S
C198   I217    2.133   .     S
C198   C489    1.339   1_455 S
C199   I218    2.132   .     S
C200   O228    1.304   .     A
C200   O342    1.295   1_455 S
H211   C239    1.082   .     S
H213   C296    1.084   1_455 S
N219   N220    1.292   .     D
N219   Zn232   2.028   .     S
N219   O230    1.343   .     S
N220   O222    1.345   .     S
N220   Zn231   2.028   .     S
O221   Zn231   1.963   .     S
O221   C233    1.275   .     S
O223   Zn232   1.963   .     S
O223   C302    1.273   1_455 S
O224   Zn232   1.969   .     S
O225   Zn231   1.969   .     S
O226   Zn231   1.935   .     S
O226   C258    1.295   .     S
O227   Zn232   1.935   .     S
O227   C292    1.295   1_455 S
O228   Zn232   1.887   .     S
O229   Zn231   1.887   .     S
C233   O282    1.293   .     A
C233   C256    1.396   .     S
C234   C236    1.455   .     S
C234   O287    1.304   .     A
C234   O343    1.295   .     S
C235   C241    1.386   .     A
C235   C258    1.452   .     S
C235   C239    1.397   .     A
C236   C242    1.390   .     A
C236   C298    1.402   .     S
C237   C246    1.405   .     A
C237   H270    1.084   .     S
C237   C239    1.391   .     A
C238   C247    1.402   .     A
C238   C298    1.392   .     S
C238   H329    1.084   .     S
C240   H268    1.082   .     S
C241   C243    1.393   .     A
C241   H267    1.070   .     S
C242   H266    1.081   .     S
C242   C245    1.394   .     A
C243   C246    1.422   .     A
C243   C248    1.424   .     A
C244   C257    1.399   .     S
C244   O283    1.297   .     A
C244   O339    1.273   .     S
C245   C249    1.408   .     A
C245   C247    1.409   .     A
C246   C776    1.387   .     S
C247   C777    1.385   1_554 S
C248   C253    1.441   .     A
C248   C771    1.424   .     S
C249   C252    1.423   .     A
C249   C770    1.424   1_554 S
C250   O288    1.402   .     S
C250   H261    1.109   .     S
C250   H260    1.102   .     S
C250   H272    1.113   .     S
C251   H263    1.108   .     S
C251   H264    1.109   .     S
C251   O280    1.401   .     S
C251   H262    1.105   .     S
C252   C254    1.386   .     A
C252   I273    2.138   .     S
C253   C255    1.395   .     A
C253   I274    2.139   .     S
C254   H259    1.084   .     S
C254   C768    1.387   1_554 S
C255   H265    1.084   .     S
C255   C769    1.385   .     S
C256   I275    2.133   .     S
C256   C373    1.339   .     S
C257   I276    2.132   .     S
C258   O286    1.304   .     A
H269   C297    1.082   .     S
N277   N278    1.292   .     D
N277   Zn290   2.028   .     S
N277   O288    1.343   .     S
N278   O280    1.345   .     S
N278   Zn289   2.028   .     S
O279   Zn289   1.963   .     S
O279   C291    1.275   .     S
O281   Zn290   1.963   .     S
O282   Zn290   1.969   .     S
O283   Zn289   1.969   .     S
O284   Zn289   1.935   .     S
O284   C316    1.295   .     S
O285   Zn290   1.935   .     S
O286   Zn290   1.887   .     S
O287   Zn289   1.887   .     S
C291   O340    1.293   .     A
C291   C314    1.396   .     S
C292   C294    1.455   .     S
C292   O345    1.304   .     A
C292   O227    1.295   1_655 S
C293   C299    1.386   .     A
C293   C316    1.452   .     S
C293   C297    1.397   .     A
C294   C300    1.390   .     A
C294   C182    1.402   1_655 S
C295   C304    1.405   .     A
C295   H328    1.084   .     S
C295   C297    1.391   .     A
C296   C305    1.402   .     A
C296   C182    1.392   1_655 S
C296   H213    1.084   1_655 S
C298   H326    1.082   .     S
C299   C301    1.393   .     A
C299   H325    1.070   .     S
C300   H324    1.081   .     S
C300   C303    1.394   .     A
C301   C304    1.422   .     A
C301   C306    1.424   .     A
C302   C315    1.399   .     S
C302   O341    1.297   .     A
C302   O223    1.273   1_655 S
C303   C307    1.408   .     A
C303   C305    1.409   .     A
C304   C834    1.387   .     S
C305   C835    1.385   1_554 S
C306   C311    1.441   .     A
C306   C829    1.424   .     S
C307   C310    1.423   .     A
C307   C828    1.424   1_554 S
C308   O346    1.402   .     S
C308   H319    1.109   .     S
C308   H318    1.102   .     S
C308   H330    1.113   .     S
C309   H321    1.108   .     S
C309   H322    1.109   .     S
C309   O338    1.401   .     S
C309   H320    1.105   .     S
C310   C312    1.386   .     A
C310   I331    2.138   .     S
C311   C313    1.395   .     A
C311   I332    2.139   .     S
C312   H317    1.084   .     S
C312   C826    1.387   1_554 S
C313   H323    1.084   .     S
C313   C827    1.385   .     S
C314   I333    2.133   .     S
C314   C431    1.339   .     S
C315   I334    2.132   .     S
C315   C24     1.339   1_655 S
C316   O344    1.304   .     A
H327   C181    1.082   1_655 S
N335   N336    1.292   .     D
N335   Zn348   2.028   .     S
N335   O346    1.343   .     S
N336   O338    1.345   .     S
N336   Zn347   2.028   .     S
O337   Zn347   1.963   .     S
O337   C175    1.275   1_655 S
O339   Zn348   1.963   .     S
O340   Zn348   1.969   .     S
O341   Zn347   1.969   .     S
O342   Zn347   1.935   .     S
O342   C200    1.295   1_655 S
O343   Zn348   1.935   .     S
O344   Zn348   1.887   .     S
O345   Zn347   1.887   .     S
C349   O398    1.293   .     A
C349   C372    1.396   .     S
C349   O511    1.275   1_455 S
C350   C352    1.455   .     S
C350   O403    1.304   .     A
C350   O459    1.295   .     S
C351   C357    1.386   .     A
C351   C374    1.452   .     S
C351   C355    1.397   .     A
C352   C358    1.390   .     A
C352   C414    1.402   .     S
C353   C362    1.405   .     A
C353   H386    1.084   .     S
C353   C355    1.391   .     A
C354   C363    1.402   .     A
C354   C414    1.392   .     S
C354   H445    1.084   .     S
C355   H501    1.082   1_455 S
C356   H384    1.082   .     S
C356   C468    1.402   1_455 S
C356   C470    1.392   1_455 S
C357   C359    1.393   .     A
C357   H383    1.070   .     S
C358   H382    1.081   .     S
C358   C361    1.394   .     A
C359   C362    1.422   .     A
C359   C364    1.424   .     A
C360   C373    1.399   .     S
C360   O399    1.297   .     A
C360   O455    1.273   .     S
C361   C365    1.408   .     A
C361   C363    1.409   .     A
C362   C892    1.387   .     S
C363   C893    1.385   1_554 S
C364   C369    1.441   .     A
C364   C887    1.424   .     S
C365   C368    1.423   .     A
C365   C886    1.424   1_554 S
C366   O404    1.402   .     S
C366   H377    1.109   .     S
C366   H376    1.102   .     S
C366   H388    1.113   .     S
C367   H379    1.108   .     S
C367   H380    1.109   .     S
C367   O396    1.401   .     S
C367   H378    1.105   .     S
C368   C370    1.386   .     A
C368   I389    2.138   .     S
C369   C371    1.395   .     A
C369   I390    2.139   .     S
C370   H375    1.084   .     S
C370   C884    1.387   1_554 S
C371   H381    1.084   .     S
C371   C885    1.385   .     S
C372   I391    2.133   .     S
C372   C141    1.339   1_465 S
C373   I392    2.132   .     S
C374   O402    1.304   .     A
C374   O516    1.295   1_455 S
H385   C413    1.082   .     S
H387   C470    1.084   1_455 S
N393   N394    1.292   .     D
N393   Zn406   2.028   .     S
N393   O404    1.343   .     S
N394   O396    1.345   .     S
N394   Zn405   2.028   .     S
O395   Zn405   1.963   .     S
O395   C407    1.275   .     S
O397   Zn406   1.963   .     S
O397   C476    1.273   1_455 S
O398   Zn406   1.969   .     S
O399   Zn405   1.969   .     S
O400   Zn405   1.935   .     S
O400   C432    1.295   .     S
O401   Zn406   1.935   .     S
O401   C466    1.295   1_455 S
O402   Zn406   1.887   .     S
O403   Zn405   1.887   .     S
C407   O456    1.293   .     A
C407   C430    1.396   .     S
C408   C410    1.455   .     S
C408   O461    1.304   .     A
C408   O517    1.295   .     S
C409   C415    1.386   .     A
C409   C432    1.452   .     S
C409   C413    1.397   .     A
C410   C416    1.390   .     A
C410   C472    1.402   .     S
C411   C420    1.405   .     A
C411   H444    1.084   .     S
C411   C413    1.391   .     A
C412   C421    1.402   .     A
C412   C472    1.392   .     S
C412   H503    1.084   .     S
C414   H442    1.082   .     S
C415   C417    1.393   .     A
C415   H441    1.070   .     S
C416   H440    1.081   .     S
C416   C419    1.394   .     A
C417   C420    1.422   .     A
C417   C422    1.424   .     A
C418   C431    1.399   .     S
C418   O457    1.297   .     A
C418   O513    1.273   .     S
C419   C423    1.408   .     A
C419   C421    1.409   .     A
C420   C950    1.387   .     S
C421   C951    1.385   1_554 S
C422   C427    1.441   .     A
C422   C945    1.424   .     S
C423   C426    1.423   .     A
C423   C944    1.424   1_554 S
C424   O462    1.402   .     S
C424   H435    1.109   .     S
C424   H434    1.102   .     S
C424   H446    1.113   .     S
C425   H437    1.108   .     S
C425   H438    1.109   .     S
C425   O454    1.401   .     S
C425   H436    1.105   .     S
C426   C428    1.386   .     A
C426   I447    2.138   .     S
C427   C429    1.395   .     A
C427   I448    2.139   .     S
C428   H433    1.084   .     S
C428   C942    1.387   1_554 S
C429   H439    1.084   .     S
C429   C943    1.385   .     S
C430   I449    2.133   .     S
C430   C25     1.339   1_565 S
C431   I450    2.132   .     S
C432   O460    1.304   .     A
H443   C471    1.082   .     S
N451   N452    1.292   .     D
N451   Zn464   2.028   .     S
N451   O462    1.343   .     S
N452   O454    1.345   .     S
N452   Zn463   2.028   .     S
O453   Zn463   1.963   .     S
O453   C465    1.275   .     S
O455   Zn464   1.963   .     S
O456   Zn464   1.969   .     S
O457   Zn463   1.969   .     S
O458   Zn463   1.935   .     S
O458   C490    1.295   .     S
O459   Zn464   1.935   .     S
O460   Zn464   1.887   .     S
O461   Zn463   1.887   .     S
C465   O514    1.293   .     A
C465   C488    1.396   .     S
C466   C468    1.455   .     S
C466   O519    1.304   .     A
C466   O401    1.295   1_655 S
C467   C473    1.386   .     A
C467   C490    1.452   .     S
C467   C471    1.397   .     A
C468   C474    1.390   .     A
C468   C356    1.402   1_655 S
C469   C478    1.405   .     A
C469   H502    1.084   .     S
C469   C471    1.391   .     A
C470   C479    1.402   .     A
C470   C356    1.392   1_655 S
C470   H387    1.084   1_655 S
C472   H500    1.082   .     S
C473   C475    1.393   .     A
C473   H499    1.070   .     S
C474   H498    1.081   .     S
C474   C477    1.394   .     A
C475   C478    1.422   .     A
C475   C480    1.424   .     A
C476   C489    1.399   .     S
C476   O515    1.297   .     A
C476   O397    1.273   1_655 S
C477   C481    1.408   .     A
C477   C479    1.409   .     A
C478   C1008   1.387   .     S
C479   C1009   1.385   1_554 S
C480   C485    1.441   .     A
C480   C1003   1.424   .     S
C481   C484    1.423   .     A
C481   C1002   1.424   1_554 S
C482   O520    1.402   .     S
C482   H493    1.109   .     S
C482   H492    1.102   .     S
C482   H504    1.113   .     S
C483   H495    1.108   .     S
C483   H496    1.109   .     S
C483   O512    1.401   .     S
C483   H494    1.105   .     S
C484   C486    1.386   .     A
C484   I505    2.138   .     S
C485   C487    1.395   .     A
C485   I506    2.139   .     S
C486   H491    1.084   .     S
C486   C1000   1.387   1_554 S
C487   H497    1.084   .     S
C487   C1001   1.385   .     S
C488   I507    2.133   .     S
C488   C83     1.339   1_565 S
C489   I508    2.132   .     S
C489   C198    1.339   1_655 S
C490   O518    1.304   .     A
H501   C355    1.082   1_655 S
N509   N510    1.292   .     D
N509   Zn522   2.028   .     S
N509   O520    1.343   .     S
N510   O512    1.345   .     S
N510   Zn521   2.028   .     S
O511   Zn521   1.963   .     S
O511   C349    1.275   1_655 S
O513   Zn522   1.963   .     S
O514   Zn522   1.969   .     S
O515   Zn521   1.969   .     S
O516   Zn521   1.935   .     S
O516   C374    1.295   1_655 S
O517   Zn522   1.935   .     S
O518   Zn522   1.887   .     S
O519   Zn521   1.887   .     S
C523   O572    1.293   .     A
C523   C546    1.396   .     S
C523   O685    1.275   1_455 S
C524   C526    1.455   .     S
C524   O577    1.304   .     A
C524   O633    1.295   .     S
C525   C531    1.386   .     A
C525   C548    1.452   .     S
C525   C529    1.397   .     A
C526   C532    1.390   .     A
C526   C588    1.402   .     S
C527   C536    1.405   .     A
C527   H560    1.084   .     S
C527   C529    1.391   .     A
C528   C537    1.402   .     A
C528   C588    1.392   .     S
C528   H619    1.084   .     S
C529   H675    1.082   1_455 S
C530   H558    1.082   .     S
C530   C642    1.402   1_455 S
C530   C644    1.392   1_455 S
C531   C533    1.393   .     A
C531   H557    1.070   .     S
C532   H556    1.081   .     S
C532   C535    1.394   .     A
C533   C536    1.422   .     A
C533   C538    1.424   .     A
C534   C547    1.399   .     S
C534   O573    1.297   .     A
C534   O629    1.273   .     S
C535   C539    1.408   .     A
C535   C537    1.409   .     A
C536   C22     1.387   1_556 S
C538   C543    1.441   .     A
C538   C17     1.424   1_556 S
C539   C542    1.423   .     A
C540   O578    1.402   .     S
C540   H551    1.109   .     S
C540   H550    1.102   .     S
C540   H562    1.113   .     S
C541   H553    1.108   .     S
C541   H554    1.109   .     S
C541   O570    1.401   .     S
C541   H552    1.105   .     S
C542   C544    1.386   .     A
C542   I563    2.138   .     S
C543   C545    1.395   .     A
C543   I564    2.139   .     S
C544   H549    1.084   .     S
C545   H555    1.084   .     S
C545   C15     1.385   1_556 S
C546   I565    2.133   .     S
C546   C837    1.339   1_455 S
C547   I566    2.132   .     S
C547   C952    1.339   1_545 S
C548   O576    1.304   .     A
C548   O690    1.295   1_455 S
H559   C587    1.082   .     S
H561   C644    1.084   1_455 S
N567   N568    1.292   .     D
N567   Zn580   2.028   .     S
N567   O578    1.343   .     S
N568   O570    1.345   .     S
N568   Zn579   2.028   .     S
O569   Zn579   1.963   .     S
O569   C581    1.275   .     S
O571   Zn580   1.963   .     S
O571   C650    1.273   1_455 S
O572   Zn580   1.969   .     S
O573   Zn579   1.969   .     S
O574   Zn579   1.935   .     S
O574   C606    1.295   .     S
O575   Zn580   1.935   .     S
O575   C640    1.295   1_455 S
O576   Zn580   1.887   .     S
O577   Zn579   1.887   .     S
C581   O630    1.293   .     A
C581   C604    1.396   .     S
C582   C584    1.455   .     S
C582   O635    1.304   .     A
C582   O691    1.295   .     S
C583   C589    1.386   .     A
C583   C606    1.452   .     S
C583   C587    1.397   .     A
C584   C590    1.390   .     A
C584   C646    1.402   .     S
C585   C594    1.405   .     A
C585   H618    1.084   .     S
C585   C587    1.391   .     A
C586   C595    1.402   .     A
C586   C646    1.392   .     S
C586   H677    1.084   .     S
C588   H616    1.082   .     S
C589   C591    1.393   .     A
C589   H615    1.070   .     S
C590   H614    1.081   .     S
C590   C593    1.394   .     A
C591   C594    1.422   .     A
C591   C596    1.424   .     A
C592   C605    1.399   .     S
C592   O631    1.297   .     A
C592   O687    1.273   .     S
C593   C597    1.408   .     A
C593   C595    1.409   .     A
C594   C80     1.387   1_556 S
C596   C601    1.441   .     A
C596   C75     1.424   1_556 S
C597   C600    1.423   .     A
C598   O636    1.402   .     S
C598   H609    1.109   .     S
C598   H608    1.102   .     S
C598   H620    1.113   .     S
C599   H611    1.108   .     S
C599   H612    1.109   .     S
C599   O628    1.401   .     S
C599   H610    1.105   .     S
C600   C602    1.386   .     A
C600   I621    2.138   .     S
C601   C603    1.395   .     A
C601   I622    2.139   .     S
C602   H607    1.084   .     S
C603   H613    1.084   .     S
C603   C73     1.385   1_556 S
C604   I623    2.133   .     S
C604   C721    1.339   .     S
C605   I624    2.132   .     S
C605   C1010   1.339   1_545 S
C606   O634    1.304   .     A
H617   C645    1.082   .     S
N625   N626    1.292   .     D
N625   Zn638   2.028   .     S
N625   O636    1.343   .     S
N626   O628    1.345   .     S
N626   Zn637   2.028   .     S
O627   Zn637   1.963   .     S
O627   C639    1.275   .     S
O629   Zn638   1.963   .     S
O630   Zn638   1.969   .     S
O631   Zn637   1.969   .     S
O632   Zn637   1.935   .     S
O632   C664    1.295   .     S
O633   Zn638   1.935   .     S
O634   Zn638   1.887   .     S
O635   Zn637   1.887   .     S
C639   O688    1.293   .     A
C639   C662    1.396   .     S
C640   C642    1.455   .     S
C640   O693    1.304   .     A
C640   O575    1.295   1_655 S
C641   C647    1.386   .     A
C641   C664    1.452   .     S
C641   C645    1.397   .     A
C642   C648    1.390   .     A
C642   C530    1.402   1_655 S
C643   C652    1.405   .     A
C643   H676    1.084   .     S
C643   C645    1.391   .     A
C644   C653    1.402   .     A
C644   C530    1.392   1_655 S
C644   H561    1.084   1_655 S
C646   H674    1.082   .     S
C647   C649    1.393   .     A
C647   H673    1.070   .     S
C648   H672    1.081   .     S
C648   C651    1.394   .     A
C649   C652    1.422   .     A
C649   C654    1.424   .     A
C650   C663    1.399   .     S
C650   O689    1.297   .     A
C650   O571    1.273   1_655 S
C651   C655    1.408   .     A
C651   C653    1.409   .     A
C652   C138    1.387   1_556 S
C654   C659    1.441   .     A
C654   C133    1.424   1_556 S
C655   C658    1.423   .     A
C656   O694    1.402   .     S
C656   H667    1.109   .     S
C656   H666    1.102   .     S
C656   H678    1.113   .     S
C657   H669    1.108   .     S
C657   H670    1.109   .     S
C657   O686    1.401   .     S
C657   H668    1.105   .     S
C658   C660    1.386   .     A
C658   I679    2.138   .     S
C659   C661    1.395   .     A
C659   I680    2.139   .     S
C660   H665    1.084   .     S
C661   H671    1.084   .     S
C661   C131    1.385   1_556 S
C662   I681    2.133   .     S
C662   C779    1.339   .     S
C663   I682    2.132   .     S
C663   C894    1.339   1_645 S
C664   O692    1.304   .     A
H675   C529    1.082   1_655 S
N683   N684    1.292   .     D
N683   Zn696   2.028   .     S
N683   O694    1.343   .     S
N684   O686    1.345   .     S
N684   Zn695   2.028   .     S
O685   Zn695   1.963   .     S
O685   C523    1.275   1_655 S
O687   Zn696   1.963   .     S
O688   Zn696   1.969   .     S
O689   Zn695   1.969   .     S
O690   Zn695   1.935   .     S
O690   C548    1.295   1_655 S
O691   Zn696   1.935   .     S
O692   Zn696   1.887   .     S
O693   Zn695   1.887   .     S
C697   O746    1.293   .     A
C697   C720    1.396   .     S
C697   O859    1.275   1_455 S
C698   C700    1.455   .     S
C698   O751    1.304   .     A
C698   O807    1.295   .     S
C699   C705    1.386   .     A
C699   C722    1.452   .     S
C699   C703    1.397   .     A
C700   C706    1.390   .     A
C700   C762    1.402   .     S
C701   C710    1.405   .     A
C701   H734    1.084   .     S
C701   C703    1.391   .     A
C702   C711    1.402   .     A
C702   C762    1.392   .     S
C702   H793    1.084   .     S
C703   H849    1.082   1_455 S
C704   H732    1.082   .     S
C704   C816    1.402   1_455 S
C704   C818    1.392   1_455 S
C705   C707    1.393   .     A
C705   H731    1.070   .     S
C706   H730    1.081   .     S
C706   C709    1.394   .     A
C707   C710    1.422   .     A
C707   C712    1.424   .     A
C708   C721    1.399   .     S
C708   O747    1.297   .     A
C708   O803    1.273   .     S
C709   C713    1.408   .     A
C709   C711    1.409   .     A
C710   C196    1.387   1_556 S
C712   C717    1.441   .     A
C712   C191    1.424   1_556 S
C713   C716    1.423   .     A
C714   O752    1.402   .     S
C714   H725    1.109   .     S
C714   H724    1.102   .     S
C714   H736    1.113   .     S
C715   H727    1.108   .     S
C715   H728    1.109   .     S
C715   O744    1.401   .     S
C715   H726    1.105   .     S
C716   C718    1.386   .     A
C716   I737    2.138   .     S
C717   C719    1.395   .     A
C717   I738    2.139   .     S
C718   H723    1.084   .     S
C719   H729    1.084   .     S
C719   C189    1.385   1_556 S
C720   I739    2.133   .     S
C720   C1011   1.339   1_455 S
C721   I740    2.132   .     S
C722   O750    1.304   .     A
C722   O864    1.295   1_455 S
H733   C761    1.082   .     S
H735   C818    1.084   1_455 S
N741   N742    1.292   .     D
N741   Zn754   2.028   .     S
N741   O752    1.343   .     S
N742   O744    1.345   .     S
N742   Zn753   2.028   .     S
O743   Zn753   1.963   .     S
O743   C755    1.275   .     S
O745   Zn754   1.963   .     S
O745   C824    1.273   1_455 S
O746   Zn754   1.969   .     S
O747   Zn753   1.969   .     S
O748   Zn753   1.935   .     S
O748   C780    1.295   .     S
O749   Zn754   1.935   .     S
O749   C814    1.295   1_455 S
O750   Zn754   1.887   .     S
O751   Zn753   1.887   .     S
C755   O804    1.293   .     A
C755   C778    1.396   .     S
C756   C758    1.455   .     S
C756   O809    1.304   .     A
C756   O865    1.295   .     S
C757   C763    1.386   .     A
C757   C780    1.452   .     S
C757   C761    1.397   .     A
C758   C764    1.390   .     A
C758   C820    1.402   .     S
C759   C768    1.405   .     A
C759   H792    1.084   .     S
C759   C761    1.391   .     A
C760   C769    1.402   .     A
C760   C820    1.392   .     S
C760   H851    1.084   .     S
C762   H790    1.082   .     S
C763   C765    1.393   .     A
C763   H789    1.070   .     S
C764   H788    1.081   .     S
C764   C767    1.394   .     A
C765   C768    1.422   .     A
C765   C770    1.424   .     A
C766   C779    1.399   .     S
C766   O805    1.297   .     A
C766   O861    1.273   .     S
C767   C771    1.408   .     A
C767   C769    1.409   .     A
C768   C254    1.387   1_556 S
C770   C775    1.441   .     A
C770   C249    1.424   1_556 S
C771   C774    1.423   .     A
C772   O810    1.402   .     S
C772   H783    1.109   .     S
C772   H782    1.102   .     S
C772   H794    1.113   .     S
C773   H785    1.108   .     S
C773   H786    1.109   .     S
C773   O802    1.401   .     S
C773   H784    1.105   .     S
C774   C776    1.386   .     A
C774   I795    2.138   .     S
C775   C777    1.395   .     A
C775   I796    2.139   .     S
C776   H781    1.084   .     S
C777   H787    1.084   .     S
C777   C247    1.385   1_556 S
C778   I797    2.133   .     S
C778   C895    1.339   .     S
C779   I798    2.132   .     S
C780   O808    1.304   .     A
H791   C819    1.082   .     S
N799   N800    1.292   .     D
N799   Zn812   2.028   .     S
N799   O810    1.343   .     S
N800   O802    1.345   .     S
N800   Zn811   2.028   .     S
O801   Zn811   1.963   .     S
O801   C813    1.275   .     S
O803   Zn812   1.963   .     S
O804   Zn812   1.969   .     S
O805   Zn811   1.969   .     S
O806   Zn811   1.935   .     S
O806   C838    1.295   .     S
O807   Zn812   1.935   .     S
O808   Zn812   1.887   .     S
O809   Zn811   1.887   .     S
C813   O862    1.293   .     A
C813   C836    1.396   .     S
C814   C816    1.455   .     S
C814   O867    1.304   .     A
C814   O749    1.295   1_655 S
C815   C821    1.386   .     A
C815   C838    1.452   .     S
C815   C819    1.397   .     A
C816   C822    1.390   .     A
C816   C704    1.402   1_655 S
C817   C826    1.405   .     A
C817   H850    1.084   .     S
C817   C819    1.391   .     A
C818   C827    1.402   .     A
C818   C704    1.392   1_655 S
C818   H735    1.084   1_655 S
C820   H848    1.082   .     S
C821   C823    1.393   .     A
C821   H847    1.070   .     S
C822   H846    1.081   .     S
C822   C825    1.394   .     A
C823   C826    1.422   .     A
C823   C828    1.424   .     A
C824   C837    1.399   .     S
C824   O863    1.297   .     A
C824   O745    1.273   1_655 S
C825   C829    1.408   .     A
C825   C827    1.409   .     A
C826   C312    1.387   1_556 S
C828   C833    1.441   .     A
C828   C307    1.424   1_556 S
C829   C832    1.423   .     A
C830   O868    1.402   .     S
C830   H841    1.109   .     S
C830   H840    1.102   .     S
C830   H852    1.113   .     S
C831   H843    1.108   .     S
C831   H844    1.109   .     S
C831   O860    1.401   .     S
C831   H842    1.105   .     S
C832   C834    1.386   .     A
C832   I853    2.138   .     S
C833   C835    1.395   .     A
C833   I854    2.139   .     S
C834   H839    1.084   .     S
C835   H845    1.084   .     S
C835   C305    1.385   1_556 S
C836   I855    2.133   .     S
C836   C953    1.339   .     S
C837   I856    2.132   .     S
C837   C546    1.339   1_655 S
C838   O866    1.304   .     A
H849   C703    1.082   1_655 S
N857   N858    1.292   .     D
N857   Zn870   2.028   .     S
N857   O868    1.343   .     S
N858   O860    1.345   .     S
N858   Zn869   2.028   .     S
O859   Zn869   1.963   .     S
O859   C697    1.275   1_655 S
O861   Zn870   1.963   .     S
O862   Zn870   1.969   .     S
O863   Zn869   1.969   .     S
O864   Zn869   1.935   .     S
O864   C722    1.295   1_655 S
O865   Zn870   1.935   .     S
O866   Zn870   1.887   .     S
O867   Zn869   1.887   .     S
C871   O920    1.293   .     A
C871   C894    1.396   .     S
C871   O1033   1.275   1_455 S
C872   C874    1.455   .     S
C872   O925    1.304   .     A
C872   O981    1.295   .     S
C873   C879    1.386   .     A
C873   C896    1.452   .     S
C873   C877    1.397   .     A
C874   C880    1.390   .     A
C874   C936    1.402   .     S
C875   C884    1.405   .     A
C875   H908    1.084   .     S
C875   C877    1.391   .     A
C876   C885    1.402   .     A
C876   C936    1.392   .     S
C876   H967    1.084   .     S
C877   H1023   1.082   1_455 S
C878   H906    1.082   .     S
C878   C990    1.402   1_455 S
C878   C992    1.392   1_455 S
C879   C881    1.393   .     A
C879   H905    1.070   .     S
C880   H904    1.081   .     S
C880   C883    1.394   .     A
C881   C884    1.422   .     A
C881   C886    1.424   .     A
C882   C895    1.399   .     S
C882   O921    1.297   .     A
C882   O977    1.273   .     S
C883   C887    1.408   .     A
C883   C885    1.409   .     A
C884   C370    1.387   1_556 S
C886   C891    1.441   .     A
C886   C365    1.424   1_556 S
C887   C890    1.423   .     A
C888   O926    1.402   .     S
C888   H899    1.109   .     S
C888   H898    1.102   .     S
C888   H910    1.113   .     S
C889   H901    1.108   .     S
C889   H902    1.109   .     S
C889   O918    1.401   .     S
C889   H900    1.105   .     S
C890   C892    1.386   .     A
C890   I911    2.138   .     S
C891   C893    1.395   .     A
C891   I912    2.139   .     S
C892   H897    1.084   .     S
C893   H903    1.084   .     S
C893   C363    1.385   1_556 S
C894   I913    2.133   .     S
C894   C663    1.339   1_465 S
C895   I914    2.132   .     S
C896   O924    1.304   .     A
C896   O1038   1.295   1_455 S
H907   C935    1.082   .     S
H909   C992    1.084   1_455 S
N915   N916    1.292   .     D
N915   Zn928   2.028   .     S
N915   O926    1.343   .     S
N916   O918    1.345   .     S
N916   Zn927   2.028   .     S
O917   Zn927   1.963   .     S
O917   C929    1.275   .     S
O919   Zn928   1.963   .     S
O919   C998    1.273   1_455 S
O920   Zn928   1.969   .     S
O921   Zn927   1.969   .     S
O922   Zn927   1.935   .     S
O922   C954    1.295   .     S
O923   Zn928   1.935   .     S
O923   C988    1.295   1_455 S
O924   Zn928   1.887   .     S
O925   Zn927   1.887   .     S
C929   O978    1.293   .     A
C929   C952    1.396   .     S
C930   C932    1.455   .     S
C930   O983    1.304   .     A
C930   O1039   1.295   .     S
C931   C937    1.386   .     A
C931   C954    1.452   .     S
C931   C935    1.397   .     A
C932   C938    1.390   .     A
C932   C994    1.402   .     S
C933   C942    1.405   .     A
C933   H966    1.084   .     S
C933   C935    1.391   .     A
C934   C943    1.402   .     A
C934   C994    1.392   .     S
C934   H1025   1.084   .     S
C936   H964    1.082   .     S
C937   C939    1.393   .     A
C937   H963    1.070   .     S
C938   H962    1.081   .     S
C938   C941    1.394   .     A
C939   C942    1.422   .     A
C939   C944    1.424   .     A
C940   C953    1.399   .     S
C940   O979    1.297   .     A
C940   O1035   1.273   .     S
C941   C945    1.408   .     A
C941   C943    1.409   .     A
C942   C428    1.387   1_556 S
C944   C949    1.441   .     A
C944   C423    1.424   1_556 S
C945   C948    1.423   .     A
C946   O984    1.402   .     S
C946   H957    1.109   .     S
C946   H956    1.102   .     S
C946   H968    1.113   .     S
C947   H959    1.108   .     S
C947   H960    1.109   .     S
C947   O976    1.401   .     S
C947   H958    1.105   .     S
C948   C950    1.386   .     A
C948   I969    2.138   .     S
C949   C951    1.395   .     A
C949   I970    2.139   .     S
C950   H955    1.084   .     S
C951   H961    1.084   .     S
C951   C421    1.385   1_556 S
C952   I971    2.133   .     S
C952   C547    1.339   1_565 S
C953   I972    2.132   .     S
C954   O982    1.304   .     A
H965   C993    1.082   .     S
N973   N974    1.292   .     D
N973   Zn986   2.028   .     S
N973   O984    1.343   .     S
N974   O976    1.345   .     S
N974   Zn985   2.028   .     S
O975   Zn985   1.963   .     S
O975   C987    1.275   .     S
O977   Zn986   1.963   .     S
O978   Zn986   1.969   .     S
O979   Zn985   1.969   .     S
O980   Zn985   1.935   .     S
O980   C1012   1.295   .     S
O981   Zn986   1.935   .     S
O982   Zn986   1.887   .     S
O983   Zn985   1.887   .     S
C987   O1036   1.293   .     A
C987   C1010   1.396   .     S
C988   C990    1.455   .     S
C988   O1041   1.304   .     A
C988   O923    1.295   1_655 S
C989   C995    1.386   .     A
C989   C1012   1.452   .     S
C989   C993    1.397   .     A
C990   C996    1.390   .     A
C990   C878    1.402   1_655 S
C991   C1000   1.405   .     A
C991   H1024   1.084   .     S
C991   C993    1.391   .     A
C992   C1001   1.402   .     A
C992   C878    1.392   1_655 S
C992   H909    1.084   1_655 S
C994   H1022   1.082   .     S
C995   C997    1.393   .     A
C995   H1021   1.070   .     S
C996   H1020   1.081   .     S
C996   C999    1.394   .     A
C997   C1000   1.422   .     A
C997   C1002   1.424   .     A
C998   C1011   1.399   .     S
C998   O1037   1.297   .     A
C998   O919    1.273   1_655 S
C999   C1003   1.408   .     A
C999   C1001   1.409   .     A
C1000  C486    1.387   1_556 S
C1002  C1007   1.441   .     A
C1002  C481    1.424   1_556 S
C1003  C1006   1.423   .     A
C1004  O1042   1.402   .     S
C1004  H1015   1.109   .     S
C1004  H1014   1.102   .     S
C1004  H1026   1.113   .     S
C1005  H1017   1.108   .     S
C1005  H1018   1.109   .     S
C1005  O1034   1.401   .     S
C1005  H1016   1.105   .     S
C1006  C1008   1.386   .     A
C1006  I1027   2.138   .     S
C1007  C1009   1.395   .     A
C1007  I1028   2.139   .     S
C1008  H1013   1.084   .     S
C1009  H1019   1.084   .     S
C1009  C479    1.385   1_556 S
C1010  I1029   2.133   .     S
C1010  C605    1.339   1_565 S
C1011  I1030   2.132   .     S
C1011  C720    1.339   1_655 S
C1012  O1040   1.304   .     A
H1023  C877    1.082   1_655 S
N1031  N1032   1.292   .     D
N1031  Zn1044  2.028   .     S
N1031  O1042   1.343   .     S
N1032  O1034   1.345   .     S
N1032  Zn1043  2.028   .     S
O1033  Zn1043  1.963   .     S
O1033  C871    1.275   1_655 S
O1035  Zn1044  1.963   .     S
O1036  Zn1044  1.969   .     S
O1037  Zn1043  1.969   .     S
O1038  Zn1043  1.935   .     S
O1038  C896    1.295   1_655 S
O1039  Zn1044  1.935   .     S
O1040  Zn1044  1.887   .     S
O1041  Zn1043  1.887   .     S
