data_str_m3_o2_o5_pcu_sym.92
_audit_creation_date              2020-01-03
_audit_creation_method            'Materials Studio'
_symmetry_space_group_name_H-M    'P1'
_symmetry_Int_Tables_number       1
_symmetry_cell_setting            triclinic
loop_
_symmetry_equiv_pos_as_xyz
  x,y,z
_cell_length_a                    29.9780
_cell_length_b                    28.5011
_cell_length_c                    26.6749
_cell_angle_alpha                 89.9539
_cell_angle_beta                  90.4516
_cell_angle_gamma                 90.2546
loop_
_atom_site_label
_atom_site_type_symbol
_atom_site_fract_x
_atom_site_fract_y
_atom_site_fract_z
_atom_site_U_iso_or_equiv
_atom_site_adp_type
_atom_site_occupancy
C1     C     0.16390   0.24996   0.16729   0.00000  Uiso   1.00
C2     C     0.21779   0.44738   0.14032   0.00000  Uiso   1.00
C3     C     0.24992   0.25001   0.07292   0.00000  Uiso   1.00
C4     C     0.25004   0.24999   0.26042   0.00000  Uiso   1.00
C5     C     0.25130   0.02658   0.16579   0.00000  Uiso   1.00
C6     C     0.25105   0.47326   0.16587   0.00000  Uiso   1.00
C7     C     0.24993   0.25003   0.02181   0.00000  Uiso   1.00
C8     C     0.24998   0.25001   0.31152   0.00000  Uiso   1.00
C9     C     0.04841   0.29005   0.19278   0.00000  Uiso   1.00
C10    C     0.45195   0.21233   0.19556   0.00000  Uiso   1.00
C11    C     0.45371   0.29032   0.15840   0.00000  Uiso   1.00
C12    C     0.33607   0.25011   0.16731   0.00000  Uiso   1.00
C13    C     0.04578   0.21018   0.16076   0.00000  Uiso   1.00
C14    C     0.09433   0.29008   0.18878   0.00000  Uiso   1.00
C15    C     0.40601   0.21175   0.19146   0.00000  Uiso   1.00
C16    C     0.40774   0.29001   0.15493   0.00000  Uiso   1.00
C17    C     0.09169   0.21002   0.15740   0.00000  Uiso   1.00
C18    C     0.11598   0.25008   0.17085   0.00000  Uiso   1.00
C19    C     0.38394   0.25047   0.17085   0.00000  Uiso   1.00
C20    C     0.02408   0.25027   0.17825   0.00000  Uiso   1.00
C21    C     0.47587   0.25135   0.17840   0.00000  Uiso   1.00
C22    C     0.16052   0.11446   0.08163   0.00000  Uiso   1.00
C23    C     0.22898   0.10200   0.12888   0.00000  Uiso   1.00
C24    C     0.30793   0.37558   0.27541   0.00000  Uiso   1.00
C25    C     0.27555   0.12217   0.29194   0.00000  Uiso   1.00
C26    C     0.19201   0.37543   0.05776   0.00000  Uiso   1.00
C27    C     0.28197   0.39775   0.19320   0.00000  Uiso   1.00
C28    C     0.27151   0.10215   0.20413   0.00000  Uiso   1.00
C29    C     0.21854   0.39783   0.13973   0.00000  Uiso   1.00
C30    C     0.23045   0.05243   0.12732   0.00000  Uiso   1.00
C31    C     0.28374   0.44726   0.19185   0.00000  Uiso   1.00
C32    C     0.27215   0.05257   0.20428   0.00000  Uiso   1.00
H33    H     0.03189   0.32103   0.20686   0.00000  Uiso   1.00
H34    H     0.31085   0.46476   0.21129   0.00000  Uiso   1.00
H35    H     0.28862   0.03490   0.23508   0.00000  Uiso   1.00
H36    H     0.19102   0.46504   0.12067   0.00000  Uiso   1.00
H37    H     0.22478   0.12804   0.05736   0.00000  Uiso   1.00
H38    H     0.14392   0.14276   0.05991   0.00000  Uiso   1.00
H39    H     0.14291   0.10995   0.11781   0.00000  Uiso   1.00
H40    H     0.15804   0.08137   0.05979   0.00000  Uiso   1.00
H41    H     0.34634   0.38055   0.21167   0.00000  Uiso   1.00
H42    H     0.33081   0.35063   0.29446   0.00000  Uiso   1.00
H43    H     0.27312   0.36631   0.28560   0.00000  Uiso   1.00
H44    H     0.46884   0.18229   0.21168   0.00000  Uiso   1.00
H45    H     0.31555   0.41164   0.28891   0.00000  Uiso   1.00
H46    H     0.32832   0.12066   0.24254   0.00000  Uiso   1.00
H47    H     0.23937   0.13052   0.29110   0.00000  Uiso   1.00
H48    H     0.29246   0.14691   0.31809   0.00000  Uiso   1.00
H49    H     0.28026   0.08592   0.30632   0.00000  Uiso   1.00
H50    H     0.15388   0.38093   0.12164   0.00000  Uiso   1.00
H51    H     0.18479   0.41145   0.04401   0.00000  Uiso   1.00
H52    H     0.16876   0.35048   0.03898   0.00000  Uiso   1.00
H53    H     0.22667   0.36595   0.04750   0.00000  Uiso   1.00
H54    H     0.47198   0.32036   0.14426   0.00000  Uiso   1.00
H55    H     0.02720   0.17951   0.14857   0.00000  Uiso   1.00
H56    H     0.11283   0.32112   0.20004   0.00000  Uiso   1.00
H57    H     0.38778   0.18134   0.20474   0.00000  Uiso   1.00
H58    H     0.39090   0.32015   0.13894   0.00000  Uiso   1.00
H59    H     0.10805   0.17902   0.14350   0.00000  Uiso   1.00
H60    H     0.21564   0.03459   0.09554   0.00000  Uiso   1.00
N61    N     0.25000   0.12623   0.16667   0.00000  Uiso   1.00
N62    N     0.25000   0.37376   0.16667   0.00000  Uiso   1.00
N63    N     0.20678   0.12704   0.09012   0.00000  Uiso   1.00
N64    N     0.31403   0.37261   0.22175   0.00000  Uiso   1.00
N65    N     0.29451   0.12714   0.24244   0.00000  Uiso   1.00
N66    N     0.18605   0.37276   0.11147   0.00000  Uiso   1.00
O67    O     0.18453   0.28974   0.16667   0.00000  Uiso   1.00
O68    O     0.31547   0.21026   0.16666   0.00000  Uiso   1.00
O69    O     0.31547   0.28974   0.16666   0.00000  Uiso   1.00
O70    O     0.18453   0.21026   0.16667   0.00000  Uiso   1.00
O71    O     0.25000   0.28973   0.09511   0.00000  Uiso   1.00
O72    O     0.25000   0.21027   0.23822   0.00000  Uiso   1.00
O73    O     0.25000   0.28973   0.23822   0.00000  Uiso   1.00
O74    O     0.25000   0.21027   0.09511   0.00000  Uiso   1.00
Zn75   Zn    0.25000   0.30307   0.16667   0.00000  Uiso   1.00
Zn76   Zn    0.25000   0.19693   0.16667   0.00000  Uiso   1.00
C77    C     0.66390   0.24996   0.16729   0.00000  Uiso   1.00
C78    C     0.71779   0.44738   0.14032   0.00000  Uiso   1.00
C79    C     0.74992   0.25001   0.07292   0.00000  Uiso   1.00
C80    C     0.75004   0.24999   0.26042   0.00000  Uiso   1.00
C81    C     0.75130   0.02658   0.16579   0.00000  Uiso   1.00
C82    C     0.75105   0.47326   0.16587   0.00000  Uiso   1.00
C83    C     0.74993   0.25003   0.02181   0.00000  Uiso   1.00
C84    C     0.74998   0.25001   0.31152   0.00000  Uiso   1.00
C85    C     0.54841   0.29005   0.19278   0.00000  Uiso   1.00
C86    C     0.95195   0.21233   0.19556   0.00000  Uiso   1.00
C87    C     0.95371   0.29032   0.15840   0.00000  Uiso   1.00
C88    C     0.83607   0.25011   0.16731   0.00000  Uiso   1.00
C89    C     0.54578   0.21018   0.16076   0.00000  Uiso   1.00
C90    C     0.59433   0.29008   0.18878   0.00000  Uiso   1.00
C91    C     0.90601   0.21175   0.19146   0.00000  Uiso   1.00
C92    C     0.90774   0.29001   0.15493   0.00000  Uiso   1.00
C93    C     0.59169   0.21002   0.15740   0.00000  Uiso   1.00
C94    C     0.61598   0.25008   0.17085   0.00000  Uiso   1.00
C95    C     0.88394   0.25047   0.17085   0.00000  Uiso   1.00
C96    C     0.52408   0.25027   0.17825   0.00000  Uiso   1.00
C97    C     0.97587   0.25135   0.17840   0.00000  Uiso   1.00
C98    C     0.66052   0.11446   0.08163   0.00000  Uiso   1.00
C99    C     0.72898   0.10200   0.12888   0.00000  Uiso   1.00
C100   C     0.80793   0.37558   0.27541   0.00000  Uiso   1.00
C101   C     0.77555   0.12217   0.29194   0.00000  Uiso   1.00
C102   C     0.69201   0.37543   0.05776   0.00000  Uiso   1.00
C103   C     0.78197   0.39775   0.19320   0.00000  Uiso   1.00
C104   C     0.77151   0.10215   0.20413   0.00000  Uiso   1.00
C105   C     0.71854   0.39783   0.13973   0.00000  Uiso   1.00
C106   C     0.73045   0.05243   0.12732   0.00000  Uiso   1.00
C107   C     0.78374   0.44726   0.19185   0.00000  Uiso   1.00
C108   C     0.77215   0.05257   0.20428   0.00000  Uiso   1.00
H109   H     0.53189   0.32103   0.20686   0.00000  Uiso   1.00
H110   H     0.81085   0.46476   0.21129   0.00000  Uiso   1.00
H111   H     0.78862   0.03490   0.23508   0.00000  Uiso   1.00
H112   H     0.69102   0.46504   0.12067   0.00000  Uiso   1.00
H113   H     0.72478   0.12804   0.05736   0.00000  Uiso   1.00
H114   H     0.64392   0.14276   0.05991   0.00000  Uiso   1.00
H115   H     0.64291   0.10995   0.11781   0.00000  Uiso   1.00
H116   H     0.65804   0.08137   0.05979   0.00000  Uiso   1.00
H117   H     0.84634   0.38055   0.21167   0.00000  Uiso   1.00
H118   H     0.83081   0.35063   0.29446   0.00000  Uiso   1.00
H119   H     0.77312   0.36631   0.28560   0.00000  Uiso   1.00
H120   H     0.96884   0.18229   0.21168   0.00000  Uiso   1.00
H121   H     0.81555   0.41164   0.28891   0.00000  Uiso   1.00
H122   H     0.82832   0.12066   0.24254   0.00000  Uiso   1.00
H123   H     0.73937   0.13052   0.29110   0.00000  Uiso   1.00
H124   H     0.79246   0.14691   0.31809   0.00000  Uiso   1.00
H125   H     0.78026   0.08592   0.30632   0.00000  Uiso   1.00
H126   H     0.65388   0.38093   0.12164   0.00000  Uiso   1.00
H127   H     0.68479   0.41145   0.04401   0.00000  Uiso   1.00
H128   H     0.66876   0.35048   0.03898   0.00000  Uiso   1.00
H129   H     0.72667   0.36595   0.04750   0.00000  Uiso   1.00
H130   H     0.97198   0.32036   0.14426   0.00000  Uiso   1.00
H131   H     0.52720   0.17951   0.14857   0.00000  Uiso   1.00
H132   H     0.61283   0.32112   0.20004   0.00000  Uiso   1.00
H133   H     0.88778   0.18134   0.20474   0.00000  Uiso   1.00
H134   H     0.89090   0.32015   0.13894   0.00000  Uiso   1.00
H135   H     0.60805   0.17902   0.14350   0.00000  Uiso   1.00
H136   H     0.71564   0.03459   0.09554   0.00000  Uiso   1.00
N137   N     0.75000   0.12623   0.16667   0.00000  Uiso   1.00
N138   N     0.75000   0.37376   0.16667   0.00000  Uiso   1.00
N139   N     0.70678   0.12704   0.09012   0.00000  Uiso   1.00
N140   N     0.81403   0.37261   0.22175   0.00000  Uiso   1.00
N141   N     0.79451   0.12714   0.24244   0.00000  Uiso   1.00
N142   N     0.68605   0.37276   0.11147   0.00000  Uiso   1.00
O143   O     0.68453   0.28974   0.16667   0.00000  Uiso   1.00
O144   O     0.81547   0.21026   0.16666   0.00000  Uiso   1.00
O145   O     0.81547   0.28974   0.16666   0.00000  Uiso   1.00
O146   O     0.68453   0.21026   0.16667   0.00000  Uiso   1.00
O147   O     0.75000   0.28973   0.09511   0.00000  Uiso   1.00
O148   O     0.75000   0.21027   0.23822   0.00000  Uiso   1.00
O149   O     0.75000   0.28973   0.23822   0.00000  Uiso   1.00
O150   O     0.75000   0.21027   0.09511   0.00000  Uiso   1.00
Zn151  Zn    0.75000   0.30307   0.16667   0.00000  Uiso   1.00
Zn152  Zn    0.75000   0.19693   0.16667   0.00000  Uiso   1.00
C153   C     0.16390   0.74996   0.16729   0.00000  Uiso   1.00
C154   C     0.21779   0.94738   0.14032   0.00000  Uiso   1.00
C155   C     0.24992   0.75001   0.07292   0.00000  Uiso   1.00
C156   C     0.25004   0.74999   0.26042   0.00000  Uiso   1.00
C157   C     0.25130   0.52658   0.16579   0.00000  Uiso   1.00
C158   C     0.25105   0.97326   0.16587   0.00000  Uiso   1.00
C159   C     0.24993   0.75003   0.02181   0.00000  Uiso   1.00
C160   C     0.24998   0.75001   0.31152   0.00000  Uiso   1.00
C161   C     0.04841   0.79005   0.19278   0.00000  Uiso   1.00
C162   C     0.45195   0.71233   0.19556   0.00000  Uiso   1.00
C163   C     0.45371   0.79032   0.15840   0.00000  Uiso   1.00
C164   C     0.33607   0.75011   0.16731   0.00000  Uiso   1.00
C165   C     0.04578   0.71018   0.16076   0.00000  Uiso   1.00
C166   C     0.09433   0.79008   0.18878   0.00000  Uiso   1.00
C167   C     0.40601   0.71175   0.19146   0.00000  Uiso   1.00
C168   C     0.40774   0.79001   0.15493   0.00000  Uiso   1.00
C169   C     0.09169   0.71002   0.15740   0.00000  Uiso   1.00
C170   C     0.11598   0.75008   0.17085   0.00000  Uiso   1.00
C171   C     0.38394   0.75047   0.17085   0.00000  Uiso   1.00
C172   C     0.02408   0.75027   0.17825   0.00000  Uiso   1.00
C173   C     0.47587   0.75135   0.17840   0.00000  Uiso   1.00
C174   C     0.16052   0.61446   0.08163   0.00000  Uiso   1.00
C175   C     0.22898   0.60200   0.12888   0.00000  Uiso   1.00
C176   C     0.30793   0.87558   0.27541   0.00000  Uiso   1.00
C177   C     0.27555   0.62217   0.29194   0.00000  Uiso   1.00
C178   C     0.19201   0.87543   0.05776   0.00000  Uiso   1.00
C179   C     0.28197   0.89775   0.19320   0.00000  Uiso   1.00
C180   C     0.27151   0.60215   0.20413   0.00000  Uiso   1.00
C181   C     0.21854   0.89783   0.13973   0.00000  Uiso   1.00
C182   C     0.23045   0.55243   0.12732   0.00000  Uiso   1.00
C183   C     0.28374   0.94726   0.19185   0.00000  Uiso   1.00
C184   C     0.27215   0.55257   0.20428   0.00000  Uiso   1.00
H185   H     0.03189   0.82103   0.20686   0.00000  Uiso   1.00
H186   H     0.31085   0.96476   0.21129   0.00000  Uiso   1.00
H187   H     0.28862   0.53490   0.23508   0.00000  Uiso   1.00
H188   H     0.19102   0.96504   0.12067   0.00000  Uiso   1.00
H189   H     0.22478   0.62804   0.05736   0.00000  Uiso   1.00
H190   H     0.14392   0.64276   0.05991   0.00000  Uiso   1.00
H191   H     0.14291   0.60995   0.11781   0.00000  Uiso   1.00
H192   H     0.15804   0.58137   0.05979   0.00000  Uiso   1.00
H193   H     0.34634   0.88055   0.21167   0.00000  Uiso   1.00
H194   H     0.33081   0.85063   0.29446   0.00000  Uiso   1.00
H195   H     0.27312   0.86631   0.28560   0.00000  Uiso   1.00
H196   H     0.46884   0.68229   0.21168   0.00000  Uiso   1.00
H197   H     0.31555   0.91164   0.28891   0.00000  Uiso   1.00
H198   H     0.32832   0.62066   0.24254   0.00000  Uiso   1.00
H199   H     0.23937   0.63052   0.29110   0.00000  Uiso   1.00
H200   H     0.29246   0.64691   0.31809   0.00000  Uiso   1.00
H201   H     0.28026   0.58592   0.30632   0.00000  Uiso   1.00
H202   H     0.15388   0.88093   0.12164   0.00000  Uiso   1.00
H203   H     0.18479   0.91145   0.04401   0.00000  Uiso   1.00
H204   H     0.16876   0.85048   0.03898   0.00000  Uiso   1.00
H205   H     0.22667   0.86595   0.04750   0.00000  Uiso   1.00
H206   H     0.47198   0.82036   0.14426   0.00000  Uiso   1.00
H207   H     0.02720   0.67951   0.14857   0.00000  Uiso   1.00
H208   H     0.11283   0.82112   0.20004   0.00000  Uiso   1.00
H209   H     0.38778   0.68134   0.20474   0.00000  Uiso   1.00
H210   H     0.39090   0.82015   0.13894   0.00000  Uiso   1.00
H211   H     0.10805   0.67902   0.14350   0.00000  Uiso   1.00
H212   H     0.21564   0.53459   0.09554   0.00000  Uiso   1.00
N213   N     0.25000   0.62623   0.16667   0.00000  Uiso   1.00
N214   N     0.25000   0.87376   0.16667   0.00000  Uiso   1.00
N215   N     0.20678   0.62704   0.09012   0.00000  Uiso   1.00
N216   N     0.31403   0.87261   0.22175   0.00000  Uiso   1.00
N217   N     0.29451   0.62714   0.24244   0.00000  Uiso   1.00
N218   N     0.18605   0.87276   0.11147   0.00000  Uiso   1.00
O219   O     0.18453   0.78974   0.16667   0.00000  Uiso   1.00
O220   O     0.31547   0.71026   0.16666   0.00000  Uiso   1.00
O221   O     0.31547   0.78974   0.16666   0.00000  Uiso   1.00
O222   O     0.18453   0.71026   0.16667   0.00000  Uiso   1.00
O223   O     0.25000   0.78973   0.09511   0.00000  Uiso   1.00
O224   O     0.25000   0.71027   0.23822   0.00000  Uiso   1.00
O225   O     0.25000   0.78973   0.23822   0.00000  Uiso   1.00
O226   O     0.25000   0.71027   0.09511   0.00000  Uiso   1.00
Zn227  Zn    0.25000   0.80307   0.16667   0.00000  Uiso   1.00
Zn228  Zn    0.25000   0.69693   0.16667   0.00000  Uiso   1.00
C229   C     0.66390   0.74996   0.16729   0.00000  Uiso   1.00
C230   C     0.71779   0.94738   0.14032   0.00000  Uiso   1.00
C231   C     0.74992   0.75001   0.07292   0.00000  Uiso   1.00
C232   C     0.75004   0.74999   0.26042   0.00000  Uiso   1.00
C233   C     0.75130   0.52658   0.16579   0.00000  Uiso   1.00
C234   C     0.75105   0.97326   0.16587   0.00000  Uiso   1.00
C235   C     0.74993   0.75003   0.02181   0.00000  Uiso   1.00
C236   C     0.74998   0.75001   0.31152   0.00000  Uiso   1.00
C237   C     0.54841   0.79005   0.19278   0.00000  Uiso   1.00
C238   C     0.95195   0.71233   0.19556   0.00000  Uiso   1.00
C239   C     0.95371   0.79032   0.15840   0.00000  Uiso   1.00
C240   C     0.83607   0.75011   0.16731   0.00000  Uiso   1.00
C241   C     0.54578   0.71018   0.16076   0.00000  Uiso   1.00
C242   C     0.59433   0.79008   0.18878   0.00000  Uiso   1.00
C243   C     0.90601   0.71175   0.19146   0.00000  Uiso   1.00
C244   C     0.90774   0.79001   0.15493   0.00000  Uiso   1.00
C245   C     0.59169   0.71002   0.15740   0.00000  Uiso   1.00
C246   C     0.61598   0.75008   0.17085   0.00000  Uiso   1.00
C247   C     0.88394   0.75047   0.17085   0.00000  Uiso   1.00
C248   C     0.52408   0.75027   0.17825   0.00000  Uiso   1.00
C249   C     0.97587   0.75135   0.17840   0.00000  Uiso   1.00
C250   C     0.66052   0.61446   0.08163   0.00000  Uiso   1.00
C251   C     0.72898   0.60200   0.12888   0.00000  Uiso   1.00
C252   C     0.80793   0.87558   0.27541   0.00000  Uiso   1.00
C253   C     0.77555   0.62217   0.29194   0.00000  Uiso   1.00
C254   C     0.69201   0.87543   0.05776   0.00000  Uiso   1.00
C255   C     0.78197   0.89775   0.19320   0.00000  Uiso   1.00
C256   C     0.77151   0.60215   0.20413   0.00000  Uiso   1.00
C257   C     0.71854   0.89783   0.13973   0.00000  Uiso   1.00
C258   C     0.73045   0.55243   0.12732   0.00000  Uiso   1.00
C259   C     0.78374   0.94726   0.19185   0.00000  Uiso   1.00
C260   C     0.77215   0.55257   0.20428   0.00000  Uiso   1.00
H261   H     0.53189   0.82103   0.20686   0.00000  Uiso   1.00
H262   H     0.81085   0.96476   0.21129   0.00000  Uiso   1.00
H263   H     0.78862   0.53490   0.23508   0.00000  Uiso   1.00
H264   H     0.69102   0.96504   0.12067   0.00000  Uiso   1.00
H265   H     0.72478   0.62804   0.05736   0.00000  Uiso   1.00
H266   H     0.64392   0.64276   0.05991   0.00000  Uiso   1.00
H267   H     0.64291   0.60995   0.11781   0.00000  Uiso   1.00
H268   H     0.65804   0.58137   0.05979   0.00000  Uiso   1.00
H269   H     0.84634   0.88055   0.21167   0.00000  Uiso   1.00
H270   H     0.83081   0.85063   0.29446   0.00000  Uiso   1.00
H271   H     0.77312   0.86631   0.28560   0.00000  Uiso   1.00
H272   H     0.96884   0.68229   0.21168   0.00000  Uiso   1.00
H273   H     0.81555   0.91164   0.28891   0.00000  Uiso   1.00
H274   H     0.82832   0.62066   0.24254   0.00000  Uiso   1.00
H275   H     0.73937   0.63052   0.29110   0.00000  Uiso   1.00
H276   H     0.79246   0.64691   0.31809   0.00000  Uiso   1.00
H277   H     0.78026   0.58592   0.30632   0.00000  Uiso   1.00
H278   H     0.65388   0.88093   0.12164   0.00000  Uiso   1.00
H279   H     0.68479   0.91145   0.04401   0.00000  Uiso   1.00
H280   H     0.66876   0.85048   0.03898   0.00000  Uiso   1.00
H281   H     0.72667   0.86595   0.04750   0.00000  Uiso   1.00
H282   H     0.97198   0.82036   0.14426   0.00000  Uiso   1.00
H283   H     0.52720   0.67951   0.14857   0.00000  Uiso   1.00
H284   H     0.61283   0.82112   0.20004   0.00000  Uiso   1.00
H285   H     0.88778   0.68134   0.20474   0.00000  Uiso   1.00
H286   H     0.89090   0.82015   0.13894   0.00000  Uiso   1.00
H287   H     0.60805   0.67902   0.14350   0.00000  Uiso   1.00
H288   H     0.71564   0.53459   0.09554   0.00000  Uiso   1.00
N289   N     0.75000   0.62623   0.16667   0.00000  Uiso   1.00
N290   N     0.75000   0.87376   0.16667   0.00000  Uiso   1.00
N291   N     0.70678   0.62704   0.09012   0.00000  Uiso   1.00
N292   N     0.81403   0.87261   0.22175   0.00000  Uiso   1.00
N293   N     0.79451   0.62714   0.24244   0.00000  Uiso   1.00
N294   N     0.68605   0.87276   0.11147   0.00000  Uiso   1.00
O295   O     0.68453   0.78974   0.16667   0.00000  Uiso   1.00
O296   O     0.81547   0.71026   0.16666   0.00000  Uiso   1.00
O297   O     0.81547   0.78974   0.16666   0.00000  Uiso   1.00
O298   O     0.68453   0.71026   0.16667   0.00000  Uiso   1.00
O299   O     0.75000   0.78973   0.09511   0.00000  Uiso   1.00
O300   O     0.75000   0.71027   0.23822   0.00000  Uiso   1.00
O301   O     0.75000   0.78973   0.23822   0.00000  Uiso   1.00
O302   O     0.75000   0.71027   0.09511   0.00000  Uiso   1.00
Zn303  Zn    0.75000   0.80307   0.16667   0.00000  Uiso   1.00
Zn304  Zn    0.75000   0.69693   0.16667   0.00000  Uiso   1.00
C305   C     0.16390   0.24996   0.50062   0.00000  Uiso   1.00
C306   C     0.21779   0.44738   0.47366   0.00000  Uiso   1.00
C307   C     0.24992   0.25001   0.40625   0.00000  Uiso   1.00
C308   C     0.25004   0.24999   0.59375   0.00000  Uiso   1.00
C309   C     0.25130   0.02658   0.49913   0.00000  Uiso   1.00
C310   C     0.25105   0.47326   0.49921   0.00000  Uiso   1.00
C311   C     0.24993   0.25003   0.35514   0.00000  Uiso   1.00
C312   C     0.24998   0.25001   0.64485   0.00000  Uiso   1.00
C313   C     0.04841   0.29005   0.52611   0.00000  Uiso   1.00
C314   C     0.45195   0.21233   0.52890   0.00000  Uiso   1.00
C315   C     0.45371   0.29032   0.49174   0.00000  Uiso   1.00
C316   C     0.33607   0.25011   0.50064   0.00000  Uiso   1.00
C317   C     0.04578   0.21018   0.49409   0.00000  Uiso   1.00
C318   C     0.09433   0.29008   0.52211   0.00000  Uiso   1.00
C319   C     0.40601   0.21175   0.52480   0.00000  Uiso   1.00
C320   C     0.40774   0.29001   0.48827   0.00000  Uiso   1.00
C321   C     0.09169   0.21002   0.49073   0.00000  Uiso   1.00
C322   C     0.11598   0.25008   0.50418   0.00000  Uiso   1.00
C323   C     0.38394   0.25047   0.50418   0.00000  Uiso   1.00
C324   C     0.02408   0.25027   0.51159   0.00000  Uiso   1.00
C325   C     0.47587   0.25135   0.51174   0.00000  Uiso   1.00
C326   C     0.16052   0.11446   0.41496   0.00000  Uiso   1.00
C327   C     0.22898   0.10200   0.46221   0.00000  Uiso   1.00
C328   C     0.30793   0.37558   0.60875   0.00000  Uiso   1.00
C329   C     0.27555   0.12217   0.62528   0.00000  Uiso   1.00
C330   C     0.19201   0.37543   0.39109   0.00000  Uiso   1.00
C331   C     0.28197   0.39775   0.52654   0.00000  Uiso   1.00
C332   C     0.27151   0.10215   0.53746   0.00000  Uiso   1.00
C333   C     0.21854   0.39783   0.47307   0.00000  Uiso   1.00
C334   C     0.23045   0.05243   0.46065   0.00000  Uiso   1.00
C335   C     0.28374   0.44726   0.52519   0.00000  Uiso   1.00
C336   C     0.27215   0.05257   0.53761   0.00000  Uiso   1.00
H337   H     0.03189   0.32103   0.54019   0.00000  Uiso   1.00
H338   H     0.31085   0.46476   0.54463   0.00000  Uiso   1.00
H339   H     0.28862   0.03490   0.56841   0.00000  Uiso   1.00
H340   H     0.19102   0.46504   0.45401   0.00000  Uiso   1.00
H341   H     0.22478   0.12804   0.39069   0.00000  Uiso   1.00
H342   H     0.14392   0.14276   0.39325   0.00000  Uiso   1.00
H343   H     0.14291   0.10995   0.45114   0.00000  Uiso   1.00
H344   H     0.15804   0.08137   0.39312   0.00000  Uiso   1.00
H345   H     0.34634   0.38055   0.54500   0.00000  Uiso   1.00
H346   H     0.33081   0.35063   0.62780   0.00000  Uiso   1.00
H347   H     0.27312   0.36631   0.61893   0.00000  Uiso   1.00
H348   H     0.46884   0.18229   0.54501   0.00000  Uiso   1.00
H349   H     0.31555   0.41164   0.62225   0.00000  Uiso   1.00
H350   H     0.32832   0.12066   0.57587   0.00000  Uiso   1.00
H351   H     0.23937   0.13052   0.62443   0.00000  Uiso   1.00
H352   H     0.29246   0.14691   0.65143   0.00000  Uiso   1.00
H353   H     0.28026   0.08592   0.63965   0.00000  Uiso   1.00
H354   H     0.15388   0.38093   0.45497   0.00000  Uiso   1.00
H355   H     0.18479   0.41145   0.37735   0.00000  Uiso   1.00
H356   H     0.16876   0.35048   0.37232   0.00000  Uiso   1.00
H357   H     0.22667   0.36595   0.38083   0.00000  Uiso   1.00
H358   H     0.47198   0.32036   0.47760   0.00000  Uiso   1.00
H359   H     0.02720   0.17951   0.48190   0.00000  Uiso   1.00
H360   H     0.11283   0.32112   0.53337   0.00000  Uiso   1.00
H361   H     0.38778   0.18134   0.53808   0.00000  Uiso   1.00
H362   H     0.39090   0.32015   0.47228   0.00000  Uiso   1.00
H363   H     0.10805   0.17902   0.47683   0.00000  Uiso   1.00
H364   H     0.21564   0.03459   0.42887   0.00000  Uiso   1.00
N365   N     0.25000   0.12623   0.50000   0.00000  Uiso   1.00
N366   N     0.25000   0.37376   0.50000   0.00000  Uiso   1.00
N367   N     0.20678   0.12704   0.42345   0.00000  Uiso   1.00
N368   N     0.31403   0.37261   0.55508   0.00000  Uiso   1.00
N369   N     0.29451   0.12714   0.57577   0.00000  Uiso   1.00
N370   N     0.18605   0.37276   0.44480   0.00000  Uiso   1.00
O371   O     0.18453   0.28974   0.50000   0.00000  Uiso   1.00
O372   O     0.31547   0.21026   0.50000   0.00000  Uiso   1.00
O373   O     0.31547   0.28974   0.50000   0.00000  Uiso   1.00
O374   O     0.18453   0.21026   0.50000   0.00000  Uiso   1.00
O375   O     0.25000   0.28973   0.42845   0.00000  Uiso   1.00
O376   O     0.25000   0.21027   0.57155   0.00000  Uiso   1.00
O377   O     0.25000   0.28973   0.57155   0.00000  Uiso   1.00
O378   O     0.25000   0.21027   0.42845   0.00000  Uiso   1.00
Zn379  Zn    0.25000   0.30307   0.50000   0.00000  Uiso   1.00
Zn380  Zn    0.25000   0.19693   0.50000   0.00000  Uiso   1.00
C381   C     0.66390   0.24996   0.50062   0.00000  Uiso   1.00
C382   C     0.71779   0.44738   0.47366   0.00000  Uiso   1.00
C383   C     0.74992   0.25001   0.40625   0.00000  Uiso   1.00
C384   C     0.75004   0.24999   0.59375   0.00000  Uiso   1.00
C385   C     0.75130   0.02658   0.49913   0.00000  Uiso   1.00
C386   C     0.75105   0.47326   0.49921   0.00000  Uiso   1.00
C387   C     0.74993   0.25003   0.35514   0.00000  Uiso   1.00
C388   C     0.74998   0.25001   0.64485   0.00000  Uiso   1.00
C389   C     0.54841   0.29005   0.52611   0.00000  Uiso   1.00
C390   C     0.95195   0.21233   0.52890   0.00000  Uiso   1.00
C391   C     0.95371   0.29032   0.49174   0.00000  Uiso   1.00
C392   C     0.83607   0.25011   0.50064   0.00000  Uiso   1.00
C393   C     0.54578   0.21018   0.49409   0.00000  Uiso   1.00
C394   C     0.59433   0.29008   0.52211   0.00000  Uiso   1.00
C395   C     0.90601   0.21175   0.52480   0.00000  Uiso   1.00
C396   C     0.90774   0.29001   0.48827   0.00000  Uiso   1.00
C397   C     0.59169   0.21002   0.49073   0.00000  Uiso   1.00
C398   C     0.61598   0.25008   0.50418   0.00000  Uiso   1.00
C399   C     0.88394   0.25047   0.50418   0.00000  Uiso   1.00
C400   C     0.52408   0.25027   0.51159   0.00000  Uiso   1.00
C401   C     0.97587   0.25135   0.51174   0.00000  Uiso   1.00
C402   C     0.66052   0.11446   0.41496   0.00000  Uiso   1.00
C403   C     0.72898   0.10200   0.46221   0.00000  Uiso   1.00
C404   C     0.80793   0.37558   0.60875   0.00000  Uiso   1.00
C405   C     0.77555   0.12217   0.62528   0.00000  Uiso   1.00
C406   C     0.69201   0.37543   0.39109   0.00000  Uiso   1.00
C407   C     0.78197   0.39775   0.52654   0.00000  Uiso   1.00
C408   C     0.77151   0.10215   0.53746   0.00000  Uiso   1.00
C409   C     0.71854   0.39783   0.47307   0.00000  Uiso   1.00
C410   C     0.73045   0.05243   0.46065   0.00000  Uiso   1.00
C411   C     0.78374   0.44726   0.52519   0.00000  Uiso   1.00
C412   C     0.77215   0.05257   0.53761   0.00000  Uiso   1.00
H413   H     0.53189   0.32103   0.54019   0.00000  Uiso   1.00
H414   H     0.81085   0.46476   0.54463   0.00000  Uiso   1.00
H415   H     0.78862   0.03490   0.56841   0.00000  Uiso   1.00
H416   H     0.69102   0.46504   0.45401   0.00000  Uiso   1.00
H417   H     0.72478   0.12804   0.39069   0.00000  Uiso   1.00
H418   H     0.64392   0.14276   0.39325   0.00000  Uiso   1.00
H419   H     0.64291   0.10995   0.45114   0.00000  Uiso   1.00
H420   H     0.65804   0.08137   0.39312   0.00000  Uiso   1.00
H421   H     0.84634   0.38055   0.54500   0.00000  Uiso   1.00
H422   H     0.83081   0.35063   0.62780   0.00000  Uiso   1.00
H423   H     0.77312   0.36631   0.61893   0.00000  Uiso   1.00
H424   H     0.96884   0.18229   0.54501   0.00000  Uiso   1.00
H425   H     0.81555   0.41164   0.62225   0.00000  Uiso   1.00
H426   H     0.82832   0.12066   0.57587   0.00000  Uiso   1.00
H427   H     0.73937   0.13052   0.62443   0.00000  Uiso   1.00
H428   H     0.79246   0.14691   0.65143   0.00000  Uiso   1.00
H429   H     0.78026   0.08592   0.63965   0.00000  Uiso   1.00
H430   H     0.65388   0.38093   0.45497   0.00000  Uiso   1.00
H431   H     0.68479   0.41145   0.37735   0.00000  Uiso   1.00
H432   H     0.66876   0.35048   0.37232   0.00000  Uiso   1.00
H433   H     0.72667   0.36595   0.38083   0.00000  Uiso   1.00
H434   H     0.97198   0.32036   0.47760   0.00000  Uiso   1.00
H435   H     0.52720   0.17951   0.48190   0.00000  Uiso   1.00
H436   H     0.61283   0.32112   0.53337   0.00000  Uiso   1.00
H437   H     0.88778   0.18134   0.53808   0.00000  Uiso   1.00
H438   H     0.89090   0.32015   0.47228   0.00000  Uiso   1.00
H439   H     0.60805   0.17902   0.47683   0.00000  Uiso   1.00
H440   H     0.71564   0.03459   0.42887   0.00000  Uiso   1.00
N441   N     0.75000   0.12623   0.50000   0.00000  Uiso   1.00
N442   N     0.75000   0.37376   0.50000   0.00000  Uiso   1.00
N443   N     0.70678   0.12704   0.42345   0.00000  Uiso   1.00
N444   N     0.81403   0.37261   0.55508   0.00000  Uiso   1.00
N445   N     0.79451   0.12714   0.57577   0.00000  Uiso   1.00
N446   N     0.68605   0.37276   0.44480   0.00000  Uiso   1.00
O447   O     0.68453   0.28974   0.50000   0.00000  Uiso   1.00
O448   O     0.81547   0.21026   0.50000   0.00000  Uiso   1.00
O449   O     0.81547   0.28974   0.50000   0.00000  Uiso   1.00
O450   O     0.68453   0.21026   0.50000   0.00000  Uiso   1.00
O451   O     0.75000   0.28973   0.42845   0.00000  Uiso   1.00
O452   O     0.75000   0.21027   0.57155   0.00000  Uiso   1.00
O453   O     0.75000   0.28973   0.57155   0.00000  Uiso   1.00
O454   O     0.75000   0.21027   0.42845   0.00000  Uiso   1.00
Zn455  Zn    0.75000   0.30307   0.50000   0.00000  Uiso   1.00
Zn456  Zn    0.75000   0.19693   0.50000   0.00000  Uiso   1.00
C457   C     0.16390   0.74996   0.50062   0.00000  Uiso   1.00
C458   C     0.21779   0.94738   0.47366   0.00000  Uiso   1.00
C459   C     0.24992   0.75001   0.40625   0.00000  Uiso   1.00
C460   C     0.25004   0.74999   0.59375   0.00000  Uiso   1.00
C461   C     0.25130   0.52658   0.49913   0.00000  Uiso   1.00
C462   C     0.25105   0.97326   0.49921   0.00000  Uiso   1.00
C463   C     0.24993   0.75003   0.35514   0.00000  Uiso   1.00
C464   C     0.24998   0.75001   0.64485   0.00000  Uiso   1.00
C465   C     0.04841   0.79005   0.52611   0.00000  Uiso   1.00
C466   C     0.45195   0.71233   0.52890   0.00000  Uiso   1.00
C467   C     0.45371   0.79032   0.49174   0.00000  Uiso   1.00
C468   C     0.33607   0.75011   0.50064   0.00000  Uiso   1.00
C469   C     0.04578   0.71018   0.49409   0.00000  Uiso   1.00
C470   C     0.09433   0.79008   0.52211   0.00000  Uiso   1.00
C471   C     0.40601   0.71175   0.52480   0.00000  Uiso   1.00
C472   C     0.40774   0.79001   0.48827   0.00000  Uiso   1.00
C473   C     0.09169   0.71002   0.49073   0.00000  Uiso   1.00
C474   C     0.11598   0.75008   0.50418   0.00000  Uiso   1.00
C475   C     0.38394   0.75047   0.50418   0.00000  Uiso   1.00
C476   C     0.02408   0.75027   0.51159   0.00000  Uiso   1.00
C477   C     0.47587   0.75135   0.51174   0.00000  Uiso   1.00
C478   C     0.16052   0.61446   0.41496   0.00000  Uiso   1.00
C479   C     0.22898   0.60200   0.46221   0.00000  Uiso   1.00
C480   C     0.30793   0.87558   0.60875   0.00000  Uiso   1.00
C481   C     0.27555   0.62217   0.62528   0.00000  Uiso   1.00
C482   C     0.19201   0.87543   0.39109   0.00000  Uiso   1.00
C483   C     0.28197   0.89775   0.52654   0.00000  Uiso   1.00
C484   C     0.27151   0.60215   0.53746   0.00000  Uiso   1.00
C485   C     0.21854   0.89783   0.47307   0.00000  Uiso   1.00
C486   C     0.23045   0.55243   0.46065   0.00000  Uiso   1.00
C487   C     0.28374   0.94726   0.52519   0.00000  Uiso   1.00
C488   C     0.27215   0.55257   0.53761   0.00000  Uiso   1.00
H489   H     0.03189   0.82103   0.54019   0.00000  Uiso   1.00
H490   H     0.31085   0.96476   0.54463   0.00000  Uiso   1.00
H491   H     0.28862   0.53490   0.56841   0.00000  Uiso   1.00
H492   H     0.19102   0.96504   0.45401   0.00000  Uiso   1.00
H493   H     0.22478   0.62804   0.39069   0.00000  Uiso   1.00
H494   H     0.14392   0.64276   0.39325   0.00000  Uiso   1.00
H495   H     0.14291   0.60995   0.45114   0.00000  Uiso   1.00
H496   H     0.15804   0.58137   0.39312   0.00000  Uiso   1.00
H497   H     0.34634   0.88055   0.54500   0.00000  Uiso   1.00
H498   H     0.33081   0.85063   0.62780   0.00000  Uiso   1.00
H499   H     0.27312   0.86631   0.61893   0.00000  Uiso   1.00
H500   H     0.46884   0.68229   0.54501   0.00000  Uiso   1.00
H501   H     0.31555   0.91164   0.62225   0.00000  Uiso   1.00
H502   H     0.32832   0.62066   0.57587   0.00000  Uiso   1.00
H503   H     0.23937   0.63052   0.62443   0.00000  Uiso   1.00
H504   H     0.29246   0.64691   0.65143   0.00000  Uiso   1.00
H505   H     0.28026   0.58592   0.63965   0.00000  Uiso   1.00
H506   H     0.15388   0.88093   0.45497   0.00000  Uiso   1.00
H507   H     0.18479   0.91145   0.37735   0.00000  Uiso   1.00
H508   H     0.16876   0.85048   0.37232   0.00000  Uiso   1.00
H509   H     0.22667   0.86595   0.38083   0.00000  Uiso   1.00
H510   H     0.47198   0.82036   0.47760   0.00000  Uiso   1.00
H511   H     0.02720   0.67951   0.48190   0.00000  Uiso   1.00
H512   H     0.11283   0.82112   0.53337   0.00000  Uiso   1.00
H513   H     0.38778   0.68134   0.53808   0.00000  Uiso   1.00
H514   H     0.39090   0.82015   0.47228   0.00000  Uiso   1.00
H515   H     0.10805   0.67902   0.47683   0.00000  Uiso   1.00
H516   H     0.21564   0.53459   0.42887   0.00000  Uiso   1.00
N517   N     0.25000   0.62623   0.50000   0.00000  Uiso   1.00
N518   N     0.25000   0.87376   0.50000   0.00000  Uiso   1.00
N519   N     0.20678   0.62704   0.42345   0.00000  Uiso   1.00
N520   N     0.31403   0.87261   0.55508   0.00000  Uiso   1.00
N521   N     0.29451   0.62714   0.57577   0.00000  Uiso   1.00
N522   N     0.18605   0.87276   0.44480   0.00000  Uiso   1.00
O523   O     0.18453   0.78974   0.50000   0.00000  Uiso   1.00
O524   O     0.31547   0.71026   0.50000   0.00000  Uiso   1.00
O525   O     0.31547   0.78974   0.50000   0.00000  Uiso   1.00
O526   O     0.18453   0.71026   0.50000   0.00000  Uiso   1.00
O527   O     0.25000   0.78973   0.42845   0.00000  Uiso   1.00
O528   O     0.25000   0.71027   0.57155   0.00000  Uiso   1.00
O529   O     0.25000   0.78973   0.57155   0.00000  Uiso   1.00
O530   O     0.25000   0.71027   0.42845   0.00000  Uiso   1.00
Zn531  Zn    0.25000   0.80307   0.50000   0.00000  Uiso   1.00
Zn532  Zn    0.25000   0.69693   0.50000   0.00000  Uiso   1.00
C533   C     0.66390   0.74996   0.50062   0.00000  Uiso   1.00
C534   C     0.71779   0.94738   0.47366   0.00000  Uiso   1.00
C535   C     0.74992   0.75001   0.40625   0.00000  Uiso   1.00
C536   C     0.75004   0.74999   0.59375   0.00000  Uiso   1.00
C537   C     0.75130   0.52658   0.49913   0.00000  Uiso   1.00
C538   C     0.75105   0.97326   0.49921   0.00000  Uiso   1.00
C539   C     0.74993   0.75003   0.35514   0.00000  Uiso   1.00
C540   C     0.74998   0.75001   0.64485   0.00000  Uiso   1.00
C541   C     0.54841   0.79005   0.52611   0.00000  Uiso   1.00
C542   C     0.95195   0.71233   0.52890   0.00000  Uiso   1.00
C543   C     0.95371   0.79032   0.49174   0.00000  Uiso   1.00
C544   C     0.83607   0.75011   0.50064   0.00000  Uiso   1.00
C545   C     0.54578   0.71018   0.49409   0.00000  Uiso   1.00
C546   C     0.59433   0.79008   0.52211   0.00000  Uiso   1.00
C547   C     0.90601   0.71175   0.52480   0.00000  Uiso   1.00
C548   C     0.90774   0.79001   0.48827   0.00000  Uiso   1.00
C549   C     0.59169   0.71002   0.49073   0.00000  Uiso   1.00
C550   C     0.61598   0.75008   0.50418   0.00000  Uiso   1.00
C551   C     0.88394   0.75047   0.50418   0.00000  Uiso   1.00
C552   C     0.52408   0.75027   0.51159   0.00000  Uiso   1.00
C553   C     0.97587   0.75135   0.51174   0.00000  Uiso   1.00
C554   C     0.66052   0.61446   0.41496   0.00000  Uiso   1.00
C555   C     0.72898   0.60200   0.46221   0.00000  Uiso   1.00
C556   C     0.80793   0.87558   0.60875   0.00000  Uiso   1.00
C557   C     0.77555   0.62217   0.62528   0.00000  Uiso   1.00
C558   C     0.69201   0.87543   0.39109   0.00000  Uiso   1.00
C559   C     0.78197   0.89775   0.52654   0.00000  Uiso   1.00
C560   C     0.77151   0.60215   0.53746   0.00000  Uiso   1.00
C561   C     0.71854   0.89783   0.47307   0.00000  Uiso   1.00
C562   C     0.73045   0.55243   0.46065   0.00000  Uiso   1.00
C563   C     0.78374   0.94726   0.52519   0.00000  Uiso   1.00
C564   C     0.77215   0.55257   0.53761   0.00000  Uiso   1.00
H565   H     0.53189   0.82103   0.54019   0.00000  Uiso   1.00
H566   H     0.81085   0.96476   0.54463   0.00000  Uiso   1.00
H567   H     0.78862   0.53490   0.56841   0.00000  Uiso   1.00
H568   H     0.69102   0.96504   0.45401   0.00000  Uiso   1.00
H569   H     0.72478   0.62804   0.39069   0.00000  Uiso   1.00
H570   H     0.64392   0.64276   0.39325   0.00000  Uiso   1.00
H571   H     0.64291   0.60995   0.45114   0.00000  Uiso   1.00
H572   H     0.65804   0.58137   0.39312   0.00000  Uiso   1.00
H573   H     0.84634   0.88055   0.54500   0.00000  Uiso   1.00
H574   H     0.83081   0.85063   0.62780   0.00000  Uiso   1.00
H575   H     0.77312   0.86631   0.61893   0.00000  Uiso   1.00
H576   H     0.96884   0.68229   0.54501   0.00000  Uiso   1.00
H577   H     0.81555   0.91164   0.62225   0.00000  Uiso   1.00
H578   H     0.82832   0.62066   0.57587   0.00000  Uiso   1.00
H579   H     0.73937   0.63052   0.62443   0.00000  Uiso   1.00
H580   H     0.79246   0.64691   0.65143   0.00000  Uiso   1.00
H581   H     0.78026   0.58592   0.63965   0.00000  Uiso   1.00
H582   H     0.65388   0.88093   0.45497   0.00000  Uiso   1.00
H583   H     0.68479   0.91145   0.37735   0.00000  Uiso   1.00
H584   H     0.66876   0.85048   0.37232   0.00000  Uiso   1.00
H585   H     0.72667   0.86595   0.38083   0.00000  Uiso   1.00
H586   H     0.97198   0.82036   0.47760   0.00000  Uiso   1.00
H587   H     0.52720   0.67951   0.48190   0.00000  Uiso   1.00
H588   H     0.61283   0.82112   0.53337   0.00000  Uiso   1.00
H589   H     0.88778   0.68134   0.53808   0.00000  Uiso   1.00
H590   H     0.89090   0.82015   0.47228   0.00000  Uiso   1.00
H591   H     0.60805   0.67902   0.47683   0.00000  Uiso   1.00
H592   H     0.71564   0.53459   0.42887   0.00000  Uiso   1.00
N593   N     0.75000   0.62623   0.50000   0.00000  Uiso   1.00
N594   N     0.75000   0.87376   0.50000   0.00000  Uiso   1.00
N595   N     0.70678   0.62704   0.42345   0.00000  Uiso   1.00
N596   N     0.81403   0.87261   0.55508   0.00000  Uiso   1.00
N597   N     0.79451   0.62714   0.57577   0.00000  Uiso   1.00
N598   N     0.68605   0.87276   0.44480   0.00000  Uiso   1.00
O599   O     0.68453   0.78974   0.50000   0.00000  Uiso   1.00
O600   O     0.81547   0.71026   0.50000   0.00000  Uiso   1.00
O601   O     0.81547   0.78974   0.50000   0.00000  Uiso   1.00
O602   O     0.68453   0.71026   0.50000   0.00000  Uiso   1.00
O603   O     0.75000   0.78973   0.42845   0.00000  Uiso   1.00
O604   O     0.75000   0.71027   0.57155   0.00000  Uiso   1.00
O605   O     0.75000   0.78973   0.57155   0.00000  Uiso   1.00
O606   O     0.75000   0.71027   0.42845   0.00000  Uiso   1.00
Zn607  Zn    0.75000   0.80307   0.50000   0.00000  Uiso   1.00
Zn608  Zn    0.75000   0.69693   0.50000   0.00000  Uiso   1.00
C609   C     0.16390   0.24996   0.83395   0.00000  Uiso   1.00
C610   C     0.21779   0.44738   0.80699   0.00000  Uiso   1.00
C611   C     0.24992   0.25001   0.73958   0.00000  Uiso   1.00
C612   C     0.25004   0.24999   0.92708   0.00000  Uiso   1.00
C613   C     0.25130   0.02658   0.83246   0.00000  Uiso   1.00
C614   C     0.25105   0.47326   0.83254   0.00000  Uiso   1.00
C615   C     0.24993   0.25003   0.68848   0.00000  Uiso   1.00
C616   C     0.24998   0.25001   0.97819   0.00000  Uiso   1.00
C617   C     0.04841   0.29005   0.85944   0.00000  Uiso   1.00
C618   C     0.45195   0.21233   0.86223   0.00000  Uiso   1.00
C619   C     0.45371   0.29032   0.82507   0.00000  Uiso   1.00
C620   C     0.33607   0.25011   0.83398   0.00000  Uiso   1.00
C621   C     0.04578   0.21018   0.82743   0.00000  Uiso   1.00
C622   C     0.09433   0.29008   0.85544   0.00000  Uiso   1.00
C623   C     0.40601   0.21175   0.85813   0.00000  Uiso   1.00
C624   C     0.40774   0.29001   0.82160   0.00000  Uiso   1.00
C625   C     0.09169   0.21002   0.82407   0.00000  Uiso   1.00
C626   C     0.11598   0.25008   0.83752   0.00000  Uiso   1.00
C627   C     0.38394   0.25047   0.83752   0.00000  Uiso   1.00
C628   C     0.02408   0.25027   0.84492   0.00000  Uiso   1.00
C629   C     0.47587   0.25135   0.84507   0.00000  Uiso   1.00
C630   C     0.16052   0.11446   0.74829   0.00000  Uiso   1.00
C631   C     0.22898   0.10200   0.79554   0.00000  Uiso   1.00
C632   C     0.30793   0.37558   0.94208   0.00000  Uiso   1.00
C633   C     0.27555   0.12217   0.95861   0.00000  Uiso   1.00
C634   C     0.19201   0.37543   0.72442   0.00000  Uiso   1.00
C635   C     0.28197   0.39775   0.85987   0.00000  Uiso   1.00
C636   C     0.27151   0.10215   0.87080   0.00000  Uiso   1.00
C637   C     0.21854   0.39783   0.80640   0.00000  Uiso   1.00
C638   C     0.23045   0.05243   0.79399   0.00000  Uiso   1.00
C639   C     0.28374   0.44726   0.85852   0.00000  Uiso   1.00
C640   C     0.27215   0.05257   0.87095   0.00000  Uiso   1.00
H641   H     0.03189   0.32103   0.87353   0.00000  Uiso   1.00
H642   H     0.31085   0.46476   0.87796   0.00000  Uiso   1.00
H643   H     0.28862   0.03490   0.90175   0.00000  Uiso   1.00
H644   H     0.19102   0.46504   0.78734   0.00000  Uiso   1.00
H645   H     0.22478   0.12804   0.72403   0.00000  Uiso   1.00
H646   H     0.14392   0.14276   0.72658   0.00000  Uiso   1.00
H647   H     0.14291   0.10995   0.78447   0.00000  Uiso   1.00
H648   H     0.15804   0.08137   0.72645   0.00000  Uiso   1.00
H649   H     0.34634   0.38055   0.87834   0.00000  Uiso   1.00
H650   H     0.33081   0.35063   0.96113   0.00000  Uiso   1.00
H651   H     0.27312   0.36631   0.95226   0.00000  Uiso   1.00
H652   H     0.46884   0.18229   0.87834   0.00000  Uiso   1.00
H653   H     0.31555   0.41164   0.95558   0.00000  Uiso   1.00
H654   H     0.32832   0.12066   0.90921   0.00000  Uiso   1.00
H655   H     0.23937   0.13052   0.95777   0.00000  Uiso   1.00
H656   H     0.29246   0.14691   0.98476   0.00000  Uiso   1.00
H657   H     0.28026   0.08592   0.97299   0.00000  Uiso   1.00
H658   H     0.15388   0.38093   0.78830   0.00000  Uiso   1.00
H659   H     0.18479   0.41145   0.71068   0.00000  Uiso   1.00
H660   H     0.16876   0.35048   0.70565   0.00000  Uiso   1.00
H661   H     0.22667   0.36595   0.71417   0.00000  Uiso   1.00
H662   H     0.47198   0.32036   0.81093   0.00000  Uiso   1.00
H663   H     0.02720   0.17951   0.81523   0.00000  Uiso   1.00
H664   H     0.11283   0.32112   0.86671   0.00000  Uiso   1.00
H665   H     0.38778   0.18134   0.87141   0.00000  Uiso   1.00
H666   H     0.39090   0.32015   0.80561   0.00000  Uiso   1.00
H667   H     0.10805   0.17902   0.81017   0.00000  Uiso   1.00
H668   H     0.21564   0.03459   0.76221   0.00000  Uiso   1.00
N669   N     0.25000   0.12623   0.83333   0.00000  Uiso   1.00
N670   N     0.25000   0.37376   0.83333   0.00000  Uiso   1.00
N671   N     0.20678   0.12704   0.75679   0.00000  Uiso   1.00
N672   N     0.31403   0.37261   0.88841   0.00000  Uiso   1.00
N673   N     0.29451   0.12714   0.90910   0.00000  Uiso   1.00
N674   N     0.18605   0.37276   0.77814   0.00000  Uiso   1.00
O675   O     0.18453   0.28974   0.83334   0.00000  Uiso   1.00
O676   O     0.31547   0.21026   0.83333   0.00000  Uiso   1.00
O677   O     0.31547   0.28974   0.83333   0.00000  Uiso   1.00
O678   O     0.18453   0.21026   0.83334   0.00000  Uiso   1.00
O679   O     0.25000   0.28973   0.76178   0.00000  Uiso   1.00
O680   O     0.25000   0.21027   0.90489   0.00000  Uiso   1.00
O681   O     0.25000   0.28973   0.90489   0.00000  Uiso   1.00
O682   O     0.25000   0.21027   0.76178   0.00000  Uiso   1.00
Zn683  Zn    0.25000   0.30307   0.83333   0.00000  Uiso   1.00
Zn684  Zn    0.25000   0.19693   0.83333   0.00000  Uiso   1.00
C685   C     0.66390   0.24996   0.83395   0.00000  Uiso   1.00
C686   C     0.71779   0.44738   0.80699   0.00000  Uiso   1.00
C687   C     0.74992   0.25001   0.73958   0.00000  Uiso   1.00
C688   C     0.75004   0.24999   0.92708   0.00000  Uiso   1.00
C689   C     0.75130   0.02658   0.83246   0.00000  Uiso   1.00
C690   C     0.75105   0.47326   0.83254   0.00000  Uiso   1.00
C691   C     0.74993   0.25003   0.68848   0.00000  Uiso   1.00
C692   C     0.74998   0.25001   0.97819   0.00000  Uiso   1.00
C693   C     0.54841   0.29005   0.85944   0.00000  Uiso   1.00
C694   C     0.95195   0.21233   0.86223   0.00000  Uiso   1.00
C695   C     0.95371   0.29032   0.82507   0.00000  Uiso   1.00
C696   C     0.83607   0.25011   0.83398   0.00000  Uiso   1.00
C697   C     0.54578   0.21018   0.82743   0.00000  Uiso   1.00
C698   C     0.59433   0.29008   0.85544   0.00000  Uiso   1.00
C699   C     0.90601   0.21175   0.85813   0.00000  Uiso   1.00
C700   C     0.90774   0.29001   0.82160   0.00000  Uiso   1.00
C701   C     0.59169   0.21002   0.82407   0.00000  Uiso   1.00
C702   C     0.61598   0.25008   0.83752   0.00000  Uiso   1.00
C703   C     0.88394   0.25047   0.83752   0.00000  Uiso   1.00
C704   C     0.52408   0.25027   0.84492   0.00000  Uiso   1.00
C705   C     0.97587   0.25135   0.84507   0.00000  Uiso   1.00
C706   C     0.66052   0.11446   0.74829   0.00000  Uiso   1.00
C707   C     0.72898   0.10200   0.79554   0.00000  Uiso   1.00
C708   C     0.80793   0.37558   0.94208   0.00000  Uiso   1.00
C709   C     0.77555   0.12217   0.95861   0.00000  Uiso   1.00
C710   C     0.69201   0.37543   0.72442   0.00000  Uiso   1.00
C711   C     0.78197   0.39775   0.85987   0.00000  Uiso   1.00
C712   C     0.77151   0.10215   0.87080   0.00000  Uiso   1.00
C713   C     0.71854   0.39783   0.80640   0.00000  Uiso   1.00
C714   C     0.73045   0.05243   0.79399   0.00000  Uiso   1.00
C715   C     0.78374   0.44726   0.85852   0.00000  Uiso   1.00
C716   C     0.77215   0.05257   0.87095   0.00000  Uiso   1.00
H717   H     0.53189   0.32103   0.87353   0.00000  Uiso   1.00
H718   H     0.81085   0.46476   0.87796   0.00000  Uiso   1.00
H719   H     0.78862   0.03490   0.90175   0.00000  Uiso   1.00
H720   H     0.69102   0.46504   0.78734   0.00000  Uiso   1.00
H721   H     0.72478   0.12804   0.72403   0.00000  Uiso   1.00
H722   H     0.64392   0.14276   0.72658   0.00000  Uiso   1.00
H723   H     0.64291   0.10995   0.78447   0.00000  Uiso   1.00
H724   H     0.65804   0.08137   0.72645   0.00000  Uiso   1.00
H725   H     0.84634   0.38055   0.87834   0.00000  Uiso   1.00
H726   H     0.83081   0.35063   0.96113   0.00000  Uiso   1.00
H727   H     0.77312   0.36631   0.95226   0.00000  Uiso   1.00
H728   H     0.96884   0.18229   0.87834   0.00000  Uiso   1.00
H729   H     0.81555   0.41164   0.95558   0.00000  Uiso   1.00
H730   H     0.82832   0.12066   0.90921   0.00000  Uiso   1.00
H731   H     0.73937   0.13052   0.95777   0.00000  Uiso   1.00
H732   H     0.79246   0.14691   0.98476   0.00000  Uiso   1.00
H733   H     0.78026   0.08592   0.97299   0.00000  Uiso   1.00
H734   H     0.65388   0.38093   0.78830   0.00000  Uiso   1.00
H735   H     0.68479   0.41145   0.71068   0.00000  Uiso   1.00
H736   H     0.66876   0.35048   0.70565   0.00000  Uiso   1.00
H737   H     0.72667   0.36595   0.71417   0.00000  Uiso   1.00
H738   H     0.97198   0.32036   0.81093   0.00000  Uiso   1.00
H739   H     0.52720   0.17951   0.81523   0.00000  Uiso   1.00
H740   H     0.61283   0.32112   0.86671   0.00000  Uiso   1.00
H741   H     0.88778   0.18134   0.87141   0.00000  Uiso   1.00
H742   H     0.89090   0.32015   0.80561   0.00000  Uiso   1.00
H743   H     0.60805   0.17902   0.81017   0.00000  Uiso   1.00
H744   H     0.71564   0.03459   0.76221   0.00000  Uiso   1.00
N745   N     0.75000   0.12623   0.83333   0.00000  Uiso   1.00
N746   N     0.75000   0.37376   0.83333   0.00000  Uiso   1.00
N747   N     0.70678   0.12704   0.75679   0.00000  Uiso   1.00
N748   N     0.81403   0.37261   0.88841   0.00000  Uiso   1.00
N749   N     0.79451   0.12714   0.90910   0.00000  Uiso   1.00
N750   N     0.68605   0.37276   0.77814   0.00000  Uiso   1.00
O751   O     0.68453   0.28974   0.83334   0.00000  Uiso   1.00
O752   O     0.81547   0.21026   0.83333   0.00000  Uiso   1.00
O753   O     0.81547   0.28974   0.83333   0.00000  Uiso   1.00
O754   O     0.68453   0.21026   0.83334   0.00000  Uiso   1.00
O755   O     0.75000   0.28973   0.76178   0.00000  Uiso   1.00
O756   O     0.75000   0.21027   0.90489   0.00000  Uiso   1.00
O757   O     0.75000   0.28973   0.90489   0.00000  Uiso   1.00
O758   O     0.75000   0.21027   0.76178   0.00000  Uiso   1.00
Zn759  Zn    0.75000   0.30307   0.83333   0.00000  Uiso   1.00
Zn760  Zn    0.75000   0.19693   0.83333   0.00000  Uiso   1.00
C761   C     0.16390   0.74996   0.83395   0.00000  Uiso   1.00
C762   C     0.21779   0.94738   0.80699   0.00000  Uiso   1.00
C763   C     0.24992   0.75001   0.73958   0.00000  Uiso   1.00
C764   C     0.25004   0.74999   0.92708   0.00000  Uiso   1.00
C765   C     0.25130   0.52658   0.83246   0.00000  Uiso   1.00
C766   C     0.25105   0.97326   0.83254   0.00000  Uiso   1.00
C767   C     0.24993   0.75003   0.68848   0.00000  Uiso   1.00
C768   C     0.24998   0.75001   0.97819   0.00000  Uiso   1.00
C769   C     0.04841   0.79005   0.85944   0.00000  Uiso   1.00
C770   C     0.45195   0.71233   0.86223   0.00000  Uiso   1.00
C771   C     0.45371   0.79032   0.82507   0.00000  Uiso   1.00
C772   C     0.33607   0.75011   0.83398   0.00000  Uiso   1.00
C773   C     0.04578   0.71018   0.82743   0.00000  Uiso   1.00
C774   C     0.09433   0.79008   0.85544   0.00000  Uiso   1.00
C775   C     0.40601   0.71175   0.85813   0.00000  Uiso   1.00
C776   C     0.40774   0.79001   0.82160   0.00000  Uiso   1.00
C777   C     0.09169   0.71002   0.82407   0.00000  Uiso   1.00
C778   C     0.11598   0.75008   0.83752   0.00000  Uiso   1.00
C779   C     0.38394   0.75047   0.83752   0.00000  Uiso   1.00
C780   C     0.02408   0.75027   0.84492   0.00000  Uiso   1.00
C781   C     0.47587   0.75135   0.84507   0.00000  Uiso   1.00
C782   C     0.16052   0.61446   0.74829   0.00000  Uiso   1.00
C783   C     0.22898   0.60200   0.79554   0.00000  Uiso   1.00
C784   C     0.30793   0.87558   0.94208   0.00000  Uiso   1.00
C785   C     0.27555   0.62217   0.95861   0.00000  Uiso   1.00
C786   C     0.19201   0.87543   0.72442   0.00000  Uiso   1.00
C787   C     0.28197   0.89775   0.85987   0.00000  Uiso   1.00
C788   C     0.27151   0.60215   0.87080   0.00000  Uiso   1.00
C789   C     0.21854   0.89783   0.80640   0.00000  Uiso   1.00
C790   C     0.23045   0.55243   0.79399   0.00000  Uiso   1.00
C791   C     0.28374   0.94726   0.85852   0.00000  Uiso   1.00
C792   C     0.27215   0.55257   0.87095   0.00000  Uiso   1.00
H793   H     0.03189   0.82103   0.87353   0.00000  Uiso   1.00
H794   H     0.31085   0.96476   0.87796   0.00000  Uiso   1.00
H795   H     0.28862   0.53490   0.90175   0.00000  Uiso   1.00
H796   H     0.19102   0.96504   0.78734   0.00000  Uiso   1.00
H797   H     0.22478   0.62804   0.72403   0.00000  Uiso   1.00
H798   H     0.14392   0.64276   0.72658   0.00000  Uiso   1.00
H799   H     0.14291   0.60995   0.78447   0.00000  Uiso   1.00
H800   H     0.15804   0.58137   0.72645   0.00000  Uiso   1.00
H801   H     0.34634   0.88055   0.87834   0.00000  Uiso   1.00
H802   H     0.33081   0.85063   0.96113   0.00000  Uiso   1.00
H803   H     0.27312   0.86631   0.95226   0.00000  Uiso   1.00
H804   H     0.46884   0.68229   0.87834   0.00000  Uiso   1.00
H805   H     0.31555   0.91164   0.95558   0.00000  Uiso   1.00
H806   H     0.32832   0.62066   0.90921   0.00000  Uiso   1.00
H807   H     0.23937   0.63052   0.95777   0.00000  Uiso   1.00
H808   H     0.29246   0.64691   0.98476   0.00000  Uiso   1.00
H809   H     0.28026   0.58592   0.97299   0.00000  Uiso   1.00
H810   H     0.15388   0.88093   0.78830   0.00000  Uiso   1.00
H811   H     0.18479   0.91145   0.71068   0.00000  Uiso   1.00
H812   H     0.16876   0.85048   0.70565   0.00000  Uiso   1.00
H813   H     0.22667   0.86595   0.71417   0.00000  Uiso   1.00
H814   H     0.47198   0.82036   0.81093   0.00000  Uiso   1.00
H815   H     0.02720   0.67951   0.81523   0.00000  Uiso   1.00
H816   H     0.11283   0.82112   0.86671   0.00000  Uiso   1.00
H817   H     0.38778   0.68134   0.87141   0.00000  Uiso   1.00
H818   H     0.39090   0.82015   0.80561   0.00000  Uiso   1.00
H819   H     0.10805   0.67902   0.81017   0.00000  Uiso   1.00
H820   H     0.21564   0.53459   0.76221   0.00000  Uiso   1.00
N821   N     0.25000   0.62623   0.83333   0.00000  Uiso   1.00
N822   N     0.25000   0.87376   0.83333   0.00000  Uiso   1.00
N823   N     0.20678   0.62704   0.75679   0.00000  Uiso   1.00
N824   N     0.31403   0.87261   0.88841   0.00000  Uiso   1.00
N825   N     0.29451   0.62714   0.90910   0.00000  Uiso   1.00
N826   N     0.18605   0.87276   0.77814   0.00000  Uiso   1.00
O827   O     0.18453   0.78974   0.83334   0.00000  Uiso   1.00
O828   O     0.31547   0.71026   0.83333   0.00000  Uiso   1.00
O829   O     0.31547   0.78974   0.83333   0.00000  Uiso   1.00
O830   O     0.18453   0.71026   0.83334   0.00000  Uiso   1.00
O831   O     0.25000   0.78973   0.76178   0.00000  Uiso   1.00
O832   O     0.25000   0.71027   0.90489   0.00000  Uiso   1.00
O833   O     0.25000   0.78973   0.90489   0.00000  Uiso   1.00
O834   O     0.25000   0.71027   0.76178   0.00000  Uiso   1.00
Zn835  Zn    0.25000   0.80307   0.83333   0.00000  Uiso   1.00
Zn836  Zn    0.25000   0.69693   0.83333   0.00000  Uiso   1.00
C837   C     0.66390   0.74996   0.83395   0.00000  Uiso   1.00
C838   C     0.71779   0.94738   0.80699   0.00000  Uiso   1.00
C839   C     0.74992   0.75001   0.73958   0.00000  Uiso   1.00
C840   C     0.75004   0.74999   0.92708   0.00000  Uiso   1.00
C841   C     0.75130   0.52658   0.83246   0.00000  Uiso   1.00
C842   C     0.75105   0.97326   0.83254   0.00000  Uiso   1.00
C843   C     0.74993   0.75003   0.68848   0.00000  Uiso   1.00
C844   C     0.74998   0.75001   0.97819   0.00000  Uiso   1.00
C845   C     0.54841   0.79005   0.85944   0.00000  Uiso   1.00
C846   C     0.95195   0.71233   0.86223   0.00000  Uiso   1.00
C847   C     0.95371   0.79032   0.82507   0.00000  Uiso   1.00
C848   C     0.83607   0.75011   0.83398   0.00000  Uiso   1.00
C849   C     0.54578   0.71018   0.82743   0.00000  Uiso   1.00
C850   C     0.59433   0.79008   0.85544   0.00000  Uiso   1.00
C851   C     0.90601   0.71175   0.85813   0.00000  Uiso   1.00
C852   C     0.90774   0.79001   0.82160   0.00000  Uiso   1.00
C853   C     0.59169   0.71002   0.82407   0.00000  Uiso   1.00
C854   C     0.61598   0.75008   0.83752   0.00000  Uiso   1.00
C855   C     0.88394   0.75047   0.83752   0.00000  Uiso   1.00
C856   C     0.52408   0.75027   0.84492   0.00000  Uiso   1.00
C857   C     0.97587   0.75135   0.84507   0.00000  Uiso   1.00
C858   C     0.66052   0.61446   0.74829   0.00000  Uiso   1.00
C859   C     0.72898   0.60200   0.79554   0.00000  Uiso   1.00
C860   C     0.80793   0.87558   0.94208   0.00000  Uiso   1.00
C861   C     0.77555   0.62217   0.95861   0.00000  Uiso   1.00
C862   C     0.69201   0.87543   0.72442   0.00000  Uiso   1.00
C863   C     0.78197   0.89775   0.85987   0.00000  Uiso   1.00
C864   C     0.77151   0.60215   0.87080   0.00000  Uiso   1.00
C865   C     0.71854   0.89783   0.80640   0.00000  Uiso   1.00
C866   C     0.73045   0.55243   0.79399   0.00000  Uiso   1.00
C867   C     0.78374   0.94726   0.85852   0.00000  Uiso   1.00
C868   C     0.77215   0.55257   0.87095   0.00000  Uiso   1.00
H869   H     0.53189   0.82103   0.87353   0.00000  Uiso   1.00
H870   H     0.81085   0.96476   0.87796   0.00000  Uiso   1.00
H871   H     0.78862   0.53490   0.90175   0.00000  Uiso   1.00
H872   H     0.69102   0.96504   0.78734   0.00000  Uiso   1.00
H873   H     0.72478   0.62804   0.72403   0.00000  Uiso   1.00
H874   H     0.64392   0.64276   0.72658   0.00000  Uiso   1.00
H875   H     0.64291   0.60995   0.78447   0.00000  Uiso   1.00
H876   H     0.65804   0.58137   0.72645   0.00000  Uiso   1.00
H877   H     0.84634   0.88055   0.87834   0.00000  Uiso   1.00
H878   H     0.83081   0.85063   0.96113   0.00000  Uiso   1.00
H879   H     0.77312   0.86631   0.95226   0.00000  Uiso   1.00
H880   H     0.96884   0.68229   0.87834   0.00000  Uiso   1.00
H881   H     0.81555   0.91164   0.95558   0.00000  Uiso   1.00
H882   H     0.82832   0.62066   0.90921   0.00000  Uiso   1.00
H883   H     0.73937   0.63052   0.95777   0.00000  Uiso   1.00
H884   H     0.79246   0.64691   0.98476   0.00000  Uiso   1.00
H885   H     0.78026   0.58592   0.97299   0.00000  Uiso   1.00
H886   H     0.65388   0.88093   0.78830   0.00000  Uiso   1.00
H887   H     0.68479   0.91145   0.71068   0.00000  Uiso   1.00
H888   H     0.66876   0.85048   0.70565   0.00000  Uiso   1.00
H889   H     0.72667   0.86595   0.71417   0.00000  Uiso   1.00
H890   H     0.97198   0.82036   0.81093   0.00000  Uiso   1.00
H891   H     0.52720   0.67951   0.81523   0.00000  Uiso   1.00
H892   H     0.61283   0.82112   0.86671   0.00000  Uiso   1.00
H893   H     0.88778   0.68134   0.87141   0.00000  Uiso   1.00
H894   H     0.89090   0.82015   0.80561   0.00000  Uiso   1.00
H895   H     0.60805   0.67902   0.81017   0.00000  Uiso   1.00
H896   H     0.71564   0.53459   0.76221   0.00000  Uiso   1.00
N897   N     0.75000   0.62623   0.83333   0.00000  Uiso   1.00
N898   N     0.75000   0.87376   0.83333   0.00000  Uiso   1.00
N899   N     0.70678   0.62704   0.75679   0.00000  Uiso   1.00
N900   N     0.81403   0.87261   0.88841   0.00000  Uiso   1.00
N901   N     0.79451   0.62714   0.90910   0.00000  Uiso   1.00
N902   N     0.68605   0.87276   0.77814   0.00000  Uiso   1.00
O903   O     0.68453   0.78974   0.83334   0.00000  Uiso   1.00
O904   O     0.81547   0.71026   0.83333   0.00000  Uiso   1.00
O905   O     0.81547   0.78974   0.83333   0.00000  Uiso   1.00
O906   O     0.68453   0.71026   0.83334   0.00000  Uiso   1.00
O907   O     0.75000   0.78973   0.76178   0.00000  Uiso   1.00
O908   O     0.75000   0.71027   0.90489   0.00000  Uiso   1.00
O909   O     0.75000   0.78973   0.90489   0.00000  Uiso   1.00
O910   O     0.75000   0.71027   0.76178   0.00000  Uiso   1.00
Zn911  Zn    0.75000   0.80307   0.83333   0.00000  Uiso   1.00
Zn912  Zn    0.75000   0.69693   0.83333   0.00000  Uiso   1.00
loop_
_geom_bond_atom_site_label_1
_geom_bond_atom_site_label_2
_geom_bond_distance
_geom_bond_site_symmetry_2
_ccdc_geom_bond_type
C1     O70     1.292   .     A
C1     C18     1.440   .     S
C1     O67     1.289   .     A
C2     C6      1.409   .     A
C2     C29     1.413   .     A
C2     H36     1.081   .     S
C3     O71     1.278   .     A
C3     C7      1.363   .     S
C3     O74     1.278   .     A
C4     C8      1.363   .     S
C4     O73     1.278   .     A
C4     O72     1.278   .     A
C5     C32     1.407   .     A
C5     C30     1.407   .     A
C5     C158    1.520   1_545 S
C6     C31     1.409   .     A
C6     C157    1.520   .     S
C7     C616    1.164   1_554 S
C8     C311    1.164   .     S
C9     C14     1.381   .     A
C9     C20     1.399   .     A
C9     H33     1.083   .     S
C10    C15     1.381   .     A
C10    C21     1.399   .     A
C10    H44     1.083   .     S
C11    C16     1.381   .     A
C11    H54     1.083   .     S
C11    C21     1.400   .     A
C12    O68     1.290   .     A
C12    C19     1.438   .     S
C12    O69     1.290   .     A
C13    C20     1.400   .     A
C13    C17     1.380   .     A
C13    H55     1.083   .     S
C14    C18     1.401   .     A
C14    H56     1.084   .     S
C15    H57     1.083   .     S
C15    C19     1.399   .     A
C16    H58     1.084   .     S
C16    C19     1.398   .     A
C17    H59     1.080   .     S
C17    C18     1.397   .     A
C20    C97     1.446   1_455 S
C21    C96     1.446   .     S
C22    H40     1.111   .     S
C22    H39     1.111   .     S
C22    N63     1.447   .     S
C22    H38     1.110   .     S
C23    N63     1.419   .     S
C23    C30     1.414   .     A
C23    N61     1.370   .     A
C24    N64     1.447   .     S
C24    H45     1.111   .     S
C24    H42     1.110   .     S
C24    H43     1.111   .     S
C25    N65     1.448   .     S
C25    H48     1.110   .     S
C25    H49     1.111   .     S
C25    H47     1.112   .     S
C26    H52     1.110   .     S
C26    H51     1.111   .     S
C26    N66     1.447   .     S
C26    H53     1.111   .     S
C27    N62     1.368   .     A
C27    N64     1.418   .     S
C27    C31     1.412   .     A
C28    N61     1.371   .     A
C28    C32     1.413   .     A
C28    N65     1.419   .     S
C29    N66     1.418   .     S
C29    N62     1.368   .     A
C30    H60     1.080   .     S
C31    H34     1.081   .     S
C32    H35     1.080   .     S
H37    N63     1.031   .     S
H41    N64     1.031   .     S
H46    N65     1.031   .     S
H50    N66     1.031   .     S
N61    Zn76    2.015   .     S
N62    Zn75    2.015   .     S
O67    Zn75    1.997   .     S
O68    Zn76    1.997   .     S
O69    Zn75    2.001   .     S
O70    Zn76    2.001   .     S
O71    Zn75    1.946   .     S
O72    Zn76    1.946   .     S
O73    Zn75    1.946   .     S
O74    Zn76    1.946   .     S
C77    O146    1.292   .     A
C77    C94     1.440   .     S
C77    O143    1.289   .     A
C78    C82     1.409   .     A
C78    C105    1.413   .     A
C78    H112    1.081   .     S
C79    O147    1.278   .     A
C79    C83     1.363   .     S
C79    O150    1.278   .     A
C80    C84     1.363   .     S
C80    O149    1.278   .     A
C80    O148    1.278   .     A
C81    C108    1.407   .     A
C81    C106    1.407   .     A
C81    C234    1.520   1_545 S
C82    C107    1.409   .     A
C82    C233    1.520   .     S
C83    C692    1.164   1_554 S
C84    C387    1.164   .     S
C85    C90     1.381   .     A
C85    C96     1.399   .     A
C85    H109    1.083   .     S
C86    C91     1.381   .     A
C86    C97     1.399   .     A
C86    H120    1.083   .     S
C87    C92     1.381   .     A
C87    H130    1.083   .     S
C87    C97     1.400   .     A
C88    O144    1.290   .     A
C88    C95     1.438   .     S
C88    O145    1.290   .     A
C89    C96     1.400   .     A
C89    C93     1.380   .     A
C89    H131    1.083   .     S
C90    C94     1.401   .     A
C90    H132    1.084   .     S
C91    H133    1.083   .     S
C91    C95     1.399   .     A
C92    H134    1.084   .     S
C92    C95     1.398   .     A
C93    H135    1.080   .     S
C93    C94     1.397   .     A
C97    C20     1.446   1_655 S
C98    H116    1.111   .     S
C98    H115    1.111   .     S
C98    N139    1.447   .     S
C98    H114    1.110   .     S
C99    N139    1.419   .     S
C99    C106    1.414   .     A
C99    N137    1.370   .     A
C100   N140    1.447   .     S
C100   H121    1.111   .     S
C100   H118    1.110   .     S
C100   H119    1.111   .     S
C101   N141    1.448   .     S
C101   H124    1.110   .     S
C101   H125    1.111   .     S
C101   H123    1.112   .     S
C102   H128    1.110   .     S
C102   H127    1.111   .     S
C102   N142    1.447   .     S
C102   H129    1.111   .     S
C103   N138    1.368   .     A
C103   N140    1.418   .     S
C103   C107    1.412   .     A
C104   N137    1.371   .     A
C104   C108    1.413   .     A
C104   N141    1.419   .     S
C105   N142    1.418   .     S
C105   N138    1.368   .     A
C106   H136    1.080   .     S
C107   H110    1.081   .     S
C108   H111    1.080   .     S
H113   N139    1.031   .     S
H117   N140    1.031   .     S
H122   N141    1.031   .     S
H126   N142    1.031   .     S
N137   Zn152   2.015   .     S
N138   Zn151   2.015   .     S
O143   Zn151   1.997   .     S
O144   Zn152   1.997   .     S
O145   Zn151   2.001   .     S
O146   Zn152   2.001   .     S
O147   Zn151   1.946   .     S
O148   Zn152   1.946   .     S
O149   Zn151   1.946   .     S
O150   Zn152   1.946   .     S
C153   O222    1.292   .     A
C153   C170    1.440   .     S
C153   O219    1.289   .     A
C154   C158    1.409   .     A
C154   C181    1.413   .     A
C154   H188    1.081   .     S
C155   O223    1.278   .     A
C155   C159    1.363   .     S
C155   O226    1.278   .     A
C156   C160    1.363   .     S
C156   O225    1.278   .     A
C156   O224    1.278   .     A
C157   C184    1.407   .     A
C157   C182    1.407   .     A
C158   C183    1.409   .     A
C158   C5      1.520   1_565 S
C159   C768    1.164   1_554 S
C160   C463    1.164   .     S
C161   C166    1.381   .     A
C161   C172    1.399   .     A
C161   H185    1.083   .     S
C162   C167    1.381   .     A
C162   C173    1.399   .     A
C162   H196    1.083   .     S
C163   C168    1.381   .     A
C163   H206    1.083   .     S
C163   C173    1.400   .     A
C164   O220    1.290   .     A
C164   C171    1.438   .     S
C164   O221    1.290   .     A
C165   C172    1.400   .     A
C165   C169    1.380   .     A
C165   H207    1.083   .     S
C166   C170    1.401   .     A
C166   H208    1.084   .     S
C167   H209    1.083   .     S
C167   C171    1.399   .     A
C168   H210    1.084   .     S
C168   C171    1.398   .     A
C169   H211    1.080   .     S
C169   C170    1.397   .     A
C172   C249    1.446   1_455 S
C173   C248    1.446   .     S
C174   H192    1.111   .     S
C174   H191    1.111   .     S
C174   N215    1.447   .     S
C174   H190    1.110   .     S
C175   N215    1.419   .     S
C175   C182    1.414   .     A
C175   N213    1.370   .     A
C176   N216    1.447   .     S
C176   H197    1.111   .     S
C176   H194    1.110   .     S
C176   H195    1.111   .     S
C177   N217    1.448   .     S
C177   H200    1.110   .     S
C177   H201    1.111   .     S
C177   H199    1.112   .     S
C178   H204    1.110   .     S
C178   H203    1.111   .     S
C178   N218    1.447   .     S
C178   H205    1.111   .     S
C179   N214    1.368   .     A
C179   N216    1.418   .     S
C179   C183    1.412   .     A
C180   N213    1.371   .     A
C180   C184    1.413   .     A
C180   N217    1.419   .     S
C181   N218    1.418   .     S
C181   N214    1.368   .     A
C182   H212    1.080   .     S
C183   H186    1.081   .     S
C184   H187    1.080   .     S
H189   N215    1.031   .     S
H193   N216    1.031   .     S
H198   N217    1.031   .     S
H202   N218    1.031   .     S
N213   Zn228   2.015   .     S
N214   Zn227   2.015   .     S
O219   Zn227   1.997   .     S
O220   Zn228   1.997   .     S
O221   Zn227   2.001   .     S
O222   Zn228   2.001   .     S
O223   Zn227   1.946   .     S
O224   Zn228   1.946   .     S
O225   Zn227   1.946   .     S
O226   Zn228   1.946   .     S
C229   O298    1.292   .     A
C229   C246    1.440   .     S
C229   O295    1.289   .     A
C230   C234    1.409   .     A
C230   C257    1.413   .     A
C230   H264    1.081   .     S
C231   O299    1.278   .     A
C231   C235    1.363   .     S
C231   O302    1.278   .     A
C232   C236    1.363   .     S
C232   O301    1.278   .     A
C232   O300    1.278   .     A
C233   C260    1.407   .     A
C233   C258    1.407   .     A
C234   C259    1.409   .     A
C234   C81     1.520   1_565 S
C235   C844    1.164   1_554 S
C236   C539    1.164   .     S
C237   C242    1.381   .     A
C237   C248    1.399   .     A
C237   H261    1.083   .     S
C238   C243    1.381   .     A
C238   C249    1.399   .     A
C238   H272    1.083   .     S
C239   C244    1.381   .     A
C239   H282    1.083   .     S
C239   C249    1.400   .     A
C240   O296    1.290   .     A
C240   C247    1.438   .     S
C240   O297    1.290   .     A
C241   C248    1.400   .     A
C241   C245    1.380   .     A
C241   H283    1.083   .     S
C242   C246    1.401   .     A
C242   H284    1.084   .     S
C243   H285    1.083   .     S
C243   C247    1.399   .     A
C244   H286    1.084   .     S
C244   C247    1.398   .     A
C245   H287    1.080   .     S
C245   C246    1.397   .     A
C249   C172    1.446   1_655 S
C250   H268    1.111   .     S
C250   H267    1.111   .     S
C250   N291    1.447   .     S
C250   H266    1.110   .     S
C251   N291    1.419   .     S
C251   C258    1.414   .     A
C251   N289    1.370   .     A
C252   N292    1.447   .     S
C252   H273    1.111   .     S
C252   H270    1.110   .     S
C252   H271    1.111   .     S
C253   N293    1.448   .     S
C253   H276    1.110   .     S
C253   H277    1.111   .     S
C253   H275    1.112   .     S
C254   H280    1.110   .     S
C254   H279    1.111   .     S
C254   N294    1.447   .     S
C254   H281    1.111   .     S
C255   N290    1.368   .     A
C255   N292    1.418   .     S
C255   C259    1.412   .     A
C256   N289    1.371   .     A
C256   C260    1.413   .     A
C256   N293    1.419   .     S
C257   N294    1.418   .     S
C257   N290    1.368   .     A
C258   H288    1.080   .     S
C259   H262    1.081   .     S
C260   H263    1.080   .     S
H265   N291    1.031   .     S
H269   N292    1.031   .     S
H274   N293    1.031   .     S
H278   N294    1.031   .     S
N289   Zn304   2.015   .     S
N290   Zn303   2.015   .     S
O295   Zn303   1.997   .     S
O296   Zn304   1.997   .     S
O297   Zn303   2.001   .     S
O298   Zn304   2.001   .     S
O299   Zn303   1.946   .     S
O300   Zn304   1.946   .     S
O301   Zn303   1.946   .     S
O302   Zn304   1.946   .     S
C305   O374    1.292   .     A
C305   C322    1.440   .     S
C305   O371    1.289   .     A
C306   C310    1.409   .     A
C306   C333    1.413   .     A
C306   H340    1.081   .     S
C307   O375    1.278   .     A
C307   C311    1.363   .     S
C307   O378    1.278   .     A
C308   C312    1.363   .     S
C308   O377    1.278   .     A
C308   O376    1.278   .     A
C309   C336    1.407   .     A
C309   C334    1.407   .     A
C309   C462    1.520   1_545 S
C310   C335    1.409   .     A
C310   C461    1.520   .     S
C312   C615    1.164   .     S
C313   C318    1.381   .     A
C313   C324    1.399   .     A
C313   H337    1.083   .     S
C314   C319    1.381   .     A
C314   C325    1.399   .     A
C314   H348    1.083   .     S
C315   C320    1.381   .     A
C315   H358    1.083   .     S
C315   C325    1.400   .     A
C316   O372    1.290   .     A
C316   C323    1.438   .     S
C316   O373    1.290   .     A
C317   C324    1.400   .     A
C317   C321    1.380   .     A
C317   H359    1.083   .     S
C318   C322    1.401   .     A
C318   H360    1.084   .     S
C319   H361    1.083   .     S
C319   C323    1.399   .     A
C320   H362    1.084   .     S
C320   C323    1.398   .     A
C321   H363    1.080   .     S
C321   C322    1.397   .     A
C324   C401    1.446   1_455 S
C325   C400    1.446   .     S
C326   H344    1.111   .     S
C326   H343    1.111   .     S
C326   N367    1.447   .     S
C326   H342    1.110   .     S
C327   N367    1.419   .     S
C327   C334    1.414   .     A
C327   N365    1.370   .     A
C328   N368    1.447   .     S
C328   H349    1.111   .     S
C328   H346    1.110   .     S
C328   H347    1.111   .     S
C329   N369    1.448   .     S
C329   H352    1.110   .     S
C329   H353    1.111   .     S
C329   H351    1.112   .     S
C330   H356    1.110   .     S
C330   H355    1.111   .     S
C330   N370    1.447   .     S
C330   H357    1.111   .     S
C331   N366    1.368   .     A
C331   N368    1.418   .     S
C331   C335    1.412   .     A
C332   N365    1.371   .     A
C332   C336    1.413   .     A
C332   N369    1.419   .     S
C333   N370    1.418   .     S
C333   N366    1.368   .     A
C334   H364    1.080   .     S
C335   H338    1.081   .     S
C336   H339    1.080   .     S
H341   N367    1.031   .     S
H345   N368    1.031   .     S
H350   N369    1.031   .     S
H354   N370    1.031   .     S
N365   Zn380   2.015   .     S
N366   Zn379   2.015   .     S
O371   Zn379   1.997   .     S
O372   Zn380   1.997   .     S
O373   Zn379   2.001   .     S
O374   Zn380   2.001   .     S
O375   Zn379   1.946   .     S
O376   Zn380   1.946   .     S
O377   Zn379   1.946   .     S
O378   Zn380   1.946   .     S
C381   O450    1.292   .     A
C381   C398    1.440   .     S
C381   O447    1.289   .     A
C382   C386    1.409   .     A
C382   C409    1.413   .     A
C382   H416    1.081   .     S
C383   O451    1.278   .     A
C383   C387    1.363   .     S
C383   O454    1.278   .     A
C384   C388    1.363   .     S
C384   O453    1.278   .     A
C384   O452    1.278   .     A
C385   C412    1.407   .     A
C385   C410    1.407   .     A
C385   C538    1.520   1_545 S
C386   C411    1.409   .     A
C386   C537    1.520   .     S
C388   C691    1.164   .     S
C389   C394    1.381   .     A
C389   C400    1.399   .     A
C389   H413    1.083   .     S
C390   C395    1.381   .     A
C390   C401    1.399   .     A
C390   H424    1.083   .     S
C391   C396    1.381   .     A
C391   H434    1.083   .     S
C391   C401    1.400   .     A
C392   O448    1.290   .     A
C392   C399    1.438   .     S
C392   O449    1.290   .     A
C393   C400    1.400   .     A
C393   C397    1.380   .     A
C393   H435    1.083   .     S
C394   C398    1.401   .     A
C394   H436    1.084   .     S
C395   H437    1.083   .     S
C395   C399    1.399   .     A
C396   H438    1.084   .     S
C396   C399    1.398   .     A
C397   H439    1.080   .     S
C397   C398    1.397   .     A
C401   C324    1.446   1_655 S
C402   H420    1.111   .     S
C402   H419    1.111   .     S
C402   N443    1.447   .     S
C402   H418    1.110   .     S
C403   N443    1.419   .     S
C403   C410    1.414   .     A
C403   N441    1.370   .     A
C404   N444    1.447   .     S
C404   H425    1.111   .     S
C404   H422    1.110   .     S
C404   H423    1.111   .     S
C405   N445    1.448   .     S
C405   H428    1.110   .     S
C405   H429    1.111   .     S
C405   H427    1.112   .     S
C406   H432    1.110   .     S
C406   H431    1.111   .     S
C406   N446    1.447   .     S
C406   H433    1.111   .     S
C407   N442    1.368   .     A
C407   N444    1.418   .     S
C407   C411    1.412   .     A
C408   N441    1.371   .     A
C408   C412    1.413   .     A
C408   N445    1.419   .     S
C409   N446    1.418   .     S
C409   N442    1.368   .     A
C410   H440    1.080   .     S
C411   H414    1.081   .     S
C412   H415    1.080   .     S
H417   N443    1.031   .     S
H421   N444    1.031   .     S
H426   N445    1.031   .     S
H430   N446    1.031   .     S
N441   Zn456   2.015   .     S
N442   Zn455   2.015   .     S
O447   Zn455   1.997   .     S
O448   Zn456   1.997   .     S
O449   Zn455   2.001   .     S
O450   Zn456   2.001   .     S
O451   Zn455   1.946   .     S
O452   Zn456   1.946   .     S
O453   Zn455   1.946   .     S
O454   Zn456   1.946   .     S
C457   O526    1.292   .     A
C457   C474    1.440   .     S
C457   O523    1.289   .     A
C458   C462    1.409   .     A
C458   C485    1.413   .     A
C458   H492    1.081   .     S
C459   O527    1.278   .     A
C459   C463    1.363   .     S
C459   O530    1.278   .     A
C460   C464    1.363   .     S
C460   O529    1.278   .     A
C460   O528    1.278   .     A
C461   C488    1.407   .     A
C461   C486    1.407   .     A
C462   C487    1.409   .     A
C462   C309    1.520   1_565 S
C464   C767    1.164   .     S
C465   C470    1.381   .     A
C465   C476    1.399   .     A
C465   H489    1.083   .     S
C466   C471    1.381   .     A
C466   C477    1.399   .     A
C466   H500    1.083   .     S
C467   C472    1.381   .     A
C467   H510    1.083   .     S
C467   C477    1.400   .     A
C468   O524    1.290   .     A
C468   C475    1.438   .     S
C468   O525    1.290   .     A
C469   C476    1.400   .     A
C469   C473    1.380   .     A
C469   H511    1.083   .     S
C470   C474    1.401   .     A
C470   H512    1.084   .     S
C471   H513    1.083   .     S
C471   C475    1.399   .     A
C472   H514    1.084   .     S
C472   C475    1.398   .     A
C473   H515    1.080   .     S
C473   C474    1.397   .     A
C476   C553    1.446   1_455 S
C477   C552    1.446   .     S
C478   H496    1.111   .     S
C478   H495    1.111   .     S
C478   N519    1.447   .     S
C478   H494    1.110   .     S
C479   N519    1.419   .     S
C479   C486    1.414   .     A
C479   N517    1.370   .     A
C480   N520    1.447   .     S
C480   H501    1.111   .     S
C480   H498    1.110   .     S
C480   H499    1.111   .     S
C481   N521    1.448   .     S
C481   H504    1.110   .     S
C481   H505    1.111   .     S
C481   H503    1.112   .     S
C482   H508    1.110   .     S
C482   H507    1.111   .     S
C482   N522    1.447   .     S
C482   H509    1.111   .     S
C483   N518    1.368   .     A
C483   N520    1.418   .     S
C483   C487    1.412   .     A
C484   N517    1.371   .     A
C484   C488    1.413   .     A
C484   N521    1.419   .     S
C485   N522    1.418   .     S
C485   N518    1.368   .     A
C486   H516    1.080   .     S
C487   H490    1.081   .     S
C488   H491    1.080   .     S
H493   N519    1.031   .     S
H497   N520    1.031   .     S
H502   N521    1.031   .     S
H506   N522    1.031   .     S
N517   Zn532   2.015   .     S
N518   Zn531   2.015   .     S
O523   Zn531   1.997   .     S
O524   Zn532   1.997   .     S
O525   Zn531   2.001   .     S
O526   Zn532   2.001   .     S
O527   Zn531   1.946   .     S
O528   Zn532   1.946   .     S
O529   Zn531   1.946   .     S
O530   Zn532   1.946   .     S
C533   O602    1.292   .     A
C533   C550    1.440   .     S
C533   O599    1.289   .     A
C534   C538    1.409   .     A
C534   C561    1.413   .     A
C534   H568    1.081   .     S
C535   O603    1.278   .     A
C535   C539    1.363   .     S
C535   O606    1.278   .     A
C536   C540    1.363   .     S
C536   O605    1.278   .     A
C536   O604    1.278   .     A
C537   C564    1.407   .     A
C537   C562    1.407   .     A
C538   C563    1.409   .     A
C538   C385    1.520   1_565 S
C540   C843    1.164   .     S
C541   C546    1.381   .     A
C541   C552    1.399   .     A
C541   H565    1.083   .     S
C542   C547    1.381   .     A
C542   C553    1.399   .     A
C542   H576    1.083   .     S
C543   C548    1.381   .     A
C543   H586    1.083   .     S
C543   C553    1.400   .     A
C544   O600    1.290   .     A
C544   C551    1.438   .     S
C544   O601    1.290   .     A
C545   C552    1.400   .     A
C545   C549    1.380   .     A
C545   H587    1.083   .     S
C546   C550    1.401   .     A
C546   H588    1.084   .     S
C547   H589    1.083   .     S
C547   C551    1.399   .     A
C548   H590    1.084   .     S
C548   C551    1.398   .     A
C549   H591    1.080   .     S
C549   C550    1.397   .     A
C553   C476    1.446   1_655 S
C554   H572    1.111   .     S
C554   H571    1.111   .     S
C554   N595    1.447   .     S
C554   H570    1.110   .     S
C555   N595    1.419   .     S
C555   C562    1.414   .     A
C555   N593    1.370   .     A
C556   N596    1.447   .     S
C556   H577    1.111   .     S
C556   H574    1.110   .     S
C556   H575    1.111   .     S
C557   N597    1.448   .     S
C557   H580    1.110   .     S
C557   H581    1.111   .     S
C557   H579    1.112   .     S
C558   H584    1.110   .     S
C558   H583    1.111   .     S
C558   N598    1.447   .     S
C558   H585    1.111   .     S
C559   N594    1.368   .     A
C559   N596    1.418   .     S
C559   C563    1.412   .     A
C560   N593    1.371   .     A
C560   C564    1.413   .     A
C560   N597    1.419   .     S
C561   N598    1.418   .     S
C561   N594    1.368   .     A
C562   H592    1.080   .     S
C563   H566    1.081   .     S
C564   H567    1.080   .     S
H569   N595    1.031   .     S
H573   N596    1.031   .     S
H578   N597    1.031   .     S
H582   N598    1.031   .     S
N593   Zn608   2.015   .     S
N594   Zn607   2.015   .     S
O599   Zn607   1.997   .     S
O600   Zn608   1.997   .     S
O601   Zn607   2.001   .     S
O602   Zn608   2.001   .     S
O603   Zn607   1.946   .     S
O604   Zn608   1.946   .     S
O605   Zn607   1.946   .     S
O606   Zn608   1.946   .     S
C609   O678    1.292   .     A
C609   C626    1.440   .     S
C609   O675    1.289   .     A
C610   C614    1.409   .     A
C610   C637    1.413   .     A
C610   H644    1.081   .     S
C611   O679    1.278   .     A
C611   C615    1.363   .     S
C611   O682    1.278   .     A
C612   C616    1.363   .     S
C612   O681    1.278   .     A
C612   O680    1.278   .     A
C613   C640    1.407   .     A
C613   C638    1.407   .     A
C613   C766    1.520   1_545 S
C614   C639    1.409   .     A
C614   C765    1.520   .     S
C616   C7      1.164   1_556 S
C617   C622    1.381   .     A
C617   C628    1.399   .     A
C617   H641    1.083   .     S
C618   C623    1.381   .     A
C618   C629    1.399   .     A
C618   H652    1.083   .     S
C619   C624    1.381   .     A
C619   H662    1.083   .     S
C619   C629    1.400   .     A
C620   O676    1.290   .     A
C620   C627    1.438   .     S
C620   O677    1.290   .     A
C621   C628    1.400   .     A
C621   C625    1.380   .     A
C621   H663    1.083   .     S
C622   C626    1.401   .     A
C622   H664    1.084   .     S
C623   H665    1.083   .     S
C623   C627    1.399   .     A
C624   H666    1.084   .     S
C624   C627    1.398   .     A
C625   H667    1.080   .     S
C625   C626    1.397   .     A
C628   C705    1.446   1_455 S
C629   C704    1.446   .     S
C630   H648    1.111   .     S
C630   H647    1.111   .     S
C630   N671    1.447   .     S
C630   H646    1.110   .     S
C631   N671    1.419   .     S
C631   C638    1.414   .     A
C631   N669    1.370   .     A
C632   N672    1.447   .     S
C632   H653    1.111   .     S
C632   H650    1.110   .     S
C632   H651    1.111   .     S
C633   N673    1.448   .     S
C633   H656    1.110   .     S
C633   H657    1.111   .     S
C633   H655    1.112   .     S
C634   H660    1.110   .     S
C634   H659    1.111   .     S
C634   N674    1.447   .     S
C634   H661    1.111   .     S
C635   N670    1.368   .     A
C635   N672    1.418   .     S
C635   C639    1.412   .     A
C636   N669    1.371   .     A
C636   C640    1.413   .     A
C636   N673    1.419   .     S
C637   N674    1.418   .     S
C637   N670    1.368   .     A
C638   H668    1.080   .     S
C639   H642    1.081   .     S
C640   H643    1.080   .     S
H645   N671    1.031   .     S
H649   N672    1.031   .     S
H654   N673    1.031   .     S
H658   N674    1.031   .     S
N669   Zn684   2.015   .     S
N670   Zn683   2.015   .     S
O675   Zn683   1.997   .     S
O676   Zn684   1.997   .     S
O677   Zn683   2.001   .     S
O678   Zn684   2.001   .     S
O679   Zn683   1.946   .     S
O680   Zn684   1.946   .     S
O681   Zn683   1.946   .     S
O682   Zn684   1.946   .     S
C685   O754    1.292   .     A
C685   C702    1.440   .     S
C685   O751    1.289   .     A
C686   C690    1.409   .     A
C686   C713    1.413   .     A
C686   H720    1.081   .     S
C687   O755    1.278   .     A
C687   C691    1.363   .     S
C687   O758    1.278   .     A
C688   C692    1.363   .     S
C688   O757    1.278   .     A
C688   O756    1.278   .     A
C689   C716    1.407   .     A
C689   C714    1.407   .     A
C689   C842    1.520   1_545 S
C690   C715    1.409   .     A
C690   C841    1.520   .     S
C692   C83     1.164   1_556 S
C693   C698    1.381   .     A
C693   C704    1.399   .     A
C693   H717    1.083   .     S
C694   C699    1.381   .     A
C694   C705    1.399   .     A
C694   H728    1.083   .     S
C695   C700    1.381   .     A
C695   H738    1.083   .     S
C695   C705    1.400   .     A
C696   O752    1.290   .     A
C696   C703    1.438   .     S
C696   O753    1.290   .     A
C697   C704    1.400   .     A
C697   C701    1.380   .     A
C697   H739    1.083   .     S
C698   C702    1.401   .     A
C698   H740    1.084   .     S
C699   H741    1.083   .     S
C699   C703    1.399   .     A
C700   H742    1.084   .     S
C700   C703    1.398   .     A
C701   H743    1.080   .     S
C701   C702    1.397   .     A
C705   C628    1.446   1_655 S
C706   H724    1.111   .     S
C706   H723    1.111   .     S
C706   N747    1.447   .     S
C706   H722    1.110   .     S
C707   N747    1.419   .     S
C707   C714    1.414   .     A
C707   N745    1.370   .     A
C708   N748    1.447   .     S
C708   H729    1.111   .     S
C708   H726    1.110   .     S
C708   H727    1.111   .     S
C709   N749    1.448   .     S
C709   H732    1.110   .     S
C709   H733    1.111   .     S
C709   H731    1.112   .     S
C710   H736    1.110   .     S
C710   H735    1.111   .     S
C710   N750    1.447   .     S
C710   H737    1.111   .     S
C711   N746    1.368   .     A
C711   N748    1.418   .     S
C711   C715    1.412   .     A
C712   N745    1.371   .     A
C712   C716    1.413   .     A
C712   N749    1.419   .     S
C713   N750    1.418   .     S
C713   N746    1.368   .     A
C714   H744    1.080   .     S
C715   H718    1.081   .     S
C716   H719    1.080   .     S
H721   N747    1.031   .     S
H725   N748    1.031   .     S
H730   N749    1.031   .     S
H734   N750    1.031   .     S
N745   Zn760   2.015   .     S
N746   Zn759   2.015   .     S
O751   Zn759   1.997   .     S
O752   Zn760   1.997   .     S
O753   Zn759   2.001   .     S
O754   Zn760   2.001   .     S
O755   Zn759   1.946   .     S
O756   Zn760   1.946   .     S
O757   Zn759   1.946   .     S
O758   Zn760   1.946   .     S
C761   O830    1.292   .     A
C761   C778    1.440   .     S
C761   O827    1.289   .     A
C762   C766    1.409   .     A
C762   C789    1.413   .     A
C762   H796    1.081   .     S
C763   O831    1.278   .     A
C763   C767    1.363   .     S
C763   O834    1.278   .     A
C764   C768    1.363   .     S
C764   O833    1.278   .     A
C764   O832    1.278   .     A
C765   C792    1.407   .     A
C765   C790    1.407   .     A
C766   C791    1.409   .     A
C766   C613    1.520   1_565 S
C768   C159    1.164   1_556 S
C769   C774    1.381   .     A
C769   C780    1.399   .     A
C769   H793    1.083   .     S
C770   C775    1.381   .     A
C770   C781    1.399   .     A
C770   H804    1.083   .     S
C771   C776    1.381   .     A
C771   H814    1.083   .     S
C771   C781    1.400   .     A
C772   O828    1.290   .     A
C772   C779    1.438   .     S
C772   O829    1.290   .     A
C773   C780    1.400   .     A
C773   C777    1.380   .     A
C773   H815    1.083   .     S
C774   C778    1.401   .     A
C774   H816    1.084   .     S
C775   H817    1.083   .     S
C775   C779    1.399   .     A
C776   H818    1.084   .     S
C776   C779    1.398   .     A
C777   H819    1.080   .     S
C777   C778    1.397   .     A
C780   C857    1.446   1_455 S
C781   C856    1.446   .     S
C782   H800    1.111   .     S
C782   H799    1.111   .     S
C782   N823    1.447   .     S
C782   H798    1.110   .     S
C783   N823    1.419   .     S
C783   C790    1.414   .     A
C783   N821    1.370   .     A
C784   N824    1.447   .     S
C784   H805    1.111   .     S
C784   H802    1.110   .     S
C784   H803    1.111   .     S
C785   N825    1.448   .     S
C785   H808    1.110   .     S
C785   H809    1.111   .     S
C785   H807    1.112   .     S
C786   H812    1.110   .     S
C786   H811    1.111   .     S
C786   N826    1.447   .     S
C786   H813    1.111   .     S
C787   N822    1.368   .     A
C787   N824    1.418   .     S
C787   C791    1.412   .     A
C788   N821    1.371   .     A
C788   C792    1.413   .     A
C788   N825    1.419   .     S
C789   N826    1.418   .     S
C789   N822    1.368   .     A
C790   H820    1.080   .     S
C791   H794    1.081   .     S
C792   H795    1.080   .     S
H797   N823    1.031   .     S
H801   N824    1.031   .     S
H806   N825    1.031   .     S
H810   N826    1.031   .     S
N821   Zn836   2.015   .     S
N822   Zn835   2.015   .     S
O827   Zn835   1.997   .     S
O828   Zn836   1.997   .     S
O829   Zn835   2.001   .     S
O830   Zn836   2.001   .     S
O831   Zn835   1.946   .     S
O832   Zn836   1.946   .     S
O833   Zn835   1.946   .     S
O834   Zn836   1.946   .     S
C837   O906    1.292   .     A
C837   C854    1.440   .     S
C837   O903    1.289   .     A
C838   C842    1.409   .     A
C838   C865    1.413   .     A
C838   H872    1.081   .     S
C839   O907    1.278   .     A
C839   C843    1.363   .     S
C839   O910    1.278   .     A
C840   C844    1.363   .     S
C840   O909    1.278   .     A
C840   O908    1.278   .     A
C841   C868    1.407   .     A
C841   C866    1.407   .     A
C842   C867    1.409   .     A
C842   C689    1.520   1_565 S
C844   C235    1.164   1_556 S
C845   C850    1.381   .     A
C845   C856    1.399   .     A
C845   H869    1.083   .     S
C846   C851    1.381   .     A
C846   C857    1.399   .     A
C846   H880    1.083   .     S
C847   C852    1.381   .     A
C847   H890    1.083   .     S
C847   C857    1.400   .     A
C848   O904    1.290   .     A
C848   C855    1.438   .     S
C848   O905    1.290   .     A
C849   C856    1.400   .     A
C849   C853    1.380   .     A
C849   H891    1.083   .     S
C850   C854    1.401   .     A
C850   H892    1.084   .     S
C851   H893    1.083   .     S
C851   C855    1.399   .     A
C852   H894    1.084   .     S
C852   C855    1.398   .     A
C853   H895    1.080   .     S
C853   C854    1.397   .     A
C857   C780    1.446   1_655 S
C858   H876    1.111   .     S
C858   H875    1.111   .     S
C858   N899    1.447   .     S
C858   H874    1.110   .     S
C859   N899    1.419   .     S
C859   C866    1.414   .     A
C859   N897    1.370   .     A
C860   N900    1.447   .     S
C860   H881    1.111   .     S
C860   H878    1.110   .     S
C860   H879    1.111   .     S
C861   N901    1.448   .     S
C861   H884    1.110   .     S
C861   H885    1.111   .     S
C861   H883    1.112   .     S
C862   H888    1.110   .     S
C862   H887    1.111   .     S
C862   N902    1.447   .     S
C862   H889    1.111   .     S
C863   N898    1.368   .     A
C863   N900    1.418   .     S
C863   C867    1.412   .     A
C864   N897    1.371   .     A
C864   C868    1.413   .     A
C864   N901    1.419   .     S
C865   N902    1.418   .     S
C865   N898    1.368   .     A
C866   H896    1.080   .     S
C867   H870    1.081   .     S
C868   H871    1.080   .     S
H873   N899    1.031   .     S
H877   N900    1.031   .     S
H882   N901    1.031   .     S
H886   N902    1.031   .     S
N897   Zn912   2.015   .     S
N898   Zn911   2.015   .     S
O903   Zn911   1.997   .     S
O904   Zn912   1.997   .     S
O905   Zn911   2.001   .     S
O906   Zn912   2.001   .     S
O907   Zn911   1.946   .     S
O908   Zn912   1.946   .     S
O909   Zn911   1.946   .     S
O910   Zn912   1.946   .     S
