data_str_m3_o1_o16_pcu_sym.140
_audit_creation_date              2020-01-03
_audit_creation_method            'Materials Studio'
_symmetry_space_group_name_H-M    'P1'
_symmetry_Int_Tables_number       1
_symmetry_cell_setting            triclinic
loop_
_symmetry_equiv_pos_as_xyz
  x,y,z
_cell_length_a                    29.9670
_cell_length_b                    32.1140
_cell_length_c                    26.2615
_cell_angle_alpha                 91.7945
_cell_angle_beta                  72.7015
_cell_angle_gamma                 90.4377
loop_
_atom_site_label
_atom_site_type_symbol
_atom_site_fract_x
_atom_site_fract_y
_atom_site_fract_z
_atom_site_U_iso_or_equiv
_atom_site_adp_type
_atom_site_occupancy
C1     C     0.16743   0.24631   0.24751   0.00000  Uiso   1.00
C2     C     0.15233   0.13209   0.48479   0.00000  Uiso   1.00
C3     C     0.16524   0.13684   0.42949   0.00000  Uiso   1.00
C4     C     0.18657   0.14296   0.01066   0.00000  Uiso   1.00
C5     C     0.23432   0.14820   0.47990   0.00000  Uiso   1.00
C6     C     0.24661   0.13610   0.42554   0.00000  Uiso   1.00
C7     C     0.21217   0.13073   0.40120   0.00000  Uiso   1.00
C8     C     0.17397   0.15168   0.06517   0.00000  Uiso   1.00
C9     C     0.25335   0.17216   0.06007   0.00000  Uiso   1.00
C10    C     0.13097   0.13944   0.40310   0.00000  Uiso   1.00
C11    C     0.19411   0.31216   0.27241   0.00000  Uiso   1.00
C12    C     0.14213   0.15837   0.34955   0.00000  Uiso   1.00
C13    C     0.19589   0.02149   0.27162   0.00000  Uiso   1.00
C14    C     0.16684   0.04225   0.24741   0.00000  Uiso   1.00
C15    C     0.13903   0.02023   0.22071   0.00000  Uiso   1.00
C16    C     0.14337   0.31054   0.21509   0.00000  Uiso   1.00
C17    C     0.16849   0.29026   0.24428   0.00000  Uiso   1.00
C18    C     0.31767   0.13937   0.21814   0.00000  Uiso   1.00
C19    C     0.03196   0.13960   0.21786   0.00000  Uiso   1.00
C20    C     0.01588   0.19477   0.28141   0.00000  Uiso   1.00
C21    C     0.30117   0.19377   0.28277   0.00000  Uiso   1.00
C22    C     0.16670   0.08672   0.24902   0.00000  Uiso   1.00
C23    C     0.19217   0.16704   0.14837   0.00000  Uiso   1.00
C24    C     0.26655   0.16599   0.00442   0.00000  Uiso   1.00
C25    C     0.20712   0.16371   0.09024   0.00000  Uiso   1.00
C26    C     0.09043   0.11621   0.42431   0.00000  Uiso   1.00
C27    C     0.07752   0.10513   0.47818   0.00000  Uiso   1.00
C28    C     0.10748   0.11435   0.00948   0.00000  Uiso   1.00
H29    H     0.30650   0.11710   0.19274   0.00000  Uiso   1.00
H30    H     0.05644   0.11832   0.19124   0.00000  Uiso   1.00
H31    H     0.13778   0.15073   0.08861   0.00000  Uiso   1.00
H32    H     0.22218   0.11848   0.36055   0.00000  Uiso   1.00
H33    H     0.21270   0.29631   0.29537   0.00000  Uiso   1.00
N34    N     0.04760   0.16668   0.25002   0.00000  Uiso   1.00
N35    N     0.28573   0.16665   0.25001   0.00000  Uiso   1.00
O36    O     0.12846   0.22775   0.25001   0.00000  Uiso   1.00
O37    O     0.20490   0.22774   0.25001   0.00000  Uiso   1.00
O38    O     0.10947   0.16666   0.32681   0.00000  Uiso   1.00
O39    O     0.18591   0.16665   0.32681   0.00000  Uiso   1.00
O40    O     0.12843   0.10559   0.25000   0.00000  Uiso   1.00
O41    O     0.20488   0.10558   0.25000   0.00000  Uiso   1.00
O42    O     0.14742   0.16668   0.17319   0.00000  Uiso   1.00
O43    O     0.22387   0.16667   0.17319   0.00000  Uiso   1.00
Zn44   Zn    0.11562   0.16667   0.25000   0.00000  Uiso   1.00
Zn45   Zn    0.21771   0.16666   0.25000   0.00000  Uiso   1.00
O46    O     0.28247   0.19360   0.08405   0.00000  Uiso   1.00
C47    C     0.31628   0.16614   0.09172   0.00000  Uiso   1.00
H48    H     0.30128   0.13548   0.10680   0.00000  Uiso   1.00
H49    H     0.33141   0.18062   0.12171   0.00000  Uiso   1.00
H50    H     0.01211   0.16152   0.05456   0.00000  Uiso   1.00
O51    O     0.22181   0.04310   0.29957   0.00000  Uiso   1.00
C52    C     0.26985   0.03608   0.27398   0.00000  Uiso   1.00
H53    H     0.29021   0.05929   0.28978   0.00000  Uiso   1.00
H54    H     0.27924   0.04024   0.23007   0.00000  Uiso   1.00
H55    H     0.28059   0.00468   0.28260   0.00000  Uiso   1.00
O56    O     0.11129   0.04089   0.19587   0.00000  Uiso   1.00
C57    C     0.06389   0.03692   0.22647   0.00000  Uiso   1.00
H58    H     0.04154   0.04460   0.20115   0.00000  Uiso   1.00
H59    H     0.05539   0.05919   0.26120   0.00000  Uiso   1.00
H60    H     0.05420   0.00486   0.24076   0.00000  Uiso   1.00
I61    I     0.11592   0.27846   0.15808   0.00000  Uiso   1.00
I62    I     0.03781   0.24204   0.32782   0.00000  Uiso   1.00
I63    I     0.25295   0.23266   0.34047   0.00000  Uiso   1.00
I64    I     0.31127   0.11439   0.37664   0.00000  Uiso   1.00
I65    I     0.32881   0.19681   0.46115   0.00000  Uiso   1.00
O66    O     0.06921   0.09752   0.38984   0.00000  Uiso   1.00
C67    C     0.08959   0.05786   0.37383   0.00000  Uiso   1.00
H68    H     0.07666   0.04493   0.34125   0.00000  Uiso   1.00
H69    H     0.12833   0.05956   0.35855   0.00000  Uiso   1.00
H70    H     0.07938   0.03581   0.40705   0.00000  Uiso   1.00
O71    O     0.09495   0.10025   0.06103   0.00000  Uiso   1.00
C72    C     0.11608   0.06105   0.06077   0.00000  Uiso   1.00
H73    H     0.15439   0.06421   0.05372   0.00000  Uiso   1.00
H74    H     0.10899   0.03875   0.03076   0.00000  Uiso   1.00
H75    H     0.10106   0.04740   0.10043   0.00000  Uiso   1.00
I76    I     0.01478   0.07081   0.01051   0.00000  Uiso   1.00
C77    C     0.50076   0.24631   0.24751   0.00000  Uiso   1.00
C78    C     0.48566   0.13209   0.48479   0.00000  Uiso   1.00
C79    C     0.49858   0.13684   0.42949   0.00000  Uiso   1.00
C80    C     0.51991   0.14296   0.01066   0.00000  Uiso   1.00
C81    C     0.56765   0.14820   0.47990   0.00000  Uiso   1.00
C82    C     0.57994   0.13610   0.42554   0.00000  Uiso   1.00
C83    C     0.54551   0.13073   0.40120   0.00000  Uiso   1.00
C84    C     0.50730   0.15168   0.06517   0.00000  Uiso   1.00
C85    C     0.58669   0.17216   0.06007   0.00000  Uiso   1.00
C86    C     0.46431   0.13944   0.40310   0.00000  Uiso   1.00
C87    C     0.52744   0.31216   0.27241   0.00000  Uiso   1.00
C88    C     0.47546   0.15837   0.34955   0.00000  Uiso   1.00
C89    C     0.52923   0.02149   0.27162   0.00000  Uiso   1.00
C90    C     0.50017   0.04225   0.24741   0.00000  Uiso   1.00
C91    C     0.47237   0.02023   0.22071   0.00000  Uiso   1.00
C92    C     0.47670   0.31054   0.21509   0.00000  Uiso   1.00
C93    C     0.50182   0.29026   0.24428   0.00000  Uiso   1.00
C94    C     0.65100   0.13937   0.21814   0.00000  Uiso   1.00
C95    C     0.36529   0.13960   0.21786   0.00000  Uiso   1.00
C96    C     0.34922   0.19477   0.28141   0.00000  Uiso   1.00
C97    C     0.63450   0.19377   0.28277   0.00000  Uiso   1.00
C98    C     0.50004   0.08672   0.24902   0.00000  Uiso   1.00
C99    C     0.52551   0.16704   0.14837   0.00000  Uiso   1.00
C100   C     0.59988   0.16599   0.00442   0.00000  Uiso   1.00
C101   C     0.54046   0.16371   0.09024   0.00000  Uiso   1.00
C102   C     0.42377   0.11621   0.42431   0.00000  Uiso   1.00
C103   C     0.41085   0.10513   0.47818   0.00000  Uiso   1.00
C104   C     0.44082   0.11435   0.00948   0.00000  Uiso   1.00
H105   H     0.63983   0.11710   0.19274   0.00000  Uiso   1.00
H106   H     0.38977   0.11832   0.19124   0.00000  Uiso   1.00
H107   H     0.47111   0.15073   0.08861   0.00000  Uiso   1.00
H108   H     0.55551   0.11848   0.36055   0.00000  Uiso   1.00
H109   H     0.54604   0.29631   0.29537   0.00000  Uiso   1.00
N110   N     0.38093   0.16668   0.25002   0.00000  Uiso   1.00
N111   N     0.61906   0.16665   0.25001   0.00000  Uiso   1.00
O112   O     0.46179   0.22775   0.25001   0.00000  Uiso   1.00
O113   O     0.53823   0.22774   0.25001   0.00000  Uiso   1.00
O114   O     0.44280   0.16666   0.32681   0.00000  Uiso   1.00
O115   O     0.51924   0.16665   0.32681   0.00000  Uiso   1.00
O116   O     0.46177   0.10559   0.25000   0.00000  Uiso   1.00
O117   O     0.53821   0.10558   0.25000   0.00000  Uiso   1.00
O118   O     0.48076   0.16668   0.17319   0.00000  Uiso   1.00
O119   O     0.55720   0.16667   0.17319   0.00000  Uiso   1.00
Zn120  Zn    0.44896   0.16667   0.25000   0.00000  Uiso   1.00
Zn121  Zn    0.55104   0.16666   0.25000   0.00000  Uiso   1.00
O122   O     0.61580   0.19360   0.08405   0.00000  Uiso   1.00
C123   C     0.64961   0.16614   0.09172   0.00000  Uiso   1.00
H124   H     0.63461   0.13548   0.10680   0.00000  Uiso   1.00
H125   H     0.66474   0.18062   0.12171   0.00000  Uiso   1.00
H126   H     0.34545   0.16152   0.05456   0.00000  Uiso   1.00
O127   O     0.55514   0.04310   0.29957   0.00000  Uiso   1.00
C128   C     0.60318   0.03608   0.27398   0.00000  Uiso   1.00
H129   H     0.62354   0.05929   0.28978   0.00000  Uiso   1.00
H130   H     0.61257   0.04024   0.23007   0.00000  Uiso   1.00
H131   H     0.61393   0.00468   0.28260   0.00000  Uiso   1.00
O132   O     0.44462   0.04089   0.19587   0.00000  Uiso   1.00
C133   C     0.39723   0.03692   0.22647   0.00000  Uiso   1.00
H134   H     0.37487   0.04460   0.20115   0.00000  Uiso   1.00
H135   H     0.38873   0.05919   0.26120   0.00000  Uiso   1.00
H136   H     0.38753   0.00486   0.24076   0.00000  Uiso   1.00
I137   I     0.44925   0.27846   0.15808   0.00000  Uiso   1.00
I138   I     0.37114   0.24204   0.32782   0.00000  Uiso   1.00
I139   I     0.58628   0.23266   0.34047   0.00000  Uiso   1.00
I140   I     0.64461   0.11439   0.37664   0.00000  Uiso   1.00
I141   I     0.66215   0.19681   0.46115   0.00000  Uiso   1.00
O142   O     0.40255   0.09752   0.38984   0.00000  Uiso   1.00
C143   C     0.42292   0.05786   0.37383   0.00000  Uiso   1.00
H144   H     0.40999   0.04493   0.34125   0.00000  Uiso   1.00
H145   H     0.46167   0.05956   0.35855   0.00000  Uiso   1.00
H146   H     0.41271   0.03581   0.40705   0.00000  Uiso   1.00
O147   O     0.42829   0.10025   0.06103   0.00000  Uiso   1.00
C148   C     0.44942   0.06105   0.06077   0.00000  Uiso   1.00
H149   H     0.48772   0.06421   0.05372   0.00000  Uiso   1.00
H150   H     0.44233   0.03875   0.03076   0.00000  Uiso   1.00
H151   H     0.43439   0.04740   0.10043   0.00000  Uiso   1.00
I152   I     0.34811   0.07081   0.01051   0.00000  Uiso   1.00
C153   C     0.83409   0.24631   0.24751   0.00000  Uiso   1.00
C154   C     0.81899   0.13209   0.48479   0.00000  Uiso   1.00
C155   C     0.83191   0.13684   0.42949   0.00000  Uiso   1.00
C156   C     0.85324   0.14296   0.01066   0.00000  Uiso   1.00
C157   C     0.90098   0.14820   0.47990   0.00000  Uiso   1.00
C158   C     0.91327   0.13610   0.42554   0.00000  Uiso   1.00
C159   C     0.87884   0.13073   0.40120   0.00000  Uiso   1.00
C160   C     0.84063   0.15168   0.06517   0.00000  Uiso   1.00
C161   C     0.92002   0.17216   0.06007   0.00000  Uiso   1.00
C162   C     0.79764   0.13944   0.40310   0.00000  Uiso   1.00
C163   C     0.86078   0.31216   0.27241   0.00000  Uiso   1.00
C164   C     0.80880   0.15837   0.34955   0.00000  Uiso   1.00
C165   C     0.86256   0.02149   0.27162   0.00000  Uiso   1.00
C166   C     0.83350   0.04225   0.24741   0.00000  Uiso   1.00
C167   C     0.80570   0.02023   0.22071   0.00000  Uiso   1.00
C168   C     0.81003   0.31054   0.21509   0.00000  Uiso   1.00
C169   C     0.83515   0.29026   0.24428   0.00000  Uiso   1.00
C170   C     0.98433   0.13937   0.21814   0.00000  Uiso   1.00
C171   C     0.69863   0.13960   0.21786   0.00000  Uiso   1.00
C172   C     0.68255   0.19477   0.28141   0.00000  Uiso   1.00
C173   C     0.96783   0.19377   0.28277   0.00000  Uiso   1.00
C174   C     0.83337   0.08672   0.24902   0.00000  Uiso   1.00
C175   C     0.85884   0.16704   0.14837   0.00000  Uiso   1.00
C176   C     0.93322   0.16599   0.00442   0.00000  Uiso   1.00
C177   C     0.87379   0.16371   0.09024   0.00000  Uiso   1.00
C178   C     0.75710   0.11621   0.42431   0.00000  Uiso   1.00
C179   C     0.74419   0.10513   0.47818   0.00000  Uiso   1.00
C180   C     0.77415   0.11435   0.00948   0.00000  Uiso   1.00
H181   H     0.97317   0.11710   0.19274   0.00000  Uiso   1.00
H182   H     0.72311   0.11832   0.19124   0.00000  Uiso   1.00
H183   H     0.80444   0.15073   0.08861   0.00000  Uiso   1.00
H184   H     0.88885   0.11848   0.36055   0.00000  Uiso   1.00
H185   H     0.87937   0.29631   0.29537   0.00000  Uiso   1.00
N186   N     0.71426   0.16668   0.25002   0.00000  Uiso   1.00
N187   N     0.95239   0.16665   0.25001   0.00000  Uiso   1.00
O188   O     0.79512   0.22775   0.25001   0.00000  Uiso   1.00
O189   O     0.87157   0.22774   0.25001   0.00000  Uiso   1.00
O190   O     0.77613   0.16666   0.32681   0.00000  Uiso   1.00
O191   O     0.85258   0.16665   0.32681   0.00000  Uiso   1.00
O192   O     0.79510   0.10559   0.25000   0.00000  Uiso   1.00
O193   O     0.87154   0.10558   0.25000   0.00000  Uiso   1.00
O194   O     0.81409   0.16668   0.17319   0.00000  Uiso   1.00
O195   O     0.89053   0.16667   0.17319   0.00000  Uiso   1.00
Zn196  Zn    0.78229   0.16667   0.25000   0.00000  Uiso   1.00
Zn197  Zn    0.88438   0.16666   0.25000   0.00000  Uiso   1.00
O198   O     0.94914   0.19360   0.08405   0.00000  Uiso   1.00
C199   C     0.98295   0.16614   0.09172   0.00000  Uiso   1.00
H200   H     0.96795   0.13548   0.10680   0.00000  Uiso   1.00
H201   H     0.99808   0.18062   0.12171   0.00000  Uiso   1.00
H202   H     0.67878   0.16152   0.05456   0.00000  Uiso   1.00
O203   O     0.88847   0.04310   0.29957   0.00000  Uiso   1.00
C204   C     0.93651   0.03608   0.27398   0.00000  Uiso   1.00
H205   H     0.95688   0.05929   0.28978   0.00000  Uiso   1.00
H206   H     0.94591   0.04024   0.23007   0.00000  Uiso   1.00
H207   H     0.94726   0.00468   0.28260   0.00000  Uiso   1.00
O208   O     0.77795   0.04089   0.19587   0.00000  Uiso   1.00
C209   C     0.73056   0.03692   0.22647   0.00000  Uiso   1.00
H210   H     0.70820   0.04460   0.20115   0.00000  Uiso   1.00
H211   H     0.72206   0.05919   0.26120   0.00000  Uiso   1.00
H212   H     0.72087   0.00486   0.24076   0.00000  Uiso   1.00
I213   I     0.78258   0.27846   0.15808   0.00000  Uiso   1.00
I214   I     0.70447   0.24204   0.32782   0.00000  Uiso   1.00
I215   I     0.91961   0.23266   0.34047   0.00000  Uiso   1.00
I216   I     0.97794   0.11439   0.37664   0.00000  Uiso   1.00
I217   I     0.99548   0.19681   0.46115   0.00000  Uiso   1.00
O218   O     0.73588   0.09752   0.38984   0.00000  Uiso   1.00
C219   C     0.75626   0.05786   0.37383   0.00000  Uiso   1.00
H220   H     0.74332   0.04493   0.34125   0.00000  Uiso   1.00
H221   H     0.79500   0.05956   0.35855   0.00000  Uiso   1.00
H222   H     0.74605   0.03581   0.40705   0.00000  Uiso   1.00
O223   O     0.76162   0.10025   0.06103   0.00000  Uiso   1.00
C224   C     0.78275   0.06105   0.06077   0.00000  Uiso   1.00
H225   H     0.82105   0.06421   0.05372   0.00000  Uiso   1.00
H226   H     0.77566   0.03875   0.03076   0.00000  Uiso   1.00
H227   H     0.76772   0.04740   0.10043   0.00000  Uiso   1.00
I228   I     0.68145   0.07081   0.01051   0.00000  Uiso   1.00
C229   C     0.16743   0.57964   0.24751   0.00000  Uiso   1.00
C230   C     0.15233   0.46542   0.48479   0.00000  Uiso   1.00
C231   C     0.16524   0.47018   0.42949   0.00000  Uiso   1.00
C232   C     0.18657   0.47629   0.01066   0.00000  Uiso   1.00
C233   C     0.23432   0.48154   0.47990   0.00000  Uiso   1.00
C234   C     0.24661   0.46943   0.42554   0.00000  Uiso   1.00
C235   C     0.21217   0.46406   0.40120   0.00000  Uiso   1.00
C236   C     0.17397   0.48502   0.06517   0.00000  Uiso   1.00
C237   C     0.25335   0.50550   0.06007   0.00000  Uiso   1.00
C238   C     0.13097   0.47278   0.40310   0.00000  Uiso   1.00
C239   C     0.19411   0.64549   0.27241   0.00000  Uiso   1.00
C240   C     0.14213   0.49170   0.34955   0.00000  Uiso   1.00
C241   C     0.19589   0.35482   0.27162   0.00000  Uiso   1.00
C242   C     0.16684   0.37559   0.24741   0.00000  Uiso   1.00
C243   C     0.13903   0.35356   0.22071   0.00000  Uiso   1.00
C244   C     0.14337   0.64387   0.21509   0.00000  Uiso   1.00
C245   C     0.16849   0.62360   0.24428   0.00000  Uiso   1.00
C246   C     0.31767   0.47270   0.21814   0.00000  Uiso   1.00
C247   C     0.03196   0.47294   0.21786   0.00000  Uiso   1.00
C248   C     0.01588   0.52811   0.28141   0.00000  Uiso   1.00
C249   C     0.30117   0.52710   0.28277   0.00000  Uiso   1.00
C250   C     0.16670   0.42005   0.24902   0.00000  Uiso   1.00
C251   C     0.19217   0.50038   0.14837   0.00000  Uiso   1.00
C252   C     0.26655   0.49932   0.00442   0.00000  Uiso   1.00
C253   C     0.20712   0.49704   0.09024   0.00000  Uiso   1.00
C254   C     0.09043   0.44954   0.42431   0.00000  Uiso   1.00
C255   C     0.07752   0.43846   0.47818   0.00000  Uiso   1.00
C256   C     0.10748   0.44768   0.00948   0.00000  Uiso   1.00
H257   H     0.30650   0.45043   0.19274   0.00000  Uiso   1.00
H258   H     0.05644   0.45165   0.19124   0.00000  Uiso   1.00
H259   H     0.13778   0.48406   0.08861   0.00000  Uiso   1.00
H260   H     0.22218   0.45182   0.36055   0.00000  Uiso   1.00
H261   H     0.21270   0.62964   0.29537   0.00000  Uiso   1.00
N262   N     0.04760   0.50001   0.25002   0.00000  Uiso   1.00
N263   N     0.28573   0.49998   0.25001   0.00000  Uiso   1.00
O264   O     0.12846   0.56108   0.25001   0.00000  Uiso   1.00
O265   O     0.20490   0.56107   0.25001   0.00000  Uiso   1.00
O266   O     0.10947   0.50000   0.32681   0.00000  Uiso   1.00
O267   O     0.18591   0.49999   0.32681   0.00000  Uiso   1.00
O268   O     0.12843   0.43893   0.25000   0.00000  Uiso   1.00
O269   O     0.20488   0.43892   0.25000   0.00000  Uiso   1.00
O270   O     0.14742   0.50001   0.17319   0.00000  Uiso   1.00
O271   O     0.22387   0.50000   0.17319   0.00000  Uiso   1.00
Zn272  Zn    0.11562   0.50001   0.25000   0.00000  Uiso   1.00
Zn273  Zn    0.21771   0.49999   0.25000   0.00000  Uiso   1.00
O274   O     0.28247   0.52693   0.08405   0.00000  Uiso   1.00
C275   C     0.31628   0.49947   0.09172   0.00000  Uiso   1.00
H276   H     0.30128   0.46881   0.10680   0.00000  Uiso   1.00
H277   H     0.33141   0.51396   0.12171   0.00000  Uiso   1.00
H278   H     0.01211   0.49485   0.05456   0.00000  Uiso   1.00
O279   O     0.22181   0.37644   0.29957   0.00000  Uiso   1.00
C280   C     0.26985   0.36942   0.27398   0.00000  Uiso   1.00
H281   H     0.29021   0.39263   0.28978   0.00000  Uiso   1.00
H282   H     0.27924   0.37357   0.23007   0.00000  Uiso   1.00
H283   H     0.28059   0.33801   0.28260   0.00000  Uiso   1.00
O284   O     0.11129   0.37422   0.19587   0.00000  Uiso   1.00
C285   C     0.06389   0.37026   0.22647   0.00000  Uiso   1.00
H286   H     0.04154   0.37793   0.20115   0.00000  Uiso   1.00
H287   H     0.05539   0.39252   0.26120   0.00000  Uiso   1.00
H288   H     0.05420   0.33820   0.24076   0.00000  Uiso   1.00
I289   I     0.11592   0.61179   0.15808   0.00000  Uiso   1.00
I290   I     0.03781   0.57537   0.32782   0.00000  Uiso   1.00
I291   I     0.25295   0.56600   0.34047   0.00000  Uiso   1.00
I292   I     0.31127   0.44772   0.37664   0.00000  Uiso   1.00
I293   I     0.32881   0.53015   0.46115   0.00000  Uiso   1.00
O294   O     0.06921   0.43086   0.38984   0.00000  Uiso   1.00
C295   C     0.08959   0.39120   0.37383   0.00000  Uiso   1.00
H296   H     0.07666   0.37826   0.34125   0.00000  Uiso   1.00
H297   H     0.12833   0.39289   0.35855   0.00000  Uiso   1.00
H298   H     0.07938   0.36914   0.40705   0.00000  Uiso   1.00
O299   O     0.09495   0.43358   0.06103   0.00000  Uiso   1.00
C300   C     0.11608   0.39438   0.06077   0.00000  Uiso   1.00
H301   H     0.15439   0.39754   0.05372   0.00000  Uiso   1.00
H302   H     0.10899   0.37208   0.03076   0.00000  Uiso   1.00
H303   H     0.10106   0.38073   0.10043   0.00000  Uiso   1.00
I304   I     0.01478   0.40415   0.01051   0.00000  Uiso   1.00
C305   C     0.50076   0.57964   0.24751   0.00000  Uiso   1.00
C306   C     0.48566   0.46542   0.48479   0.00000  Uiso   1.00
C307   C     0.49858   0.47018   0.42949   0.00000  Uiso   1.00
C308   C     0.51991   0.47629   0.01066   0.00000  Uiso   1.00
C309   C     0.56765   0.48154   0.47990   0.00000  Uiso   1.00
C310   C     0.57994   0.46943   0.42554   0.00000  Uiso   1.00
C311   C     0.54551   0.46406   0.40120   0.00000  Uiso   1.00
C312   C     0.50730   0.48502   0.06517   0.00000  Uiso   1.00
C313   C     0.58669   0.50550   0.06007   0.00000  Uiso   1.00
C314   C     0.46431   0.47278   0.40310   0.00000  Uiso   1.00
C315   C     0.52744   0.64549   0.27241   0.00000  Uiso   1.00
C316   C     0.47546   0.49170   0.34955   0.00000  Uiso   1.00
C317   C     0.52923   0.35482   0.27162   0.00000  Uiso   1.00
C318   C     0.50017   0.37559   0.24741   0.00000  Uiso   1.00
C319   C     0.47237   0.35356   0.22071   0.00000  Uiso   1.00
C320   C     0.47670   0.64387   0.21509   0.00000  Uiso   1.00
C321   C     0.50182   0.62360   0.24428   0.00000  Uiso   1.00
C322   C     0.65100   0.47270   0.21814   0.00000  Uiso   1.00
C323   C     0.36529   0.47294   0.21786   0.00000  Uiso   1.00
C324   C     0.34922   0.52811   0.28141   0.00000  Uiso   1.00
C325   C     0.63450   0.52710   0.28277   0.00000  Uiso   1.00
C326   C     0.50004   0.42005   0.24902   0.00000  Uiso   1.00
C327   C     0.52551   0.50038   0.14837   0.00000  Uiso   1.00
C328   C     0.59988   0.49932   0.00442   0.00000  Uiso   1.00
C329   C     0.54046   0.49704   0.09024   0.00000  Uiso   1.00
C330   C     0.42377   0.44954   0.42431   0.00000  Uiso   1.00
C331   C     0.41085   0.43846   0.47818   0.00000  Uiso   1.00
C332   C     0.44082   0.44768   0.00948   0.00000  Uiso   1.00
H333   H     0.63983   0.45043   0.19274   0.00000  Uiso   1.00
H334   H     0.38977   0.45165   0.19124   0.00000  Uiso   1.00
H335   H     0.47111   0.48406   0.08861   0.00000  Uiso   1.00
H336   H     0.55551   0.45182   0.36055   0.00000  Uiso   1.00
H337   H     0.54604   0.62964   0.29537   0.00000  Uiso   1.00
N338   N     0.38093   0.50001   0.25002   0.00000  Uiso   1.00
N339   N     0.61906   0.49998   0.25001   0.00000  Uiso   1.00
O340   O     0.46179   0.56108   0.25001   0.00000  Uiso   1.00
O341   O     0.53823   0.56107   0.25001   0.00000  Uiso   1.00
O342   O     0.44280   0.50000   0.32681   0.00000  Uiso   1.00
O343   O     0.51924   0.49999   0.32681   0.00000  Uiso   1.00
O344   O     0.46177   0.43893   0.25000   0.00000  Uiso   1.00
O345   O     0.53821   0.43892   0.25000   0.00000  Uiso   1.00
O346   O     0.48076   0.50001   0.17319   0.00000  Uiso   1.00
O347   O     0.55720   0.50000   0.17319   0.00000  Uiso   1.00
Zn348  Zn    0.44896   0.50001   0.25000   0.00000  Uiso   1.00
Zn349  Zn    0.55104   0.49999   0.25000   0.00000  Uiso   1.00
O350   O     0.61580   0.52693   0.08405   0.00000  Uiso   1.00
C351   C     0.64961   0.49947   0.09172   0.00000  Uiso   1.00
H352   H     0.63461   0.46881   0.10680   0.00000  Uiso   1.00
H353   H     0.66474   0.51396   0.12171   0.00000  Uiso   1.00
H354   H     0.34545   0.49485   0.05456   0.00000  Uiso   1.00
O355   O     0.55514   0.37644   0.29957   0.00000  Uiso   1.00
C356   C     0.60318   0.36942   0.27398   0.00000  Uiso   1.00
H357   H     0.62354   0.39263   0.28978   0.00000  Uiso   1.00
H358   H     0.61257   0.37357   0.23007   0.00000  Uiso   1.00
H359   H     0.61393   0.33801   0.28260   0.00000  Uiso   1.00
O360   O     0.44462   0.37422   0.19587   0.00000  Uiso   1.00
C361   C     0.39723   0.37026   0.22647   0.00000  Uiso   1.00
H362   H     0.37487   0.37793   0.20115   0.00000  Uiso   1.00
H363   H     0.38873   0.39252   0.26120   0.00000  Uiso   1.00
H364   H     0.38753   0.33820   0.24076   0.00000  Uiso   1.00
I365   I     0.44925   0.61179   0.15808   0.00000  Uiso   1.00
I366   I     0.37114   0.57537   0.32782   0.00000  Uiso   1.00
I367   I     0.58628   0.56600   0.34047   0.00000  Uiso   1.00
I368   I     0.64461   0.44772   0.37664   0.00000  Uiso   1.00
I369   I     0.66215   0.53015   0.46115   0.00000  Uiso   1.00
O370   O     0.40255   0.43086   0.38984   0.00000  Uiso   1.00
C371   C     0.42292   0.39120   0.37383   0.00000  Uiso   1.00
H372   H     0.40999   0.37826   0.34125   0.00000  Uiso   1.00
H373   H     0.46167   0.39289   0.35855   0.00000  Uiso   1.00
H374   H     0.41271   0.36914   0.40705   0.00000  Uiso   1.00
O375   O     0.42829   0.43358   0.06103   0.00000  Uiso   1.00
C376   C     0.44942   0.39438   0.06077   0.00000  Uiso   1.00
H377   H     0.48772   0.39754   0.05372   0.00000  Uiso   1.00
H378   H     0.44233   0.37208   0.03076   0.00000  Uiso   1.00
H379   H     0.43439   0.38073   0.10043   0.00000  Uiso   1.00
I380   I     0.34811   0.40415   0.01051   0.00000  Uiso   1.00
C381   C     0.83409   0.57964   0.24751   0.00000  Uiso   1.00
C382   C     0.81899   0.46542   0.48479   0.00000  Uiso   1.00
C383   C     0.83191   0.47018   0.42949   0.00000  Uiso   1.00
C384   C     0.85324   0.47629   0.01066   0.00000  Uiso   1.00
C385   C     0.90098   0.48154   0.47990   0.00000  Uiso   1.00
C386   C     0.91327   0.46943   0.42554   0.00000  Uiso   1.00
C387   C     0.87884   0.46406   0.40120   0.00000  Uiso   1.00
C388   C     0.84063   0.48502   0.06517   0.00000  Uiso   1.00
C389   C     0.92002   0.50550   0.06007   0.00000  Uiso   1.00
C390   C     0.79764   0.47278   0.40310   0.00000  Uiso   1.00
C391   C     0.86078   0.64549   0.27241   0.00000  Uiso   1.00
C392   C     0.80880   0.49170   0.34955   0.00000  Uiso   1.00
C393   C     0.86256   0.35482   0.27162   0.00000  Uiso   1.00
C394   C     0.83350   0.37559   0.24741   0.00000  Uiso   1.00
C395   C     0.80570   0.35356   0.22071   0.00000  Uiso   1.00
C396   C     0.81003   0.64387   0.21509   0.00000  Uiso   1.00
C397   C     0.83515   0.62360   0.24428   0.00000  Uiso   1.00
C398   C     0.98433   0.47270   0.21814   0.00000  Uiso   1.00
C399   C     0.69863   0.47294   0.21786   0.00000  Uiso   1.00
C400   C     0.68255   0.52811   0.28141   0.00000  Uiso   1.00
C401   C     0.96783   0.52710   0.28277   0.00000  Uiso   1.00
C402   C     0.83337   0.42005   0.24902   0.00000  Uiso   1.00
C403   C     0.85884   0.50038   0.14837   0.00000  Uiso   1.00
C404   C     0.93322   0.49932   0.00442   0.00000  Uiso   1.00
C405   C     0.87379   0.49704   0.09024   0.00000  Uiso   1.00
C406   C     0.75710   0.44954   0.42431   0.00000  Uiso   1.00
C407   C     0.74419   0.43846   0.47818   0.00000  Uiso   1.00
C408   C     0.77415   0.44768   0.00948   0.00000  Uiso   1.00
H409   H     0.97317   0.45043   0.19274   0.00000  Uiso   1.00
H410   H     0.72311   0.45165   0.19124   0.00000  Uiso   1.00
H411   H     0.80444   0.48406   0.08861   0.00000  Uiso   1.00
H412   H     0.88885   0.45182   0.36055   0.00000  Uiso   1.00
H413   H     0.87937   0.62964   0.29537   0.00000  Uiso   1.00
N414   N     0.71426   0.50001   0.25002   0.00000  Uiso   1.00
N415   N     0.95239   0.49998   0.25001   0.00000  Uiso   1.00
O416   O     0.79512   0.56108   0.25001   0.00000  Uiso   1.00
O417   O     0.87157   0.56107   0.25001   0.00000  Uiso   1.00
O418   O     0.77613   0.50000   0.32681   0.00000  Uiso   1.00
O419   O     0.85258   0.49999   0.32681   0.00000  Uiso   1.00
O420   O     0.79510   0.43893   0.25000   0.00000  Uiso   1.00
O421   O     0.87154   0.43892   0.25000   0.00000  Uiso   1.00
O422   O     0.81409   0.50001   0.17319   0.00000  Uiso   1.00
O423   O     0.89053   0.50000   0.17319   0.00000  Uiso   1.00
Zn424  Zn    0.78229   0.50001   0.25000   0.00000  Uiso   1.00
Zn425  Zn    0.88438   0.49999   0.25000   0.00000  Uiso   1.00
O426   O     0.94914   0.52693   0.08405   0.00000  Uiso   1.00
C427   C     0.98295   0.49947   0.09172   0.00000  Uiso   1.00
H428   H     0.96795   0.46881   0.10680   0.00000  Uiso   1.00
H429   H     0.99808   0.51396   0.12171   0.00000  Uiso   1.00
H430   H     0.67878   0.49485   0.05456   0.00000  Uiso   1.00
O431   O     0.88847   0.37644   0.29957   0.00000  Uiso   1.00
C432   C     0.93651   0.36942   0.27398   0.00000  Uiso   1.00
H433   H     0.95688   0.39263   0.28978   0.00000  Uiso   1.00
H434   H     0.94591   0.37357   0.23007   0.00000  Uiso   1.00
H435   H     0.94726   0.33801   0.28260   0.00000  Uiso   1.00
O436   O     0.77795   0.37422   0.19587   0.00000  Uiso   1.00
C437   C     0.73056   0.37026   0.22647   0.00000  Uiso   1.00
H438   H     0.70820   0.37793   0.20115   0.00000  Uiso   1.00
H439   H     0.72206   0.39252   0.26120   0.00000  Uiso   1.00
H440   H     0.72087   0.33820   0.24076   0.00000  Uiso   1.00
I441   I     0.78258   0.61179   0.15808   0.00000  Uiso   1.00
I442   I     0.70447   0.57537   0.32782   0.00000  Uiso   1.00
I443   I     0.91961   0.56600   0.34047   0.00000  Uiso   1.00
I444   I     0.97794   0.44772   0.37664   0.00000  Uiso   1.00
I445   I     0.99548   0.53015   0.46115   0.00000  Uiso   1.00
O446   O     0.73588   0.43086   0.38984   0.00000  Uiso   1.00
C447   C     0.75626   0.39120   0.37383   0.00000  Uiso   1.00
H448   H     0.74332   0.37826   0.34125   0.00000  Uiso   1.00
H449   H     0.79500   0.39289   0.35855   0.00000  Uiso   1.00
H450   H     0.74605   0.36914   0.40705   0.00000  Uiso   1.00
O451   O     0.76162   0.43358   0.06103   0.00000  Uiso   1.00
C452   C     0.78275   0.39438   0.06077   0.00000  Uiso   1.00
H453   H     0.82105   0.39754   0.05372   0.00000  Uiso   1.00
H454   H     0.77566   0.37208   0.03076   0.00000  Uiso   1.00
H455   H     0.76772   0.38073   0.10043   0.00000  Uiso   1.00
I456   I     0.68145   0.40415   0.01051   0.00000  Uiso   1.00
C457   C     0.16743   0.91298   0.24751   0.00000  Uiso   1.00
C458   C     0.15233   0.79876   0.48479   0.00000  Uiso   1.00
C459   C     0.16524   0.80351   0.42949   0.00000  Uiso   1.00
C460   C     0.18657   0.80962   0.01066   0.00000  Uiso   1.00
C461   C     0.23432   0.81487   0.47990   0.00000  Uiso   1.00
C462   C     0.24661   0.80277   0.42554   0.00000  Uiso   1.00
C463   C     0.21217   0.79740   0.40120   0.00000  Uiso   1.00
C464   C     0.17397   0.81835   0.06517   0.00000  Uiso   1.00
C465   C     0.25335   0.83883   0.06007   0.00000  Uiso   1.00
C466   C     0.13097   0.80611   0.40310   0.00000  Uiso   1.00
C467   C     0.19411   0.97882   0.27241   0.00000  Uiso   1.00
C468   C     0.14213   0.82503   0.34955   0.00000  Uiso   1.00
C469   C     0.19589   0.68816   0.27162   0.00000  Uiso   1.00
C470   C     0.16684   0.70892   0.24741   0.00000  Uiso   1.00
C471   C     0.13903   0.68690   0.22071   0.00000  Uiso   1.00
C472   C     0.14337   0.97720   0.21509   0.00000  Uiso   1.00
C473   C     0.16849   0.95693   0.24428   0.00000  Uiso   1.00
C474   C     0.31767   0.80603   0.21814   0.00000  Uiso   1.00
C475   C     0.03196   0.80627   0.21786   0.00000  Uiso   1.00
C476   C     0.01588   0.86144   0.28141   0.00000  Uiso   1.00
C477   C     0.30117   0.86044   0.28277   0.00000  Uiso   1.00
C478   C     0.16670   0.75339   0.24902   0.00000  Uiso   1.00
C479   C     0.19217   0.83371   0.14837   0.00000  Uiso   1.00
C480   C     0.26655   0.83266   0.00442   0.00000  Uiso   1.00
C481   C     0.20712   0.83037   0.09024   0.00000  Uiso   1.00
C482   C     0.09043   0.78288   0.42431   0.00000  Uiso   1.00
C483   C     0.07752   0.77180   0.47818   0.00000  Uiso   1.00
C484   C     0.10748   0.78101   0.00948   0.00000  Uiso   1.00
H485   H     0.30650   0.78376   0.19274   0.00000  Uiso   1.00
H486   H     0.05644   0.78499   0.19124   0.00000  Uiso   1.00
H487   H     0.13778   0.81739   0.08861   0.00000  Uiso   1.00
H488   H     0.22218   0.78515   0.36055   0.00000  Uiso   1.00
H489   H     0.21270   0.96298   0.29537   0.00000  Uiso   1.00
N490   N     0.04760   0.83334   0.25002   0.00000  Uiso   1.00
N491   N     0.28573   0.83331   0.25001   0.00000  Uiso   1.00
O492   O     0.12846   0.89442   0.25001   0.00000  Uiso   1.00
O493   O     0.20490   0.89441   0.25001   0.00000  Uiso   1.00
O494   O     0.10947   0.83333   0.32681   0.00000  Uiso   1.00
O495   O     0.18591   0.83332   0.32681   0.00000  Uiso   1.00
O496   O     0.12843   0.77226   0.25000   0.00000  Uiso   1.00
O497   O     0.20488   0.77225   0.25000   0.00000  Uiso   1.00
O498   O     0.14742   0.83335   0.17319   0.00000  Uiso   1.00
O499   O     0.22387   0.83334   0.17319   0.00000  Uiso   1.00
Zn500  Zn    0.11562   0.83334   0.25000   0.00000  Uiso   1.00
Zn501  Zn    0.21771   0.83333   0.25000   0.00000  Uiso   1.00
O502   O     0.28247   0.86026   0.08405   0.00000  Uiso   1.00
C503   C     0.31628   0.83280   0.09172   0.00000  Uiso   1.00
H504   H     0.30128   0.80214   0.10680   0.00000  Uiso   1.00
H505   H     0.33141   0.84729   0.12171   0.00000  Uiso   1.00
H506   H     0.01211   0.82819   0.05456   0.00000  Uiso   1.00
O507   O     0.22181   0.70977   0.29957   0.00000  Uiso   1.00
C508   C     0.26985   0.70275   0.27398   0.00000  Uiso   1.00
H509   H     0.29021   0.72596   0.28978   0.00000  Uiso   1.00
H510   H     0.27924   0.70691   0.23007   0.00000  Uiso   1.00
H511   H     0.28059   0.67134   0.28260   0.00000  Uiso   1.00
O512   O     0.11129   0.70755   0.19587   0.00000  Uiso   1.00
C513   C     0.06389   0.70359   0.22647   0.00000  Uiso   1.00
H514   H     0.04154   0.71127   0.20115   0.00000  Uiso   1.00
H515   H     0.05539   0.72585   0.26120   0.00000  Uiso   1.00
H516   H     0.05420   0.67153   0.24076   0.00000  Uiso   1.00
I517   I     0.11592   0.94512   0.15808   0.00000  Uiso   1.00
I518   I     0.03781   0.90871   0.32782   0.00000  Uiso   1.00
I519   I     0.25295   0.89933   0.34047   0.00000  Uiso   1.00
I520   I     0.31127   0.78105   0.37664   0.00000  Uiso   1.00
I521   I     0.32881   0.86348   0.46115   0.00000  Uiso   1.00
O522   O     0.06921   0.76419   0.38984   0.00000  Uiso   1.00
C523   C     0.08959   0.72453   0.37383   0.00000  Uiso   1.00
H524   H     0.07666   0.71160   0.34125   0.00000  Uiso   1.00
H525   H     0.12833   0.72622   0.35855   0.00000  Uiso   1.00
H526   H     0.07938   0.70248   0.40705   0.00000  Uiso   1.00
O527   O     0.09495   0.76692   0.06103   0.00000  Uiso   1.00
C528   C     0.11608   0.72771   0.06077   0.00000  Uiso   1.00
H529   H     0.15439   0.73088   0.05372   0.00000  Uiso   1.00
H530   H     0.10899   0.70542   0.03076   0.00000  Uiso   1.00
H531   H     0.10106   0.71407   0.10043   0.00000  Uiso   1.00
I532   I     0.01478   0.73748   0.01051   0.00000  Uiso   1.00
C533   C     0.50076   0.91298   0.24751   0.00000  Uiso   1.00
C534   C     0.48566   0.79876   0.48479   0.00000  Uiso   1.00
C535   C     0.49858   0.80351   0.42949   0.00000  Uiso   1.00
C536   C     0.51991   0.80962   0.01066   0.00000  Uiso   1.00
C537   C     0.56765   0.81487   0.47990   0.00000  Uiso   1.00
C538   C     0.57994   0.80277   0.42554   0.00000  Uiso   1.00
C539   C     0.54551   0.79740   0.40120   0.00000  Uiso   1.00
C540   C     0.50730   0.81835   0.06517   0.00000  Uiso   1.00
C541   C     0.58669   0.83883   0.06007   0.00000  Uiso   1.00
C542   C     0.46431   0.80611   0.40310   0.00000  Uiso   1.00
C543   C     0.52744   0.97882   0.27241   0.00000  Uiso   1.00
C544   C     0.47546   0.82503   0.34955   0.00000  Uiso   1.00
C545   C     0.52923   0.68816   0.27162   0.00000  Uiso   1.00
C546   C     0.50017   0.70892   0.24741   0.00000  Uiso   1.00
C547   C     0.47237   0.68690   0.22071   0.00000  Uiso   1.00
C548   C     0.47670   0.97720   0.21509   0.00000  Uiso   1.00
C549   C     0.50182   0.95693   0.24428   0.00000  Uiso   1.00
C550   C     0.65100   0.80603   0.21814   0.00000  Uiso   1.00
C551   C     0.36529   0.80627   0.21786   0.00000  Uiso   1.00
C552   C     0.34922   0.86144   0.28141   0.00000  Uiso   1.00
C553   C     0.63450   0.86044   0.28277   0.00000  Uiso   1.00
C554   C     0.50004   0.75339   0.24902   0.00000  Uiso   1.00
C555   C     0.52551   0.83371   0.14837   0.00000  Uiso   1.00
C556   C     0.59988   0.83266   0.00442   0.00000  Uiso   1.00
C557   C     0.54046   0.83037   0.09024   0.00000  Uiso   1.00
C558   C     0.42377   0.78288   0.42431   0.00000  Uiso   1.00
C559   C     0.41085   0.77180   0.47818   0.00000  Uiso   1.00
C560   C     0.44082   0.78101   0.00948   0.00000  Uiso   1.00
H561   H     0.63983   0.78376   0.19274   0.00000  Uiso   1.00
H562   H     0.38977   0.78499   0.19124   0.00000  Uiso   1.00
H563   H     0.47111   0.81739   0.08861   0.00000  Uiso   1.00
H564   H     0.55551   0.78515   0.36055   0.00000  Uiso   1.00
H565   H     0.54604   0.96298   0.29537   0.00000  Uiso   1.00
N566   N     0.38093   0.83334   0.25002   0.00000  Uiso   1.00
N567   N     0.61906   0.83331   0.25001   0.00000  Uiso   1.00
O568   O     0.46179   0.89442   0.25001   0.00000  Uiso   1.00
O569   O     0.53823   0.89441   0.25001   0.00000  Uiso   1.00
O570   O     0.44280   0.83333   0.32681   0.00000  Uiso   1.00
O571   O     0.51924   0.83332   0.32681   0.00000  Uiso   1.00
O572   O     0.46177   0.77226   0.25000   0.00000  Uiso   1.00
O573   O     0.53821   0.77225   0.25000   0.00000  Uiso   1.00
O574   O     0.48076   0.83335   0.17319   0.00000  Uiso   1.00
O575   O     0.55720   0.83334   0.17319   0.00000  Uiso   1.00
Zn576  Zn    0.44896   0.83334   0.25000   0.00000  Uiso   1.00
Zn577  Zn    0.55104   0.83333   0.25000   0.00000  Uiso   1.00
O578   O     0.61580   0.86026   0.08405   0.00000  Uiso   1.00
C579   C     0.64961   0.83280   0.09172   0.00000  Uiso   1.00
H580   H     0.63461   0.80214   0.10680   0.00000  Uiso   1.00
H581   H     0.66474   0.84729   0.12171   0.00000  Uiso   1.00
H582   H     0.34545   0.82819   0.05456   0.00000  Uiso   1.00
O583   O     0.55514   0.70977   0.29957   0.00000  Uiso   1.00
C584   C     0.60318   0.70275   0.27398   0.00000  Uiso   1.00
H585   H     0.62354   0.72596   0.28978   0.00000  Uiso   1.00
H586   H     0.61257   0.70691   0.23007   0.00000  Uiso   1.00
H587   H     0.61393   0.67134   0.28260   0.00000  Uiso   1.00
O588   O     0.44462   0.70755   0.19587   0.00000  Uiso   1.00
C589   C     0.39723   0.70359   0.22647   0.00000  Uiso   1.00
H590   H     0.37487   0.71127   0.20115   0.00000  Uiso   1.00
H591   H     0.38873   0.72585   0.26120   0.00000  Uiso   1.00
H592   H     0.38753   0.67153   0.24076   0.00000  Uiso   1.00
I593   I     0.44925   0.94512   0.15808   0.00000  Uiso   1.00
I594   I     0.37114   0.90871   0.32782   0.00000  Uiso   1.00
I595   I     0.58628   0.89933   0.34047   0.00000  Uiso   1.00
I596   I     0.64461   0.78105   0.37664   0.00000  Uiso   1.00
I597   I     0.66215   0.86348   0.46115   0.00000  Uiso   1.00
O598   O     0.40255   0.76419   0.38984   0.00000  Uiso   1.00
C599   C     0.42292   0.72453   0.37383   0.00000  Uiso   1.00
H600   H     0.40999   0.71160   0.34125   0.00000  Uiso   1.00
H601   H     0.46167   0.72622   0.35855   0.00000  Uiso   1.00
H602   H     0.41271   0.70248   0.40705   0.00000  Uiso   1.00
O603   O     0.42829   0.76692   0.06103   0.00000  Uiso   1.00
C604   C     0.44942   0.72771   0.06077   0.00000  Uiso   1.00
H605   H     0.48772   0.73088   0.05372   0.00000  Uiso   1.00
H606   H     0.44233   0.70542   0.03076   0.00000  Uiso   1.00
H607   H     0.43439   0.71407   0.10043   0.00000  Uiso   1.00
I608   I     0.34811   0.73748   0.01051   0.00000  Uiso   1.00
C609   C     0.83409   0.91298   0.24751   0.00000  Uiso   1.00
C610   C     0.81899   0.79876   0.48479   0.00000  Uiso   1.00
C611   C     0.83191   0.80351   0.42949   0.00000  Uiso   1.00
C612   C     0.85324   0.80962   0.01066   0.00000  Uiso   1.00
C613   C     0.90098   0.81487   0.47990   0.00000  Uiso   1.00
C614   C     0.91327   0.80277   0.42554   0.00000  Uiso   1.00
C615   C     0.87884   0.79740   0.40120   0.00000  Uiso   1.00
C616   C     0.84063   0.81835   0.06517   0.00000  Uiso   1.00
C617   C     0.92002   0.83883   0.06007   0.00000  Uiso   1.00
C618   C     0.79764   0.80611   0.40310   0.00000  Uiso   1.00
C619   C     0.86078   0.97882   0.27241   0.00000  Uiso   1.00
C620   C     0.80880   0.82503   0.34955   0.00000  Uiso   1.00
C621   C     0.86256   0.68816   0.27162   0.00000  Uiso   1.00
C622   C     0.83350   0.70892   0.24741   0.00000  Uiso   1.00
C623   C     0.80570   0.68690   0.22071   0.00000  Uiso   1.00
C624   C     0.81003   0.97720   0.21509   0.00000  Uiso   1.00
C625   C     0.83515   0.95693   0.24428   0.00000  Uiso   1.00
C626   C     0.98433   0.80603   0.21814   0.00000  Uiso   1.00
C627   C     0.69863   0.80627   0.21786   0.00000  Uiso   1.00
C628   C     0.68255   0.86144   0.28141   0.00000  Uiso   1.00
C629   C     0.96783   0.86044   0.28277   0.00000  Uiso   1.00
C630   C     0.83337   0.75339   0.24902   0.00000  Uiso   1.00
C631   C     0.85884   0.83371   0.14837   0.00000  Uiso   1.00
C632   C     0.93322   0.83266   0.00442   0.00000  Uiso   1.00
C633   C     0.87379   0.83037   0.09024   0.00000  Uiso   1.00
C634   C     0.75710   0.78288   0.42431   0.00000  Uiso   1.00
C635   C     0.74419   0.77180   0.47818   0.00000  Uiso   1.00
C636   C     0.77415   0.78101   0.00948   0.00000  Uiso   1.00
H637   H     0.97317   0.78376   0.19274   0.00000  Uiso   1.00
H638   H     0.72311   0.78499   0.19124   0.00000  Uiso   1.00
H639   H     0.80444   0.81739   0.08861   0.00000  Uiso   1.00
H640   H     0.88885   0.78515   0.36055   0.00000  Uiso   1.00
H641   H     0.87937   0.96298   0.29537   0.00000  Uiso   1.00
N642   N     0.71426   0.83334   0.25002   0.00000  Uiso   1.00
N643   N     0.95239   0.83331   0.25001   0.00000  Uiso   1.00
O644   O     0.79512   0.89442   0.25001   0.00000  Uiso   1.00
O645   O     0.87157   0.89441   0.25001   0.00000  Uiso   1.00
O646   O     0.77613   0.83333   0.32681   0.00000  Uiso   1.00
O647   O     0.85258   0.83332   0.32681   0.00000  Uiso   1.00
O648   O     0.79510   0.77226   0.25000   0.00000  Uiso   1.00
O649   O     0.87154   0.77225   0.25000   0.00000  Uiso   1.00
O650   O     0.81409   0.83335   0.17319   0.00000  Uiso   1.00
O651   O     0.89053   0.83334   0.17319   0.00000  Uiso   1.00
Zn652  Zn    0.78229   0.83334   0.25000   0.00000  Uiso   1.00
Zn653  Zn    0.88438   0.83333   0.25000   0.00000  Uiso   1.00
O654   O     0.94914   0.86026   0.08405   0.00000  Uiso   1.00
C655   C     0.98295   0.83280   0.09172   0.00000  Uiso   1.00
H656   H     0.96795   0.80214   0.10680   0.00000  Uiso   1.00
H657   H     0.99808   0.84729   0.12171   0.00000  Uiso   1.00
H658   H     0.67878   0.82819   0.05456   0.00000  Uiso   1.00
O659   O     0.88847   0.70977   0.29957   0.00000  Uiso   1.00
C660   C     0.93651   0.70275   0.27398   0.00000  Uiso   1.00
H661   H     0.95688   0.72596   0.28978   0.00000  Uiso   1.00
H662   H     0.94591   0.70691   0.23007   0.00000  Uiso   1.00
H663   H     0.94726   0.67134   0.28260   0.00000  Uiso   1.00
O664   O     0.77795   0.70755   0.19587   0.00000  Uiso   1.00
C665   C     0.73056   0.70359   0.22647   0.00000  Uiso   1.00
H666   H     0.70820   0.71127   0.20115   0.00000  Uiso   1.00
H667   H     0.72206   0.72585   0.26120   0.00000  Uiso   1.00
H668   H     0.72087   0.67153   0.24076   0.00000  Uiso   1.00
I669   I     0.78258   0.94512   0.15808   0.00000  Uiso   1.00
I670   I     0.70447   0.90871   0.32782   0.00000  Uiso   1.00
I671   I     0.91961   0.89933   0.34047   0.00000  Uiso   1.00
I672   I     0.97794   0.78105   0.37664   0.00000  Uiso   1.00
I673   I     0.99548   0.86348   0.46115   0.00000  Uiso   1.00
O674   O     0.73588   0.76419   0.38984   0.00000  Uiso   1.00
C675   C     0.75626   0.72453   0.37383   0.00000  Uiso   1.00
H676   H     0.74332   0.71160   0.34125   0.00000  Uiso   1.00
H677   H     0.79500   0.72622   0.35855   0.00000  Uiso   1.00
H678   H     0.74605   0.70248   0.40705   0.00000  Uiso   1.00
O679   O     0.76162   0.76692   0.06103   0.00000  Uiso   1.00
C680   C     0.78275   0.72771   0.06077   0.00000  Uiso   1.00
H681   H     0.82105   0.73088   0.05372   0.00000  Uiso   1.00
H682   H     0.77566   0.70542   0.03076   0.00000  Uiso   1.00
H683   H     0.76772   0.71407   0.10043   0.00000  Uiso   1.00
I684   I     0.68145   0.73748   0.01051   0.00000  Uiso   1.00
C685   C     0.16743   0.24631   0.74751   0.00000  Uiso   1.00
C686   C     0.15233   0.13209   0.98479   0.00000  Uiso   1.00
C687   C     0.16524   0.13684   0.92949   0.00000  Uiso   1.00
C688   C     0.18657   0.14296   0.51066   0.00000  Uiso   1.00
C689   C     0.23432   0.14820   0.97990   0.00000  Uiso   1.00
C690   C     0.24661   0.13610   0.92554   0.00000  Uiso   1.00
C691   C     0.21217   0.13073   0.90120   0.00000  Uiso   1.00
C692   C     0.17397   0.15168   0.56517   0.00000  Uiso   1.00
C693   C     0.25335   0.17216   0.56007   0.00000  Uiso   1.00
C694   C     0.13097   0.13944   0.90310   0.00000  Uiso   1.00
C695   C     0.19411   0.31216   0.77241   0.00000  Uiso   1.00
C696   C     0.14213   0.15837   0.84955   0.00000  Uiso   1.00
C697   C     0.19589   0.02149   0.77162   0.00000  Uiso   1.00
C698   C     0.16684   0.04225   0.74741   0.00000  Uiso   1.00
C699   C     0.13903   0.02023   0.72071   0.00000  Uiso   1.00
C700   C     0.14337   0.31054   0.71509   0.00000  Uiso   1.00
C701   C     0.16849   0.29026   0.74428   0.00000  Uiso   1.00
C702   C     0.31767   0.13937   0.71814   0.00000  Uiso   1.00
C703   C     0.03196   0.13960   0.71786   0.00000  Uiso   1.00
C704   C     0.01588   0.19477   0.78141   0.00000  Uiso   1.00
C705   C     0.30117   0.19377   0.78277   0.00000  Uiso   1.00
C706   C     0.16670   0.08672   0.74902   0.00000  Uiso   1.00
C707   C     0.19217   0.16704   0.64837   0.00000  Uiso   1.00
C708   C     0.26655   0.16599   0.50442   0.00000  Uiso   1.00
C709   C     0.20712   0.16371   0.59024   0.00000  Uiso   1.00
C710   C     0.09043   0.11621   0.92431   0.00000  Uiso   1.00
C711   C     0.07752   0.10513   0.97818   0.00000  Uiso   1.00
C712   C     0.10748   0.11435   0.50948   0.00000  Uiso   1.00
H713   H     0.30650   0.11710   0.69274   0.00000  Uiso   1.00
H714   H     0.05644   0.11832   0.69124   0.00000  Uiso   1.00
H715   H     0.13778   0.15073   0.58861   0.00000  Uiso   1.00
H716   H     0.22218   0.11848   0.86055   0.00000  Uiso   1.00
H717   H     0.21270   0.29631   0.79537   0.00000  Uiso   1.00
N718   N     0.04760   0.16668   0.75002   0.00000  Uiso   1.00
N719   N     0.28573   0.16665   0.75001   0.00000  Uiso   1.00
O720   O     0.12846   0.22775   0.75001   0.00000  Uiso   1.00
O721   O     0.20490   0.22774   0.75001   0.00000  Uiso   1.00
O722   O     0.10947   0.16666   0.82681   0.00000  Uiso   1.00
O723   O     0.18591   0.16665   0.82681   0.00000  Uiso   1.00
O724   O     0.12843   0.10559   0.75000   0.00000  Uiso   1.00
O725   O     0.20488   0.10558   0.75000   0.00000  Uiso   1.00
O726   O     0.14742   0.16668   0.67319   0.00000  Uiso   1.00
O727   O     0.22387   0.16667   0.67319   0.00000  Uiso   1.00
Zn728  Zn    0.11562   0.16667   0.75000   0.00000  Uiso   1.00
Zn729  Zn    0.21771   0.16666   0.75000   0.00000  Uiso   1.00
O730   O     0.28247   0.19360   0.58405   0.00000  Uiso   1.00
C731   C     0.31628   0.16614   0.59172   0.00000  Uiso   1.00
H732   H     0.30128   0.13548   0.60680   0.00000  Uiso   1.00
H733   H     0.33141   0.18062   0.62171   0.00000  Uiso   1.00
H734   H     0.01211   0.16152   0.55456   0.00000  Uiso   1.00
O735   O     0.22181   0.04310   0.79957   0.00000  Uiso   1.00
C736   C     0.26985   0.03608   0.77398   0.00000  Uiso   1.00
H737   H     0.29021   0.05929   0.78978   0.00000  Uiso   1.00
H738   H     0.27924   0.04024   0.73007   0.00000  Uiso   1.00
H739   H     0.28059   0.00468   0.78260   0.00000  Uiso   1.00
O740   O     0.11129   0.04089   0.69587   0.00000  Uiso   1.00
C741   C     0.06389   0.03692   0.72647   0.00000  Uiso   1.00
H742   H     0.04154   0.04460   0.70115   0.00000  Uiso   1.00
H743   H     0.05539   0.05919   0.76120   0.00000  Uiso   1.00
H744   H     0.05420   0.00486   0.74076   0.00000  Uiso   1.00
I745   I     0.11592   0.27846   0.65808   0.00000  Uiso   1.00
I746   I     0.03781   0.24204   0.82782   0.00000  Uiso   1.00
I747   I     0.25295   0.23266   0.84047   0.00000  Uiso   1.00
I748   I     0.31127   0.11439   0.87664   0.00000  Uiso   1.00
I749   I     0.32881   0.19681   0.96115   0.00000  Uiso   1.00
O750   O     0.06921   0.09752   0.88984   0.00000  Uiso   1.00
C751   C     0.08959   0.05786   0.87383   0.00000  Uiso   1.00
H752   H     0.07666   0.04493   0.84125   0.00000  Uiso   1.00
H753   H     0.12833   0.05956   0.85855   0.00000  Uiso   1.00
H754   H     0.07938   0.03581   0.90705   0.00000  Uiso   1.00
O755   O     0.09495   0.10025   0.56103   0.00000  Uiso   1.00
C756   C     0.11608   0.06105   0.56077   0.00000  Uiso   1.00
H757   H     0.15439   0.06421   0.55372   0.00000  Uiso   1.00
H758   H     0.10899   0.03875   0.53076   0.00000  Uiso   1.00
H759   H     0.10106   0.04740   0.60043   0.00000  Uiso   1.00
I760   I     0.01478   0.07081   0.51051   0.00000  Uiso   1.00
C761   C     0.50076   0.24631   0.74751   0.00000  Uiso   1.00
C762   C     0.48566   0.13209   0.98479   0.00000  Uiso   1.00
C763   C     0.49858   0.13684   0.92949   0.00000  Uiso   1.00
C764   C     0.51991   0.14296   0.51066   0.00000  Uiso   1.00
C765   C     0.56765   0.14820   0.97990   0.00000  Uiso   1.00
C766   C     0.57994   0.13610   0.92554   0.00000  Uiso   1.00
C767   C     0.54551   0.13073   0.90120   0.00000  Uiso   1.00
C768   C     0.50730   0.15168   0.56517   0.00000  Uiso   1.00
C769   C     0.58669   0.17216   0.56007   0.00000  Uiso   1.00
C770   C     0.46431   0.13944   0.90310   0.00000  Uiso   1.00
C771   C     0.52744   0.31216   0.77241   0.00000  Uiso   1.00
C772   C     0.47546   0.15837   0.84955   0.00000  Uiso   1.00
C773   C     0.52923   0.02149   0.77162   0.00000  Uiso   1.00
C774   C     0.50017   0.04225   0.74741   0.00000  Uiso   1.00
C775   C     0.47237   0.02023   0.72071   0.00000  Uiso   1.00
C776   C     0.47670   0.31054   0.71509   0.00000  Uiso   1.00
C777   C     0.50182   0.29026   0.74428   0.00000  Uiso   1.00
C778   C     0.65100   0.13937   0.71814   0.00000  Uiso   1.00
C779   C     0.36529   0.13960   0.71786   0.00000  Uiso   1.00
C780   C     0.34922   0.19477   0.78141   0.00000  Uiso   1.00
C781   C     0.63450   0.19377   0.78277   0.00000  Uiso   1.00
C782   C     0.50004   0.08672   0.74902   0.00000  Uiso   1.00
C783   C     0.52551   0.16704   0.64837   0.00000  Uiso   1.00
C784   C     0.59988   0.16599   0.50442   0.00000  Uiso   1.00
C785   C     0.54046   0.16371   0.59024   0.00000  Uiso   1.00
C786   C     0.42377   0.11621   0.92431   0.00000  Uiso   1.00
C787   C     0.41085   0.10513   0.97818   0.00000  Uiso   1.00
C788   C     0.44082   0.11435   0.50948   0.00000  Uiso   1.00
H789   H     0.63983   0.11710   0.69274   0.00000  Uiso   1.00
H790   H     0.38977   0.11832   0.69124   0.00000  Uiso   1.00
H791   H     0.47111   0.15073   0.58861   0.00000  Uiso   1.00
H792   H     0.55551   0.11848   0.86055   0.00000  Uiso   1.00
H793   H     0.54604   0.29631   0.79537   0.00000  Uiso   1.00
N794   N     0.38093   0.16668   0.75002   0.00000  Uiso   1.00
N795   N     0.61906   0.16665   0.75001   0.00000  Uiso   1.00
O796   O     0.46179   0.22775   0.75001   0.00000  Uiso   1.00
O797   O     0.53823   0.22774   0.75001   0.00000  Uiso   1.00
O798   O     0.44280   0.16666   0.82681   0.00000  Uiso   1.00
O799   O     0.51924   0.16665   0.82681   0.00000  Uiso   1.00
O800   O     0.46177   0.10559   0.75000   0.00000  Uiso   1.00
O801   O     0.53821   0.10558   0.75000   0.00000  Uiso   1.00
O802   O     0.48076   0.16668   0.67319   0.00000  Uiso   1.00
O803   O     0.55720   0.16667   0.67319   0.00000  Uiso   1.00
Zn804  Zn    0.44896   0.16667   0.75000   0.00000  Uiso   1.00
Zn805  Zn    0.55104   0.16666   0.75000   0.00000  Uiso   1.00
O806   O     0.61580   0.19360   0.58405   0.00000  Uiso   1.00
C807   C     0.64961   0.16614   0.59172   0.00000  Uiso   1.00
H808   H     0.63461   0.13548   0.60680   0.00000  Uiso   1.00
H809   H     0.66474   0.18062   0.62171   0.00000  Uiso   1.00
H810   H     0.34545   0.16152   0.55456   0.00000  Uiso   1.00
O811   O     0.55514   0.04310   0.79957   0.00000  Uiso   1.00
C812   C     0.60318   0.03608   0.77398   0.00000  Uiso   1.00
H813   H     0.62354   0.05929   0.78978   0.00000  Uiso   1.00
H814   H     0.61257   0.04024   0.73007   0.00000  Uiso   1.00
H815   H     0.61393   0.00468   0.78260   0.00000  Uiso   1.00
O816   O     0.44462   0.04089   0.69587   0.00000  Uiso   1.00
C817   C     0.39723   0.03692   0.72647   0.00000  Uiso   1.00
H818   H     0.37487   0.04460   0.70115   0.00000  Uiso   1.00
H819   H     0.38873   0.05919   0.76120   0.00000  Uiso   1.00
H820   H     0.38753   0.00486   0.74076   0.00000  Uiso   1.00
I821   I     0.44925   0.27846   0.65808   0.00000  Uiso   1.00
I822   I     0.37114   0.24204   0.82782   0.00000  Uiso   1.00
I823   I     0.58628   0.23266   0.84047   0.00000  Uiso   1.00
I824   I     0.64461   0.11439   0.87664   0.00000  Uiso   1.00
I825   I     0.66215   0.19681   0.96115   0.00000  Uiso   1.00
O826   O     0.40255   0.09752   0.88984   0.00000  Uiso   1.00
C827   C     0.42292   0.05786   0.87383   0.00000  Uiso   1.00
H828   H     0.40999   0.04493   0.84125   0.00000  Uiso   1.00
H829   H     0.46167   0.05956   0.85855   0.00000  Uiso   1.00
H830   H     0.41271   0.03581   0.90705   0.00000  Uiso   1.00
O831   O     0.42829   0.10025   0.56103   0.00000  Uiso   1.00
C832   C     0.44942   0.06105   0.56077   0.00000  Uiso   1.00
H833   H     0.48772   0.06421   0.55372   0.00000  Uiso   1.00
H834   H     0.44233   0.03875   0.53076   0.00000  Uiso   1.00
H835   H     0.43439   0.04740   0.60043   0.00000  Uiso   1.00
I836   I     0.34811   0.07081   0.51051   0.00000  Uiso   1.00
C837   C     0.83409   0.24631   0.74751   0.00000  Uiso   1.00
C838   C     0.81899   0.13209   0.98479   0.00000  Uiso   1.00
C839   C     0.83191   0.13684   0.92949   0.00000  Uiso   1.00
C840   C     0.85324   0.14296   0.51066   0.00000  Uiso   1.00
C841   C     0.90098   0.14820   0.97990   0.00000  Uiso   1.00
C842   C     0.91327   0.13610   0.92554   0.00000  Uiso   1.00
C843   C     0.87884   0.13073   0.90120   0.00000  Uiso   1.00
C844   C     0.84063   0.15168   0.56517   0.00000  Uiso   1.00
C845   C     0.92002   0.17216   0.56007   0.00000  Uiso   1.00
C846   C     0.79764   0.13944   0.90310   0.00000  Uiso   1.00
C847   C     0.86078   0.31216   0.77241   0.00000  Uiso   1.00
C848   C     0.80880   0.15837   0.84955   0.00000  Uiso   1.00
C849   C     0.86256   0.02149   0.77162   0.00000  Uiso   1.00
C850   C     0.83350   0.04225   0.74741   0.00000  Uiso   1.00
C851   C     0.80570   0.02023   0.72071   0.00000  Uiso   1.00
C852   C     0.81003   0.31054   0.71509   0.00000  Uiso   1.00
C853   C     0.83515   0.29026   0.74428   0.00000  Uiso   1.00
C854   C     0.98433   0.13937   0.71814   0.00000  Uiso   1.00
C855   C     0.69863   0.13960   0.71786   0.00000  Uiso   1.00
C856   C     0.68255   0.19477   0.78141   0.00000  Uiso   1.00
C857   C     0.96783   0.19377   0.78277   0.00000  Uiso   1.00
C858   C     0.83337   0.08672   0.74902   0.00000  Uiso   1.00
C859   C     0.85884   0.16704   0.64837   0.00000  Uiso   1.00
C860   C     0.93322   0.16599   0.50442   0.00000  Uiso   1.00
C861   C     0.87379   0.16371   0.59024   0.00000  Uiso   1.00
C862   C     0.75710   0.11621   0.92431   0.00000  Uiso   1.00
C863   C     0.74419   0.10513   0.97818   0.00000  Uiso   1.00
C864   C     0.77415   0.11435   0.50948   0.00000  Uiso   1.00
H865   H     0.97317   0.11710   0.69274   0.00000  Uiso   1.00
H866   H     0.72311   0.11832   0.69124   0.00000  Uiso   1.00
H867   H     0.80444   0.15073   0.58861   0.00000  Uiso   1.00
H868   H     0.88885   0.11848   0.86055   0.00000  Uiso   1.00
H869   H     0.87937   0.29631   0.79537   0.00000  Uiso   1.00
N870   N     0.71426   0.16668   0.75002   0.00000  Uiso   1.00
N871   N     0.95239   0.16665   0.75001   0.00000  Uiso   1.00
O872   O     0.79512   0.22775   0.75001   0.00000  Uiso   1.00
O873   O     0.87157   0.22774   0.75001   0.00000  Uiso   1.00
O874   O     0.77613   0.16666   0.82681   0.00000  Uiso   1.00
O875   O     0.85258   0.16665   0.82681   0.00000  Uiso   1.00
O876   O     0.79510   0.10559   0.75000   0.00000  Uiso   1.00
O877   O     0.87154   0.10558   0.75000   0.00000  Uiso   1.00
O878   O     0.81409   0.16668   0.67319   0.00000  Uiso   1.00
O879   O     0.89053   0.16667   0.67319   0.00000  Uiso   1.00
Zn880  Zn    0.78229   0.16667   0.75000   0.00000  Uiso   1.00
Zn881  Zn    0.88438   0.16666   0.75000   0.00000  Uiso   1.00
O882   O     0.94914   0.19360   0.58405   0.00000  Uiso   1.00
C883   C     0.98295   0.16614   0.59172   0.00000  Uiso   1.00
H884   H     0.96795   0.13548   0.60680   0.00000  Uiso   1.00
H885   H     0.99808   0.18062   0.62171   0.00000  Uiso   1.00
H886   H     0.67878   0.16152   0.55456   0.00000  Uiso   1.00
O887   O     0.88847   0.04310   0.79957   0.00000  Uiso   1.00
C888   C     0.93651   0.03608   0.77398   0.00000  Uiso   1.00
H889   H     0.95688   0.05929   0.78978   0.00000  Uiso   1.00
H890   H     0.94591   0.04024   0.73007   0.00000  Uiso   1.00
H891   H     0.94726   0.00468   0.78260   0.00000  Uiso   1.00
O892   O     0.77795   0.04089   0.69587   0.00000  Uiso   1.00
C893   C     0.73056   0.03692   0.72647   0.00000  Uiso   1.00
H894   H     0.70820   0.04460   0.70115   0.00000  Uiso   1.00
H895   H     0.72206   0.05919   0.76120   0.00000  Uiso   1.00
H896   H     0.72087   0.00486   0.74076   0.00000  Uiso   1.00
I897   I     0.78258   0.27846   0.65808   0.00000  Uiso   1.00
I898   I     0.70447   0.24204   0.82782   0.00000  Uiso   1.00
I899   I     0.91961   0.23266   0.84047   0.00000  Uiso   1.00
I900   I     0.97794   0.11439   0.87664   0.00000  Uiso   1.00
I901   I     0.99548   0.19681   0.96115   0.00000  Uiso   1.00
O902   O     0.73588   0.09752   0.88984   0.00000  Uiso   1.00
C903   C     0.75626   0.05786   0.87383   0.00000  Uiso   1.00
H904   H     0.74332   0.04493   0.84125   0.00000  Uiso   1.00
H905   H     0.79500   0.05956   0.85855   0.00000  Uiso   1.00
H906   H     0.74605   0.03581   0.90705   0.00000  Uiso   1.00
O907   O     0.76162   0.10025   0.56103   0.00000  Uiso   1.00
C908   C     0.78275   0.06105   0.56077   0.00000  Uiso   1.00
H909   H     0.82105   0.06421   0.55372   0.00000  Uiso   1.00
H910   H     0.77566   0.03875   0.53076   0.00000  Uiso   1.00
H911   H     0.76772   0.04740   0.60043   0.00000  Uiso   1.00
I912   I     0.68145   0.07081   0.51051   0.00000  Uiso   1.00
C913   C     0.16743   0.57964   0.74751   0.00000  Uiso   1.00
C914   C     0.15233   0.46542   0.98479   0.00000  Uiso   1.00
C915   C     0.16524   0.47018   0.92949   0.00000  Uiso   1.00
C916   C     0.18657   0.47629   0.51066   0.00000  Uiso   1.00
C917   C     0.23432   0.48154   0.97990   0.00000  Uiso   1.00
C918   C     0.24661   0.46943   0.92554   0.00000  Uiso   1.00
C919   C     0.21217   0.46406   0.90120   0.00000  Uiso   1.00
C920   C     0.17397   0.48502   0.56517   0.00000  Uiso   1.00
C921   C     0.25335   0.50550   0.56007   0.00000  Uiso   1.00
C922   C     0.13097   0.47278   0.90310   0.00000  Uiso   1.00
C923   C     0.19411   0.64549   0.77241   0.00000  Uiso   1.00
C924   C     0.14213   0.49170   0.84955   0.00000  Uiso   1.00
C925   C     0.19589   0.35482   0.77162   0.00000  Uiso   1.00
C926   C     0.16684   0.37559   0.74741   0.00000  Uiso   1.00
C927   C     0.13903   0.35356   0.72071   0.00000  Uiso   1.00
C928   C     0.14337   0.64387   0.71509   0.00000  Uiso   1.00
C929   C     0.16849   0.62360   0.74428   0.00000  Uiso   1.00
C930   C     0.31767   0.47270   0.71814   0.00000  Uiso   1.00
C931   C     0.03196   0.47294   0.71786   0.00000  Uiso   1.00
C932   C     0.01588   0.52811   0.78141   0.00000  Uiso   1.00
C933   C     0.30117   0.52710   0.78277   0.00000  Uiso   1.00
C934   C     0.16670   0.42005   0.74902   0.00000  Uiso   1.00
C935   C     0.19217   0.50038   0.64837   0.00000  Uiso   1.00
C936   C     0.26655   0.49932   0.50442   0.00000  Uiso   1.00
C937   C     0.20712   0.49704   0.59024   0.00000  Uiso   1.00
C938   C     0.09043   0.44954   0.92431   0.00000  Uiso   1.00
C939   C     0.07752   0.43846   0.97818   0.00000  Uiso   1.00
C940   C     0.10748   0.44768   0.50948   0.00000  Uiso   1.00
H941   H     0.30650   0.45043   0.69274   0.00000  Uiso   1.00
H942   H     0.05644   0.45165   0.69124   0.00000  Uiso   1.00
H943   H     0.13778   0.48406   0.58861   0.00000  Uiso   1.00
H944   H     0.22218   0.45182   0.86055   0.00000  Uiso   1.00
H945   H     0.21270   0.62964   0.79537   0.00000  Uiso   1.00
N946   N     0.04760   0.50001   0.75002   0.00000  Uiso   1.00
N947   N     0.28573   0.49998   0.75001   0.00000  Uiso   1.00
O948   O     0.12846   0.56108   0.75001   0.00000  Uiso   1.00
O949   O     0.20490   0.56107   0.75001   0.00000  Uiso   1.00
O950   O     0.10947   0.50000   0.82681   0.00000  Uiso   1.00
O951   O     0.18591   0.49999   0.82681   0.00000  Uiso   1.00
O952   O     0.12843   0.43893   0.75000   0.00000  Uiso   1.00
O953   O     0.20488   0.43892   0.75000   0.00000  Uiso   1.00
O954   O     0.14742   0.50001   0.67319   0.00000  Uiso   1.00
O955   O     0.22387   0.50000   0.67319   0.00000  Uiso   1.00
Zn956  Zn    0.11562   0.50001   0.75000   0.00000  Uiso   1.00
Zn957  Zn    0.21771   0.49999   0.75000   0.00000  Uiso   1.00
O958   O     0.28247   0.52693   0.58405   0.00000  Uiso   1.00
C959   C     0.31628   0.49947   0.59172   0.00000  Uiso   1.00
H960   H     0.30128   0.46881   0.60680   0.00000  Uiso   1.00
H961   H     0.33141   0.51396   0.62171   0.00000  Uiso   1.00
H962   H     0.01211   0.49485   0.55456   0.00000  Uiso   1.00
O963   O     0.22181   0.37644   0.79957   0.00000  Uiso   1.00
C964   C     0.26985   0.36942   0.77398   0.00000  Uiso   1.00
H965   H     0.29021   0.39263   0.78978   0.00000  Uiso   1.00
H966   H     0.27924   0.37357   0.73007   0.00000  Uiso   1.00
H967   H     0.28059   0.33801   0.78260   0.00000  Uiso   1.00
O968   O     0.11129   0.37422   0.69587   0.00000  Uiso   1.00
C969   C     0.06389   0.37026   0.72647   0.00000  Uiso   1.00
H970   H     0.04154   0.37793   0.70115   0.00000  Uiso   1.00
H971   H     0.05539   0.39252   0.76120   0.00000  Uiso   1.00
H972   H     0.05420   0.33820   0.74076   0.00000  Uiso   1.00
I973   I     0.11592   0.61179   0.65808   0.00000  Uiso   1.00
I974   I     0.03781   0.57537   0.82782   0.00000  Uiso   1.00
I975   I     0.25295   0.56600   0.84047   0.00000  Uiso   1.00
I976   I     0.31127   0.44772   0.87664   0.00000  Uiso   1.00
I977   I     0.32881   0.53015   0.96115   0.00000  Uiso   1.00
O978   O     0.06921   0.43086   0.88984   0.00000  Uiso   1.00
C979   C     0.08959   0.39120   0.87383   0.00000  Uiso   1.00
H980   H     0.07666   0.37826   0.84125   0.00000  Uiso   1.00
H981   H     0.12833   0.39289   0.85855   0.00000  Uiso   1.00
H982   H     0.07938   0.36914   0.90705   0.00000  Uiso   1.00
O983   O     0.09495   0.43358   0.56103   0.00000  Uiso   1.00
C984   C     0.11608   0.39438   0.56077   0.00000  Uiso   1.00
H985   H     0.15439   0.39754   0.55372   0.00000  Uiso   1.00
H986   H     0.10899   0.37208   0.53076   0.00000  Uiso   1.00
H987   H     0.10106   0.38073   0.60043   0.00000  Uiso   1.00
I988   I     0.01478   0.40415   0.51051   0.00000  Uiso   1.00
C989   C     0.50076   0.57964   0.74751   0.00000  Uiso   1.00
C990   C     0.48566   0.46542   0.98479   0.00000  Uiso   1.00
C991   C     0.49858   0.47018   0.92949   0.00000  Uiso   1.00
C992   C     0.51991   0.47629   0.51066   0.00000  Uiso   1.00
C993   C     0.56765   0.48154   0.97990   0.00000  Uiso   1.00
C994   C     0.57994   0.46943   0.92554   0.00000  Uiso   1.00
C995   C     0.54551   0.46406   0.90120   0.00000  Uiso   1.00
C996   C     0.50730   0.48502   0.56517   0.00000  Uiso   1.00
C997   C     0.58669   0.50550   0.56007   0.00000  Uiso   1.00
C998   C     0.46431   0.47278   0.90310   0.00000  Uiso   1.00
C999   C     0.52744   0.64549   0.77241   0.00000  Uiso   1.00
C1000  C     0.47546   0.49170   0.84955   0.00000  Uiso   1.00
C1001  C     0.52923   0.35482   0.77162   0.00000  Uiso   1.00
C1002  C     0.50017   0.37559   0.74741   0.00000  Uiso   1.00
C1003  C     0.47237   0.35356   0.72071   0.00000  Uiso   1.00
C1004  C     0.47670   0.64387   0.71509   0.00000  Uiso   1.00
C1005  C     0.50182   0.62360   0.74428   0.00000  Uiso   1.00
C1006  C     0.65100   0.47270   0.71814   0.00000  Uiso   1.00
C1007  C     0.36529   0.47294   0.71786   0.00000  Uiso   1.00
C1008  C     0.34922   0.52811   0.78141   0.00000  Uiso   1.00
C1009  C     0.63450   0.52710   0.78277   0.00000  Uiso   1.00
C1010  C     0.50004   0.42005   0.74902   0.00000  Uiso   1.00
C1011  C     0.52551   0.50038   0.64837   0.00000  Uiso   1.00
C1012  C     0.59988   0.49932   0.50442   0.00000  Uiso   1.00
C1013  C     0.54046   0.49704   0.59024   0.00000  Uiso   1.00
C1014  C     0.42377   0.44954   0.92431   0.00000  Uiso   1.00
C1015  C     0.41085   0.43846   0.97818   0.00000  Uiso   1.00
C1016  C     0.44082   0.44768   0.50948   0.00000  Uiso   1.00
H1017  H     0.63983   0.45043   0.69274   0.00000  Uiso   1.00
H1018  H     0.38977   0.45165   0.69124   0.00000  Uiso   1.00
H1019  H     0.47111   0.48406   0.58861   0.00000  Uiso   1.00
H1020  H     0.55551   0.45182   0.86055   0.00000  Uiso   1.00
H1021  H     0.54604   0.62964   0.79537   0.00000  Uiso   1.00
N1022  N     0.38093   0.50001   0.75002   0.00000  Uiso   1.00
N1023  N     0.61906   0.49998   0.75001   0.00000  Uiso   1.00
O1024  O     0.46179   0.56108   0.75001   0.00000  Uiso   1.00
O1025  O     0.53823   0.56107   0.75001   0.00000  Uiso   1.00
O1026  O     0.44280   0.50000   0.82681   0.00000  Uiso   1.00
O1027  O     0.51924   0.49999   0.82681   0.00000  Uiso   1.00
O1028  O     0.46177   0.43893   0.75000   0.00000  Uiso   1.00
O1029  O     0.53821   0.43892   0.75000   0.00000  Uiso   1.00
O1030  O     0.48076   0.50001   0.67319   0.00000  Uiso   1.00
O1031  O     0.55720   0.50000   0.67319   0.00000  Uiso   1.00
Zn1032 Zn    0.44896   0.50001   0.75000   0.00000  Uiso   1.00
Zn1033 Zn    0.55104   0.49999   0.75000   0.00000  Uiso   1.00
O1034  O     0.61580   0.52693   0.58405   0.00000  Uiso   1.00
C1035  C     0.64961   0.49947   0.59172   0.00000  Uiso   1.00
H1036  H     0.63461   0.46881   0.60680   0.00000  Uiso   1.00
H1037  H     0.66474   0.51396   0.62171   0.00000  Uiso   1.00
H1038  H     0.34545   0.49485   0.55456   0.00000  Uiso   1.00
O1039  O     0.55514   0.37644   0.79957   0.00000  Uiso   1.00
C1040  C     0.60318   0.36942   0.77398   0.00000  Uiso   1.00
H1041  H     0.62354   0.39263   0.78978   0.00000  Uiso   1.00
H1042  H     0.61257   0.37357   0.73007   0.00000  Uiso   1.00
H1043  H     0.61393   0.33801   0.78260   0.00000  Uiso   1.00
O1044  O     0.44462   0.37422   0.69587   0.00000  Uiso   1.00
C1045  C     0.39723   0.37026   0.72647   0.00000  Uiso   1.00
H1046  H     0.37487   0.37793   0.70115   0.00000  Uiso   1.00
H1047  H     0.38873   0.39252   0.76120   0.00000  Uiso   1.00
H1048  H     0.38753   0.33820   0.74076   0.00000  Uiso   1.00
I1049  I     0.44925   0.61179   0.65808   0.00000  Uiso   1.00
I1050  I     0.37114   0.57537   0.82782   0.00000  Uiso   1.00
I1051  I     0.58628   0.56600   0.84047   0.00000  Uiso   1.00
I1052  I     0.64461   0.44772   0.87664   0.00000  Uiso   1.00
I1053  I     0.66215   0.53015   0.96115   0.00000  Uiso   1.00
O1054  O     0.40255   0.43086   0.88984   0.00000  Uiso   1.00
C1055  C     0.42292   0.39120   0.87383   0.00000  Uiso   1.00
H1056  H     0.40999   0.37826   0.84125   0.00000  Uiso   1.00
H1057  H     0.46167   0.39289   0.85855   0.00000  Uiso   1.00
H1058  H     0.41271   0.36914   0.90705   0.00000  Uiso   1.00
O1059  O     0.42829   0.43358   0.56103   0.00000  Uiso   1.00
C1060  C     0.44942   0.39438   0.56077   0.00000  Uiso   1.00
H1061  H     0.48772   0.39754   0.55372   0.00000  Uiso   1.00
H1062  H     0.44233   0.37208   0.53076   0.00000  Uiso   1.00
H1063  H     0.43439   0.38073   0.60043   0.00000  Uiso   1.00
I1064  I     0.34811   0.40415   0.51051   0.00000  Uiso   1.00
C1065  C     0.83409   0.57964   0.74751   0.00000  Uiso   1.00
C1066  C     0.81899   0.46542   0.98479   0.00000  Uiso   1.00
C1067  C     0.83191   0.47018   0.92949   0.00000  Uiso   1.00
C1068  C     0.85324   0.47629   0.51066   0.00000  Uiso   1.00
C1069  C     0.90098   0.48154   0.97990   0.00000  Uiso   1.00
C1070  C     0.91327   0.46943   0.92554   0.00000  Uiso   1.00
C1071  C     0.87884   0.46406   0.90120   0.00000  Uiso   1.00
C1072  C     0.84063   0.48502   0.56517   0.00000  Uiso   1.00
C1073  C     0.92002   0.50550   0.56007   0.00000  Uiso   1.00
C1074  C     0.79764   0.47278   0.90310   0.00000  Uiso   1.00
C1075  C     0.86078   0.64549   0.77241   0.00000  Uiso   1.00
C1076  C     0.80880   0.49170   0.84955   0.00000  Uiso   1.00
C1077  C     0.86256   0.35482   0.77162   0.00000  Uiso   1.00
C1078  C     0.83350   0.37559   0.74741   0.00000  Uiso   1.00
C1079  C     0.80570   0.35356   0.72071   0.00000  Uiso   1.00
C1080  C     0.81003   0.64387   0.71509   0.00000  Uiso   1.00
C1081  C     0.83515   0.62360   0.74428   0.00000  Uiso   1.00
C1082  C     0.98433   0.47270   0.71814   0.00000  Uiso   1.00
C1083  C     0.69863   0.47294   0.71786   0.00000  Uiso   1.00
C1084  C     0.68255   0.52811   0.78141   0.00000  Uiso   1.00
C1085  C     0.96783   0.52710   0.78277   0.00000  Uiso   1.00
C1086  C     0.83337   0.42005   0.74902   0.00000  Uiso   1.00
C1087  C     0.85884   0.50038   0.64837   0.00000  Uiso   1.00
C1088  C     0.93322   0.49932   0.50442   0.00000  Uiso   1.00
C1089  C     0.87379   0.49704   0.59024   0.00000  Uiso   1.00
C1090  C     0.75710   0.44954   0.92431   0.00000  Uiso   1.00
C1091  C     0.74419   0.43846   0.97818   0.00000  Uiso   1.00
C1092  C     0.77415   0.44768   0.50948   0.00000  Uiso   1.00
H1093  H     0.97317   0.45043   0.69274   0.00000  Uiso   1.00
H1094  H     0.72311   0.45165   0.69124   0.00000  Uiso   1.00
H1095  H     0.80444   0.48406   0.58861   0.00000  Uiso   1.00
H1096  H     0.88885   0.45182   0.86055   0.00000  Uiso   1.00
H1097  H     0.87937   0.62964   0.79537   0.00000  Uiso   1.00
N1098  N     0.71426   0.50001   0.75002   0.00000  Uiso   1.00
N1099  N     0.95239   0.49998   0.75001   0.00000  Uiso   1.00
O1100  O     0.79512   0.56108   0.75001   0.00000  Uiso   1.00
O1101  O     0.87157   0.56107   0.75001   0.00000  Uiso   1.00
O1102  O     0.77613   0.50000   0.82681   0.00000  Uiso   1.00
O1103  O     0.85258   0.49999   0.82681   0.00000  Uiso   1.00
O1104  O     0.79510   0.43893   0.75000   0.00000  Uiso   1.00
O1105  O     0.87154   0.43892   0.75000   0.00000  Uiso   1.00
O1106  O     0.81409   0.50001   0.67319   0.00000  Uiso   1.00
O1107  O     0.89053   0.50000   0.67319   0.00000  Uiso   1.00
Zn1108 Zn    0.78229   0.50001   0.75000   0.00000  Uiso   1.00
Zn1109 Zn    0.88438   0.49999   0.75000   0.00000  Uiso   1.00
O1110  O     0.94914   0.52693   0.58405   0.00000  Uiso   1.00
C1111  C     0.98295   0.49947   0.59172   0.00000  Uiso   1.00
H1112  H     0.96795   0.46881   0.60680   0.00000  Uiso   1.00
H1113  H     0.99808   0.51396   0.62171   0.00000  Uiso   1.00
H1114  H     0.67878   0.49485   0.55456   0.00000  Uiso   1.00
O1115  O     0.88847   0.37644   0.79957   0.00000  Uiso   1.00
C1116  C     0.93651   0.36942   0.77398   0.00000  Uiso   1.00
H1117  H     0.95688   0.39263   0.78978   0.00000  Uiso   1.00
H1118  H     0.94591   0.37357   0.73007   0.00000  Uiso   1.00
H1119  H     0.94726   0.33801   0.78260   0.00000  Uiso   1.00
O1120  O     0.77795   0.37422   0.69587   0.00000  Uiso   1.00
C1121  C     0.73056   0.37026   0.72647   0.00000  Uiso   1.00
H1122  H     0.70820   0.37793   0.70115   0.00000  Uiso   1.00
H1123  H     0.72206   0.39252   0.76120   0.00000  Uiso   1.00
H1124  H     0.72087   0.33820   0.74076   0.00000  Uiso   1.00
I1125  I     0.78258   0.61179   0.65808   0.00000  Uiso   1.00
I1126  I     0.70447   0.57537   0.82782   0.00000  Uiso   1.00
I1127  I     0.91961   0.56600   0.84047   0.00000  Uiso   1.00
I1128  I     0.97794   0.44772   0.87664   0.00000  Uiso   1.00
I1129  I     0.99548   0.53015   0.96115   0.00000  Uiso   1.00
O1130  O     0.73588   0.43086   0.88984   0.00000  Uiso   1.00
C1131  C     0.75626   0.39120   0.87383   0.00000  Uiso   1.00
H1132  H     0.74332   0.37826   0.84125   0.00000  Uiso   1.00
H1133  H     0.79500   0.39289   0.85855   0.00000  Uiso   1.00
H1134  H     0.74605   0.36914   0.90705   0.00000  Uiso   1.00
O1135  O     0.76162   0.43358   0.56103   0.00000  Uiso   1.00
C1136  C     0.78275   0.39438   0.56077   0.00000  Uiso   1.00
H1137  H     0.82105   0.39754   0.55372   0.00000  Uiso   1.00
H1138  H     0.77566   0.37208   0.53076   0.00000  Uiso   1.00
H1139  H     0.76772   0.38073   0.60043   0.00000  Uiso   1.00
I1140  I     0.68145   0.40415   0.51051   0.00000  Uiso   1.00
C1141  C     0.16743   0.91298   0.74751   0.00000  Uiso   1.00
C1142  C     0.15233   0.79876   0.98479   0.00000  Uiso   1.00
C1143  C     0.16524   0.80351   0.92949   0.00000  Uiso   1.00
C1144  C     0.18657   0.80962   0.51066   0.00000  Uiso   1.00
C1145  C     0.23432   0.81487   0.97990   0.00000  Uiso   1.00
C1146  C     0.24661   0.80277   0.92554   0.00000  Uiso   1.00
C1147  C     0.21217   0.79740   0.90120   0.00000  Uiso   1.00
C1148  C     0.17397   0.81835   0.56517   0.00000  Uiso   1.00
C1149  C     0.25335   0.83883   0.56007   0.00000  Uiso   1.00
C1150  C     0.13097   0.80611   0.90310   0.00000  Uiso   1.00
C1151  C     0.19411   0.97882   0.77241   0.00000  Uiso   1.00
C1152  C     0.14213   0.82503   0.84955   0.00000  Uiso   1.00
C1153  C     0.19589   0.68816   0.77162   0.00000  Uiso   1.00
C1154  C     0.16684   0.70892   0.74741   0.00000  Uiso   1.00
C1155  C     0.13903   0.68690   0.72071   0.00000  Uiso   1.00
C1156  C     0.14337   0.97720   0.71509   0.00000  Uiso   1.00
C1157  C     0.16849   0.95693   0.74428   0.00000  Uiso   1.00
C1158  C     0.31767   0.80603   0.71814   0.00000  Uiso   1.00
C1159  C     0.03196   0.80627   0.71786   0.00000  Uiso   1.00
C1160  C     0.01588   0.86144   0.78141   0.00000  Uiso   1.00
C1161  C     0.30117   0.86044   0.78277   0.00000  Uiso   1.00
C1162  C     0.16670   0.75339   0.74902   0.00000  Uiso   1.00
C1163  C     0.19217   0.83371   0.64837   0.00000  Uiso   1.00
C1164  C     0.26655   0.83266   0.50442   0.00000  Uiso   1.00
C1165  C     0.20712   0.83037   0.59024   0.00000  Uiso   1.00
C1166  C     0.09043   0.78288   0.92431   0.00000  Uiso   1.00
C1167  C     0.07752   0.77180   0.97818   0.00000  Uiso   1.00
C1168  C     0.10748   0.78101   0.50948   0.00000  Uiso   1.00
H1169  H     0.30650   0.78376   0.69274   0.00000  Uiso   1.00
H1170  H     0.05644   0.78499   0.69124   0.00000  Uiso   1.00
H1171  H     0.13778   0.81739   0.58861   0.00000  Uiso   1.00
H1172  H     0.22218   0.78515   0.86055   0.00000  Uiso   1.00
H1173  H     0.21270   0.96298   0.79537   0.00000  Uiso   1.00
N1174  N     0.04760   0.83334   0.75002   0.00000  Uiso   1.00
N1175  N     0.28573   0.83331   0.75001   0.00000  Uiso   1.00
O1176  O     0.12846   0.89442   0.75001   0.00000  Uiso   1.00
O1177  O     0.20490   0.89441   0.75001   0.00000  Uiso   1.00
O1178  O     0.10947   0.83333   0.82681   0.00000  Uiso   1.00
O1179  O     0.18591   0.83332   0.82681   0.00000  Uiso   1.00
O1180  O     0.12843   0.77226   0.75000   0.00000  Uiso   1.00
O1181  O     0.20488   0.77225   0.75000   0.00000  Uiso   1.00
O1182  O     0.14742   0.83335   0.67319   0.00000  Uiso   1.00
O1183  O     0.22387   0.83334   0.67319   0.00000  Uiso   1.00
Zn1184 Zn    0.11562   0.83334   0.75000   0.00000  Uiso   1.00
Zn1185 Zn    0.21771   0.83333   0.75000   0.00000  Uiso   1.00
O1186  O     0.28247   0.86026   0.58405   0.00000  Uiso   1.00
C1187  C     0.31628   0.83280   0.59172   0.00000  Uiso   1.00
H1188  H     0.30128   0.80214   0.60680   0.00000  Uiso   1.00
H1189  H     0.33141   0.84729   0.62171   0.00000  Uiso   1.00
H1190  H     0.01211   0.82819   0.55456   0.00000  Uiso   1.00
O1191  O     0.22181   0.70977   0.79957   0.00000  Uiso   1.00
C1192  C     0.26985   0.70275   0.77398   0.00000  Uiso   1.00
H1193  H     0.29021   0.72596   0.78978   0.00000  Uiso   1.00
H1194  H     0.27924   0.70691   0.73007   0.00000  Uiso   1.00
H1195  H     0.28059   0.67134   0.78260   0.00000  Uiso   1.00
O1196  O     0.11129   0.70755   0.69587   0.00000  Uiso   1.00
C1197  C     0.06389   0.70359   0.72647   0.00000  Uiso   1.00
H1198  H     0.04154   0.71127   0.70115   0.00000  Uiso   1.00
H1199  H     0.05539   0.72585   0.76120   0.00000  Uiso   1.00
H1200  H     0.05420   0.67153   0.74076   0.00000  Uiso   1.00
I1201  I     0.11592   0.94512   0.65808   0.00000  Uiso   1.00
I1202  I     0.03781   0.90871   0.82782   0.00000  Uiso   1.00
I1203  I     0.25295   0.89933   0.84047   0.00000  Uiso   1.00
I1204  I     0.31127   0.78105   0.87664   0.00000  Uiso   1.00
I1205  I     0.32881   0.86348   0.96115   0.00000  Uiso   1.00
O1206  O     0.06921   0.76419   0.88984   0.00000  Uiso   1.00
C1207  C     0.08959   0.72453   0.87383   0.00000  Uiso   1.00
H1208  H     0.07666   0.71160   0.84125   0.00000  Uiso   1.00
H1209  H     0.12833   0.72622   0.85855   0.00000  Uiso   1.00
H1210  H     0.07938   0.70248   0.90705   0.00000  Uiso   1.00
O1211  O     0.09495   0.76692   0.56103   0.00000  Uiso   1.00
C1212  C     0.11608   0.72771   0.56077   0.00000  Uiso   1.00
H1213  H     0.15439   0.73088   0.55372   0.00000  Uiso   1.00
H1214  H     0.10899   0.70542   0.53076   0.00000  Uiso   1.00
H1215  H     0.10106   0.71407   0.60043   0.00000  Uiso   1.00
I1216  I     0.01478   0.73748   0.51051   0.00000  Uiso   1.00
C1217  C     0.50076   0.91298   0.74751   0.00000  Uiso   1.00
C1218  C     0.48566   0.79876   0.98479   0.00000  Uiso   1.00
C1219  C     0.49858   0.80351   0.92949   0.00000  Uiso   1.00
C1220  C     0.51991   0.80962   0.51066   0.00000  Uiso   1.00
C1221  C     0.56765   0.81487   0.97990   0.00000  Uiso   1.00
C1222  C     0.57994   0.80277   0.92554   0.00000  Uiso   1.00
C1223  C     0.54551   0.79740   0.90120   0.00000  Uiso   1.00
C1224  C     0.50730   0.81835   0.56517   0.00000  Uiso   1.00
C1225  C     0.58669   0.83883   0.56007   0.00000  Uiso   1.00
C1226  C     0.46431   0.80611   0.90310   0.00000  Uiso   1.00
C1227  C     0.52744   0.97882   0.77241   0.00000  Uiso   1.00
C1228  C     0.47546   0.82503   0.84955   0.00000  Uiso   1.00
C1229  C     0.52923   0.68816   0.77162   0.00000  Uiso   1.00
C1230  C     0.50017   0.70892   0.74741   0.00000  Uiso   1.00
C1231  C     0.47237   0.68690   0.72071   0.00000  Uiso   1.00
C1232  C     0.47670   0.97720   0.71509   0.00000  Uiso   1.00
C1233  C     0.50182   0.95693   0.74428   0.00000  Uiso   1.00
C1234  C     0.65100   0.80603   0.71814   0.00000  Uiso   1.00
C1235  C     0.36529   0.80627   0.71786   0.00000  Uiso   1.00
C1236  C     0.34922   0.86144   0.78141   0.00000  Uiso   1.00
C1237  C     0.63450   0.86044   0.78277   0.00000  Uiso   1.00
C1238  C     0.50004   0.75339   0.74902   0.00000  Uiso   1.00
C1239  C     0.52551   0.83371   0.64837   0.00000  Uiso   1.00
C1240  C     0.59988   0.83266   0.50442   0.00000  Uiso   1.00
C1241  C     0.54046   0.83037   0.59024   0.00000  Uiso   1.00
C1242  C     0.42377   0.78288   0.92431   0.00000  Uiso   1.00
C1243  C     0.41085   0.77180   0.97818   0.00000  Uiso   1.00
C1244  C     0.44082   0.78101   0.50948   0.00000  Uiso   1.00
H1245  H     0.63983   0.78376   0.69274   0.00000  Uiso   1.00
H1246  H     0.38977   0.78499   0.69124   0.00000  Uiso   1.00
H1247  H     0.47111   0.81739   0.58861   0.00000  Uiso   1.00
H1248  H     0.55551   0.78515   0.86055   0.00000  Uiso   1.00
H1249  H     0.54604   0.96298   0.79537   0.00000  Uiso   1.00
N1250  N     0.38093   0.83334   0.75002   0.00000  Uiso   1.00
N1251  N     0.61906   0.83331   0.75001   0.00000  Uiso   1.00
O1252  O     0.46179   0.89442   0.75001   0.00000  Uiso   1.00
O1253  O     0.53823   0.89441   0.75001   0.00000  Uiso   1.00
O1254  O     0.44280   0.83333   0.82681   0.00000  Uiso   1.00
O1255  O     0.51924   0.83332   0.82681   0.00000  Uiso   1.00
O1256  O     0.46177   0.77226   0.75000   0.00000  Uiso   1.00
O1257  O     0.53821   0.77225   0.75000   0.00000  Uiso   1.00
O1258  O     0.48076   0.83335   0.67319   0.00000  Uiso   1.00
O1259  O     0.55720   0.83334   0.67319   0.00000  Uiso   1.00
Zn1260 Zn    0.44896   0.83334   0.75000   0.00000  Uiso   1.00
Zn1261 Zn    0.55104   0.83333   0.75000   0.00000  Uiso   1.00
O1262  O     0.61580   0.86026   0.58405   0.00000  Uiso   1.00
C1263  C     0.64961   0.83280   0.59172   0.00000  Uiso   1.00
H1264  H     0.63461   0.80214   0.60680   0.00000  Uiso   1.00
H1265  H     0.66474   0.84729   0.62171   0.00000  Uiso   1.00
H1266  H     0.34545   0.82819   0.55456   0.00000  Uiso   1.00
O1267  O     0.55514   0.70977   0.79957   0.00000  Uiso   1.00
C1268  C     0.60318   0.70275   0.77398   0.00000  Uiso   1.00
H1269  H     0.62354   0.72596   0.78978   0.00000  Uiso   1.00
H1270  H     0.61257   0.70691   0.73007   0.00000  Uiso   1.00
H1271  H     0.61393   0.67134   0.78260   0.00000  Uiso   1.00
O1272  O     0.44462   0.70755   0.69587   0.00000  Uiso   1.00
C1273  C     0.39723   0.70359   0.72647   0.00000  Uiso   1.00
H1274  H     0.37487   0.71127   0.70115   0.00000  Uiso   1.00
H1275  H     0.38873   0.72585   0.76120   0.00000  Uiso   1.00
H1276  H     0.38753   0.67153   0.74076   0.00000  Uiso   1.00
I1277  I     0.44925   0.94512   0.65808   0.00000  Uiso   1.00
I1278  I     0.37114   0.90871   0.82782   0.00000  Uiso   1.00
I1279  I     0.58628   0.89933   0.84047   0.00000  Uiso   1.00
I1280  I     0.64461   0.78105   0.87664   0.00000  Uiso   1.00
I1281  I     0.66215   0.86348   0.96115   0.00000  Uiso   1.00
O1282  O     0.40255   0.76419   0.88984   0.00000  Uiso   1.00
C1283  C     0.42292   0.72453   0.87383   0.00000  Uiso   1.00
H1284  H     0.40999   0.71160   0.84125   0.00000  Uiso   1.00
H1285  H     0.46167   0.72622   0.85855   0.00000  Uiso   1.00
H1286  H     0.41271   0.70248   0.90705   0.00000  Uiso   1.00
O1287  O     0.42829   0.76692   0.56103   0.00000  Uiso   1.00
C1288  C     0.44942   0.72771   0.56077   0.00000  Uiso   1.00
H1289  H     0.48772   0.73088   0.55372   0.00000  Uiso   1.00
H1290  H     0.44233   0.70542   0.53076   0.00000  Uiso   1.00
H1291  H     0.43439   0.71407   0.60043   0.00000  Uiso   1.00
I1292  I     0.34811   0.73748   0.51051   0.00000  Uiso   1.00
C1293  C     0.83409   0.91298   0.74751   0.00000  Uiso   1.00
C1294  C     0.81899   0.79876   0.98479   0.00000  Uiso   1.00
C1295  C     0.83191   0.80351   0.92949   0.00000  Uiso   1.00
C1296  C     0.85324   0.80962   0.51066   0.00000  Uiso   1.00
C1297  C     0.90098   0.81487   0.97990   0.00000  Uiso   1.00
C1298  C     0.91327   0.80277   0.92554   0.00000  Uiso   1.00
C1299  C     0.87884   0.79740   0.90120   0.00000  Uiso   1.00
C1300  C     0.84063   0.81835   0.56517   0.00000  Uiso   1.00
C1301  C     0.92002   0.83883   0.56007   0.00000  Uiso   1.00
C1302  C     0.79764   0.80611   0.90310   0.00000  Uiso   1.00
C1303  C     0.86078   0.97882   0.77241   0.00000  Uiso   1.00
C1304  C     0.80880   0.82503   0.84955   0.00000  Uiso   1.00
C1305  C     0.86256   0.68816   0.77162   0.00000  Uiso   1.00
C1306  C     0.83350   0.70892   0.74741   0.00000  Uiso   1.00
C1307  C     0.80570   0.68690   0.72071   0.00000  Uiso   1.00
C1308  C     0.81003   0.97720   0.71509   0.00000  Uiso   1.00
C1309  C     0.83515   0.95693   0.74428   0.00000  Uiso   1.00
C1310  C     0.98433   0.80603   0.71814   0.00000  Uiso   1.00
C1311  C     0.69863   0.80627   0.71786   0.00000  Uiso   1.00
C1312  C     0.68255   0.86144   0.78141   0.00000  Uiso   1.00
C1313  C     0.96783   0.86044   0.78277   0.00000  Uiso   1.00
C1314  C     0.83337   0.75339   0.74902   0.00000  Uiso   1.00
C1315  C     0.85884   0.83371   0.64837   0.00000  Uiso   1.00
C1316  C     0.93322   0.83266   0.50442   0.00000  Uiso   1.00
C1317  C     0.87379   0.83037   0.59024   0.00000  Uiso   1.00
C1318  C     0.75710   0.78288   0.92431   0.00000  Uiso   1.00
C1319  C     0.74419   0.77180   0.97818   0.00000  Uiso   1.00
C1320  C     0.77415   0.78101   0.50948   0.00000  Uiso   1.00
H1321  H     0.97317   0.78376   0.69274   0.00000  Uiso   1.00
H1322  H     0.72311   0.78499   0.69124   0.00000  Uiso   1.00
H1323  H     0.80444   0.81739   0.58861   0.00000  Uiso   1.00
H1324  H     0.88885   0.78515   0.86055   0.00000  Uiso   1.00
H1325  H     0.87937   0.96298   0.79537   0.00000  Uiso   1.00
N1326  N     0.71426   0.83334   0.75002   0.00000  Uiso   1.00
N1327  N     0.95239   0.83331   0.75001   0.00000  Uiso   1.00
O1328  O     0.79512   0.89442   0.75001   0.00000  Uiso   1.00
O1329  O     0.87157   0.89441   0.75001   0.00000  Uiso   1.00
O1330  O     0.77613   0.83333   0.82681   0.00000  Uiso   1.00
O1331  O     0.85258   0.83332   0.82681   0.00000  Uiso   1.00
O1332  O     0.79510   0.77226   0.75000   0.00000  Uiso   1.00
O1333  O     0.87154   0.77225   0.75000   0.00000  Uiso   1.00
O1334  O     0.81409   0.83335   0.67319   0.00000  Uiso   1.00
O1335  O     0.89053   0.83334   0.67319   0.00000  Uiso   1.00
Zn1336 Zn    0.78229   0.83334   0.75000   0.00000  Uiso   1.00
Zn1337 Zn    0.88438   0.83333   0.75000   0.00000  Uiso   1.00
O1338  O     0.94914   0.86026   0.58405   0.00000  Uiso   1.00
C1339  C     0.98295   0.83280   0.59172   0.00000  Uiso   1.00
H1340  H     0.96795   0.80214   0.60680   0.00000  Uiso   1.00
H1341  H     0.99808   0.84729   0.62171   0.00000  Uiso   1.00
H1342  H     0.67878   0.82819   0.55456   0.00000  Uiso   1.00
O1343  O     0.88847   0.70977   0.79957   0.00000  Uiso   1.00
C1344  C     0.93651   0.70275   0.77398   0.00000  Uiso   1.00
H1345  H     0.95688   0.72596   0.78978   0.00000  Uiso   1.00
H1346  H     0.94591   0.70691   0.73007   0.00000  Uiso   1.00
H1347  H     0.94726   0.67134   0.78260   0.00000  Uiso   1.00
O1348  O     0.77795   0.70755   0.69587   0.00000  Uiso   1.00
C1349  C     0.73056   0.70359   0.72647   0.00000  Uiso   1.00
H1350  H     0.70820   0.71127   0.70115   0.00000  Uiso   1.00
H1351  H     0.72206   0.72585   0.76120   0.00000  Uiso   1.00
H1352  H     0.72087   0.67153   0.74076   0.00000  Uiso   1.00
I1353  I     0.78258   0.94512   0.65808   0.00000  Uiso   1.00
I1354  I     0.70447   0.90871   0.82782   0.00000  Uiso   1.00
I1355  I     0.91961   0.89933   0.84047   0.00000  Uiso   1.00
I1356  I     0.97794   0.78105   0.87664   0.00000  Uiso   1.00
I1357  I     0.99548   0.86348   0.96115   0.00000  Uiso   1.00
O1358  O     0.73588   0.76419   0.88984   0.00000  Uiso   1.00
C1359  C     0.75626   0.72453   0.87383   0.00000  Uiso   1.00
H1360  H     0.74332   0.71160   0.84125   0.00000  Uiso   1.00
H1361  H     0.79500   0.72622   0.85855   0.00000  Uiso   1.00
H1362  H     0.74605   0.70248   0.90705   0.00000  Uiso   1.00
O1363  O     0.76162   0.76692   0.56103   0.00000  Uiso   1.00
C1364  C     0.78275   0.72771   0.56077   0.00000  Uiso   1.00
H1365  H     0.82105   0.73088   0.55372   0.00000  Uiso   1.00
H1366  H     0.77566   0.70542   0.53076   0.00000  Uiso   1.00
H1367  H     0.76772   0.71407   0.60043   0.00000  Uiso   1.00
I1368  I     0.68145   0.73748   0.51051   0.00000  Uiso   1.00
loop_
_geom_bond_atom_site_label_1
_geom_bond_atom_site_label_2
_geom_bond_distance
_geom_bond_site_symmetry_2
_ccdc_geom_bond_type
C1     O37     1.295   .     A
C1     C17     1.416   .     S
C1     O36     1.292   .     A
C2     C3      1.400   .     A
C2     C688    1.425   .     S
C2     C712    1.430   .     S
C3     C7      1.393   .     A
C3     C10     1.404   .     A
C4     C8      1.387   .     A
C4     C686    1.425   1_554 S
C4     C689    1.430   1_554 S
C5     C6      1.407   .     A
C5     C688    1.430   .     S
C5     C708    1.419   .     S
C6     I64     2.092   .     S
C6     C7      1.373   .     A
C7     H32     1.081   .     S
C8     C25     1.392   .     A
C8     H31     1.077   .     S
C9     C25     1.406   .     A
C9     O46     1.386   .     S
C9     C24     1.404   .     A
C10    C26     1.397   .     A
C10    C12     1.493   .     S
C11    H33     1.075   .     S
C11    C17     1.388   .     A
C11    C241    1.371   .     S
C12    O38     1.322   .     A
C12    O39     1.299   .     A
C13    O51     1.386   .     S
C13    C14     1.404   .     A
C13    C467    1.371   1_545 S
C14    C22     1.427   .     S
C14    C15     1.412   .     A
C15    O56     1.384   .     S
C15    C472    1.388   1_545 S
C16    C17     1.400   .     A
C16    I61     2.145   .     S
C16    C243    1.388   .     S
C18    N35     1.369   .     A
C18    H29     1.081   .     S
C18    C95     1.425   .     S
C19    N34     1.368   .     A
C19    H30     1.080   .     S
C19    C170    1.425   1_455 S
C20    N34     1.378   .     A
C20    I62     2.137   .     S
C20    C173    1.430   1_455 S
C21    N35     1.377   .     A
C21    I63     2.133   .     S
C21    C96     1.430   .     S
C22    O41     1.297   .     A
C22    O40     1.294   .     A
C23    O42     1.305   .     A
C23    O43     1.302   .     A
C23    C25     1.458   .     S
C24    C689    1.419   1_554 S
C24    I749    2.129   1_554 S
C26    C27     1.408   .     A
C26    O66     1.373   .     S
C27    C712    1.410   .     S
C27    I760    2.133   .     S
C28    O71     1.383   .     S
C28    C686    1.430   1_554 S
C28    C711    1.410   1_554 S
N34    Zn44    2.038   .     S
N35    Zn45    2.038   .     S
O36    Zn44    1.996   .     S
O37    Zn45    2.002   .     S
O38    Zn44    1.970   .     S
O39    Zn45    1.958   .     S
O40    Zn44    2.002   .     S
O41    Zn45    1.996   .     S
O42    Zn44    1.958   .     S
O43    Zn45    1.970   .     S
O46    C47     1.411   .     S
C47    H49     1.108   .     S
C47    H48     1.114   .     S
C47    H126    1.106   .     S
H50    C199    1.106   1_455 S
O51    C52     1.413   .     S
C52    H55     1.111   .     S
C52    H54     1.115   .     S
C52    H53     1.106   .     S
O56    C57     1.416   .     S
C57    H59     1.110   .     S
C57    H60     1.114   .     S
C57    H58     1.109   .     S
I65    C708    2.129   .     S
O66    C67     1.413   .     S
C67    H68     1.108   .     S
C67    H69     1.111   .     S
C67    H70     1.110   .     S
O71    C72     1.412   .     S
C72    H75     1.107   .     S
C72    H74     1.114   .     S
C72    H73     1.111   .     S
I76    C711    2.133   1_554 S
C77    O113    1.295   .     A
C77    C93     1.416   .     S
C77    O112    1.292   .     A
C78    C79     1.400   .     A
C78    C764    1.425   .     S
C78    C788    1.430   .     S
C79    C83     1.393   .     A
C79    C86     1.404   .     A
C80    C84     1.387   .     A
C80    C762    1.425   1_554 S
C80    C765    1.430   1_554 S
C81    C82     1.407   .     A
C81    C764    1.430   .     S
C81    C784    1.419   .     S
C82    I140    2.092   .     S
C82    C83     1.373   .     A
C83    H108    1.081   .     S
C84    C101    1.392   .     A
C84    H107    1.077   .     S
C85    C101    1.406   .     A
C85    O122    1.386   .     S
C85    C100    1.404   .     A
C86    C102    1.397   .     A
C86    C88     1.493   .     S
C87    H109    1.075   .     S
C87    C93     1.388   .     A
C87    C317    1.371   .     S
C88    O114    1.322   .     A
C88    O115    1.299   .     A
C89    O127    1.386   .     S
C89    C90     1.404   .     A
C89    C543    1.371   1_545 S
C90    C98     1.427   .     S
C90    C91     1.412   .     A
C91    O132    1.384   .     S
C91    C548    1.388   1_545 S
C92    C93     1.400   .     A
C92    I137    2.145   .     S
C92    C319    1.388   .     S
C94    N111    1.369   .     A
C94    H105    1.081   .     S
C94    C171    1.425   .     S
C95    N110    1.368   .     A
C95    H106    1.080   .     S
C96    N110    1.378   .     A
C96    I138    2.137   .     S
C97    N111    1.377   .     A
C97    I139    2.133   .     S
C97    C172    1.430   .     S
C98    O117    1.297   .     A
C98    O116    1.294   .     A
C99    O118    1.305   .     A
C99    O119    1.302   .     A
C99    C101    1.458   .     S
C100   C765    1.419   1_554 S
C100   I825    2.129   1_554 S
C102   C103    1.408   .     A
C102   O142    1.373   .     S
C103   C788    1.410   .     S
C103   I836    2.133   .     S
C104   O147    1.383   .     S
C104   C762    1.430   1_554 S
C104   C787    1.410   1_554 S
N110   Zn120   2.038   .     S
N111   Zn121   2.038   .     S
O112   Zn120   1.996   .     S
O113   Zn121   2.002   .     S
O114   Zn120   1.970   .     S
O115   Zn121   1.958   .     S
O116   Zn120   2.002   .     S
O117   Zn121   1.996   .     S
O118   Zn120   1.958   .     S
O119   Zn121   1.970   .     S
O122   C123    1.411   .     S
C123   H125    1.108   .     S
C123   H124    1.114   .     S
C123   H202    1.106   .     S
O127   C128    1.413   .     S
C128   H131    1.111   .     S
C128   H130    1.115   .     S
C128   H129    1.106   .     S
O132   C133    1.416   .     S
C133   H135    1.110   .     S
C133   H136    1.114   .     S
C133   H134    1.109   .     S
I141   C784    2.129   .     S
O142   C143    1.413   .     S
C143   H144    1.108   .     S
C143   H145    1.111   .     S
C143   H146    1.110   .     S
O147   C148    1.412   .     S
C148   H151    1.107   .     S
C148   H150    1.114   .     S
C148   H149    1.111   .     S
I152   C787    2.133   1_554 S
C153   O189    1.295   .     A
C153   C169    1.416   .     S
C153   O188    1.292   .     A
C154   C155    1.400   .     A
C154   C840    1.425   .     S
C154   C864    1.430   .     S
C155   C159    1.393   .     A
C155   C162    1.404   .     A
C156   C160    1.387   .     A
C156   C838    1.425   1_554 S
C156   C841    1.430   1_554 S
C157   C158    1.407   .     A
C157   C840    1.430   .     S
C157   C860    1.419   .     S
C158   I216    2.092   .     S
C158   C159    1.373   .     A
C159   H184    1.081   .     S
C160   C177    1.392   .     A
C160   H183    1.077   .     S
C161   C177    1.406   .     A
C161   O198    1.386   .     S
C161   C176    1.404   .     A
C162   C178    1.397   .     A
C162   C164    1.493   .     S
C163   H185    1.075   .     S
C163   C169    1.388   .     A
C163   C393    1.371   .     S
C164   O190    1.322   .     A
C164   O191    1.299   .     A
C165   O203    1.386   .     S
C165   C166    1.404   .     A
C165   C619    1.371   1_545 S
C166   C174    1.427   .     S
C166   C167    1.412   .     A
C167   O208    1.384   .     S
C167   C624    1.388   1_545 S
C168   C169    1.400   .     A
C168   I213    2.145   .     S
C168   C395    1.388   .     S
C170   N187    1.369   .     A
C170   H181    1.081   .     S
C170   C19     1.425   1_655 S
C171   N186    1.368   .     A
C171   H182    1.080   .     S
C172   N186    1.378   .     A
C172   I214    2.137   .     S
C173   N187    1.377   .     A
C173   I215    2.133   .     S
C173   C20     1.430   1_655 S
C174   O193    1.297   .     A
C174   O192    1.294   .     A
C175   O194    1.305   .     A
C175   O195    1.302   .     A
C175   C177    1.458   .     S
C176   C841    1.419   1_554 S
C176   I901    2.129   1_554 S
C178   C179    1.408   .     A
C178   O218    1.373   .     S
C179   C864    1.410   .     S
C179   I912    2.133   .     S
C180   O223    1.383   .     S
C180   C838    1.430   1_554 S
C180   C863    1.410   1_554 S
N186   Zn196   2.038   .     S
N187   Zn197   2.038   .     S
O188   Zn196   1.996   .     S
O189   Zn197   2.002   .     S
O190   Zn196   1.970   .     S
O191   Zn197   1.958   .     S
O192   Zn196   2.002   .     S
O193   Zn197   1.996   .     S
O194   Zn196   1.958   .     S
O195   Zn197   1.970   .     S
O198   C199    1.411   .     S
C199   H201    1.108   .     S
C199   H200    1.114   .     S
C199   H50     1.106   1_655 S
O203   C204    1.413   .     S
C204   H207    1.111   .     S
C204   H206    1.115   .     S
C204   H205    1.106   .     S
O208   C209    1.416   .     S
C209   H211    1.110   .     S
C209   H212    1.114   .     S
C209   H210    1.109   .     S
I217   C860    2.129   .     S
O218   C219    1.413   .     S
C219   H220    1.108   .     S
C219   H221    1.111   .     S
C219   H222    1.110   .     S
O223   C224    1.412   .     S
C224   H227    1.107   .     S
C224   H226    1.114   .     S
C224   H225    1.111   .     S
I228   C863    2.133   1_554 S
C229   O265    1.295   .     A
C229   C245    1.416   .     S
C229   O264    1.292   .     A
C230   C231    1.400   .     A
C230   C916    1.425   .     S
C230   C940    1.430   .     S
C231   C235    1.393   .     A
C231   C238    1.404   .     A
C232   C236    1.387   .     A
C232   C914    1.425   1_554 S
C232   C917    1.430   1_554 S
C233   C234    1.407   .     A
C233   C916    1.430   .     S
C233   C936    1.419   .     S
C234   I292    2.092   .     S
C234   C235    1.373   .     A
C235   H260    1.081   .     S
C236   C253    1.392   .     A
C236   H259    1.077   .     S
C237   C253    1.406   .     A
C237   O274    1.386   .     S
C237   C252    1.404   .     A
C238   C254    1.397   .     A
C238   C240    1.493   .     S
C239   H261    1.075   .     S
C239   C245    1.388   .     A
C239   C469    1.371   .     S
C240   O266    1.322   .     A
C240   O267    1.299   .     A
C241   O279    1.386   .     S
C241   C242    1.404   .     A
C242   C250    1.427   .     S
C242   C243    1.412   .     A
C243   O284    1.384   .     S
C244   C245    1.400   .     A
C244   I289    2.145   .     S
C244   C471    1.388   .     S
C246   N263    1.369   .     A
C246   H257    1.081   .     S
C246   C323    1.425   .     S
C247   N262    1.368   .     A
C247   H258    1.080   .     S
C247   C398    1.425   1_455 S
C248   N262    1.378   .     A
C248   I290    2.137   .     S
C248   C401    1.430   1_455 S
C249   N263    1.377   .     A
C249   I291    2.133   .     S
C249   C324    1.430   .     S
C250   O269    1.297   .     A
C250   O268    1.294   .     A
C251   O270    1.305   .     A
C251   O271    1.302   .     A
C251   C253    1.458   .     S
C252   C917    1.419   1_554 S
C252   I977    2.129   1_554 S
C254   C255    1.408   .     A
C254   O294    1.373   .     S
C255   C940    1.410   .     S
C255   I988    2.133   .     S
C256   O299    1.383   .     S
C256   C914    1.430   1_554 S
C256   C939    1.410   1_554 S
N262   Zn272   2.038   .     S
N263   Zn273   2.038   .     S
O264   Zn272   1.996   .     S
O265   Zn273   2.002   .     S
O266   Zn272   1.970   .     S
O267   Zn273   1.958   .     S
O268   Zn272   2.002   .     S
O269   Zn273   1.996   .     S
O270   Zn272   1.958   .     S
O271   Zn273   1.970   .     S
O274   C275    1.411   .     S
C275   H277    1.108   .     S
C275   H276    1.114   .     S
C275   H354    1.106   .     S
H278   C427    1.106   1_455 S
O279   C280    1.413   .     S
C280   H283    1.111   .     S
C280   H282    1.115   .     S
C280   H281    1.106   .     S
O284   C285    1.416   .     S
C285   H287    1.110   .     S
C285   H288    1.114   .     S
C285   H286    1.109   .     S
I293   C936    2.129   .     S
O294   C295    1.413   .     S
C295   H296    1.108   .     S
C295   H297    1.111   .     S
C295   H298    1.110   .     S
O299   C300    1.412   .     S
C300   H303    1.107   .     S
C300   H302    1.114   .     S
C300   H301    1.111   .     S
I304   C939    2.133   1_554 S
C305   O341    1.295   .     A
C305   C321    1.416   .     S
C305   O340    1.292   .     A
C306   C307    1.400   .     A
C306   C992    1.425   .     S
C306   C1016   1.430   .     S
C307   C311    1.393   .     A
C307   C314    1.404   .     A
C308   C312    1.387   .     A
C308   C990    1.425   1_554 S
C308   C993    1.430   1_554 S
C309   C310    1.407   .     A
C309   C992    1.430   .     S
C309   C1012   1.419   .     S
C310   I368    2.092   .     S
C310   C311    1.373   .     A
C311   H336    1.081   .     S
C312   C329    1.392   .     A
C312   H335    1.077   .     S
C313   C329    1.406   .     A
C313   O350    1.386   .     S
C313   C328    1.404   .     A
C314   C330    1.397   .     A
C314   C316    1.493   .     S
C315   H337    1.075   .     S
C315   C321    1.388   .     A
C315   C545    1.371   .     S
C316   O342    1.322   .     A
C316   O343    1.299   .     A
C317   O355    1.386   .     S
C317   C318    1.404   .     A
C318   C326    1.427   .     S
C318   C319    1.412   .     A
C319   O360    1.384   .     S
C320   C321    1.400   .     A
C320   I365    2.145   .     S
C320   C547    1.388   .     S
C322   N339    1.369   .     A
C322   H333    1.081   .     S
C322   C399    1.425   .     S
C323   N338    1.368   .     A
C323   H334    1.080   .     S
C324   N338    1.378   .     A
C324   I366    2.137   .     S
C325   N339    1.377   .     A
C325   I367    2.133   .     S
C325   C400    1.430   .     S
C326   O345    1.297   .     A
C326   O344    1.294   .     A
C327   O346    1.305   .     A
C327   O347    1.302   .     A
C327   C329    1.458   .     S
C328   C993    1.419   1_554 S
C328   I1053   2.129   1_554 S
C330   C331    1.408   .     A
C330   O370    1.373   .     S
C331   C1016   1.410   .     S
C331   I1064   2.133   .     S
C332   O375    1.383   .     S
C332   C990    1.430   1_554 S
C332   C1015   1.410   1_554 S
N338   Zn348   2.038   .     S
N339   Zn349   2.038   .     S
O340   Zn348   1.996   .     S
O341   Zn349   2.002   .     S
O342   Zn348   1.970   .     S
O343   Zn349   1.958   .     S
O344   Zn348   2.002   .     S
O345   Zn349   1.996   .     S
O346   Zn348   1.958   .     S
O347   Zn349   1.970   .     S
O350   C351    1.411   .     S
C351   H353    1.108   .     S
C351   H352    1.114   .     S
C351   H430    1.106   .     S
O355   C356    1.413   .     S
C356   H359    1.111   .     S
C356   H358    1.115   .     S
C356   H357    1.106   .     S
O360   C361    1.416   .     S
C361   H363    1.110   .     S
C361   H364    1.114   .     S
C361   H362    1.109   .     S
I369   C1012   2.129   .     S
O370   C371    1.413   .     S
C371   H372    1.108   .     S
C371   H373    1.111   .     S
C371   H374    1.110   .     S
O375   C376    1.412   .     S
C376   H379    1.107   .     S
C376   H378    1.114   .     S
C376   H377    1.111   .     S
I380   C1015   2.133   1_554 S
C381   O417    1.295   .     A
C381   C397    1.416   .     S
C381   O416    1.292   .     A
C382   C383    1.400   .     A
C382   C1068   1.425   .     S
C382   C1092   1.430   .     S
C383   C387    1.393   .     A
C383   C390    1.404   .     A
C384   C388    1.387   .     A
C384   C1066   1.425   1_554 S
C384   C1069   1.430   1_554 S
C385   C386    1.407   .     A
C385   C1068   1.430   .     S
C385   C1088   1.419   .     S
C386   I444    2.092   .     S
C386   C387    1.373   .     A
C387   H412    1.081   .     S
C388   C405    1.392   .     A
C388   H411    1.077   .     S
C389   C405    1.406   .     A
C389   O426    1.386   .     S
C389   C404    1.404   .     A
C390   C406    1.397   .     A
C390   C392    1.493   .     S
C391   H413    1.075   .     S
C391   C397    1.388   .     A
C391   C621    1.371   .     S
C392   O418    1.322   .     A
C392   O419    1.299   .     A
C393   O431    1.386   .     S
C393   C394    1.404   .     A
C394   C402    1.427   .     S
C394   C395    1.412   .     A
C395   O436    1.384   .     S
C396   C397    1.400   .     A
C396   I441    2.145   .     S
C396   C623    1.388   .     S
C398   N415    1.369   .     A
C398   H409    1.081   .     S
C398   C247    1.425   1_655 S
C399   N414    1.368   .     A
C399   H410    1.080   .     S
C400   N414    1.378   .     A
C400   I442    2.137   .     S
C401   N415    1.377   .     A
C401   I443    2.133   .     S
C401   C248    1.430   1_655 S
C402   O421    1.297   .     A
C402   O420    1.294   .     A
C403   O422    1.305   .     A
C403   O423    1.302   .     A
C403   C405    1.458   .     S
C404   C1069   1.419   1_554 S
C404   I1129   2.129   1_554 S
C406   C407    1.408   .     A
C406   O446    1.373   .     S
C407   C1092   1.410   .     S
C407   I1140   2.133   .     S
C408   O451    1.383   .     S
C408   C1066   1.430   1_554 S
C408   C1091   1.410   1_554 S
N414   Zn424   2.038   .     S
N415   Zn425   2.038   .     S
O416   Zn424   1.996   .     S
O417   Zn425   2.002   .     S
O418   Zn424   1.970   .     S
O419   Zn425   1.958   .     S
O420   Zn424   2.002   .     S
O421   Zn425   1.996   .     S
O422   Zn424   1.958   .     S
O423   Zn425   1.970   .     S
O426   C427    1.411   .     S
C427   H429    1.108   .     S
C427   H428    1.114   .     S
C427   H278    1.106   1_655 S
O431   C432    1.413   .     S
C432   H435    1.111   .     S
C432   H434    1.115   .     S
C432   H433    1.106   .     S
O436   C437    1.416   .     S
C437   H439    1.110   .     S
C437   H440    1.114   .     S
C437   H438    1.109   .     S
I445   C1088   2.129   .     S
O446   C447    1.413   .     S
C447   H448    1.108   .     S
C447   H449    1.111   .     S
C447   H450    1.110   .     S
O451   C452    1.412   .     S
C452   H455    1.107   .     S
C452   H454    1.114   .     S
C452   H453    1.111   .     S
I456   C1091   2.133   1_554 S
C457   O493    1.295   .     A
C457   C473    1.416   .     S
C457   O492    1.292   .     A
C458   C459    1.400   .     A
C458   C1144   1.425   .     S
C458   C1168   1.430   .     S
C459   C463    1.393   .     A
C459   C466    1.404   .     A
C460   C464    1.387   .     A
C460   C1142   1.425   1_554 S
C460   C1145   1.430   1_554 S
C461   C462    1.407   .     A
C461   C1144   1.430   .     S
C461   C1164   1.419   .     S
C462   I520    2.092   .     S
C462   C463    1.373   .     A
C463   H488    1.081   .     S
C464   C481    1.392   .     A
C464   H487    1.077   .     S
C465   C481    1.406   .     A
C465   O502    1.386   .     S
C465   C480    1.404   .     A
C466   C482    1.397   .     A
C466   C468    1.493   .     S
C467   H489    1.075   .     S
C467   C473    1.388   .     A
C467   C13     1.371   1_565 S
C468   O494    1.322   .     A
C468   O495    1.299   .     A
C469   O507    1.386   .     S
C469   C470    1.404   .     A
C470   C478    1.427   .     S
C470   C471    1.412   .     A
C471   O512    1.384   .     S
C472   C473    1.400   .     A
C472   I517    2.145   .     S
C472   C15     1.388   1_565 S
C474   N491    1.369   .     A
C474   H485    1.081   .     S
C474   C551    1.425   .     S
C475   N490    1.368   .     A
C475   H486    1.080   .     S
C475   C626    1.425   1_455 S
C476   N490    1.378   .     A
C476   I518    2.137   .     S
C476   C629    1.430   1_455 S
C477   N491    1.377   .     A
C477   I519    2.133   .     S
C477   C552    1.430   .     S
C478   O497    1.297   .     A
C478   O496    1.294   .     A
C479   O498    1.305   .     A
C479   O499    1.302   .     A
C479   C481    1.458   .     S
C480   C1145   1.419   1_554 S
C480   I1205   2.129   1_554 S
C482   C483    1.408   .     A
C482   O522    1.373   .     S
C483   C1168   1.410   .     S
C483   I1216   2.133   .     S
C484   O527    1.383   .     S
C484   C1142   1.430   1_554 S
C484   C1167   1.410   1_554 S
N490   Zn500   2.038   .     S
N491   Zn501   2.038   .     S
O492   Zn500   1.996   .     S
O493   Zn501   2.002   .     S
O494   Zn500   1.970   .     S
O495   Zn501   1.958   .     S
O496   Zn500   2.002   .     S
O497   Zn501   1.996   .     S
O498   Zn500   1.958   .     S
O499   Zn501   1.970   .     S
O502   C503    1.411   .     S
C503   H505    1.108   .     S
C503   H504    1.114   .     S
C503   H582    1.106   .     S
H506   C655    1.106   1_455 S
O507   C508    1.413   .     S
C508   H511    1.111   .     S
C508   H510    1.115   .     S
C508   H509    1.106   .     S
O512   C513    1.416   .     S
C513   H515    1.110   .     S
C513   H516    1.114   .     S
C513   H514    1.109   .     S
I521   C1164   2.129   .     S
O522   C523    1.413   .     S
C523   H524    1.108   .     S
C523   H525    1.111   .     S
C523   H526    1.110   .     S
O527   C528    1.412   .     S
C528   H531    1.107   .     S
C528   H530    1.114   .     S
C528   H529    1.111   .     S
I532   C1167   2.133   1_554 S
C533   O569    1.295   .     A
C533   C549    1.416   .     S
C533   O568    1.292   .     A
C534   C535    1.400   .     A
C534   C1220   1.425   .     S
C534   C1244   1.430   .     S
C535   C539    1.393   .     A
C535   C542    1.404   .     A
C536   C540    1.387   .     A
C536   C1218   1.425   1_554 S
C536   C1221   1.430   1_554 S
C537   C538    1.407   .     A
C537   C1220   1.430   .     S
C537   C1240   1.419   .     S
C538   I596    2.092   .     S
C538   C539    1.373   .     A
C539   H564    1.081   .     S
C540   C557    1.392   .     A
C540   H563    1.077   .     S
C541   C557    1.406   .     A
C541   O578    1.386   .     S
C541   C556    1.404   .     A
C542   C558    1.397   .     A
C542   C544    1.493   .     S
C543   H565    1.075   .     S
C543   C549    1.388   .     A
C543   C89     1.371   1_565 S
C544   O570    1.322   .     A
C544   O571    1.299   .     A
C545   O583    1.386   .     S
C545   C546    1.404   .     A
C546   C554    1.427   .     S
C546   C547    1.412   .     A
C547   O588    1.384   .     S
C548   C549    1.400   .     A
C548   I593    2.145   .     S
C548   C91     1.388   1_565 S
C550   N567    1.369   .     A
C550   H561    1.081   .     S
C550   C627    1.425   .     S
C551   N566    1.368   .     A
C551   H562    1.080   .     S
C552   N566    1.378   .     A
C552   I594    2.137   .     S
C553   N567    1.377   .     A
C553   I595    2.133   .     S
C553   C628    1.430   .     S
C554   O573    1.297   .     A
C554   O572    1.294   .     A
C555   O574    1.305   .     A
C555   O575    1.302   .     A
C555   C557    1.458   .     S
C556   C1221   1.419   1_554 S
C556   I1281   2.129   1_554 S
C558   C559    1.408   .     A
C558   O598    1.373   .     S
C559   C1244   1.410   .     S
C559   I1292   2.133   .     S
C560   O603    1.383   .     S
C560   C1218   1.430   1_554 S
C560   C1243   1.410   1_554 S
N566   Zn576   2.038   .     S
N567   Zn577   2.038   .     S
O568   Zn576   1.996   .     S
O569   Zn577   2.002   .     S
O570   Zn576   1.970   .     S
O571   Zn577   1.958   .     S
O572   Zn576   2.002   .     S
O573   Zn577   1.996   .     S
O574   Zn576   1.958   .     S
O575   Zn577   1.970   .     S
O578   C579    1.411   .     S
C579   H581    1.108   .     S
C579   H580    1.114   .     S
C579   H658    1.106   .     S
O583   C584    1.413   .     S
C584   H587    1.111   .     S
C584   H586    1.115   .     S
C584   H585    1.106   .     S
O588   C589    1.416   .     S
C589   H591    1.110   .     S
C589   H592    1.114   .     S
C589   H590    1.109   .     S
I597   C1240   2.129   .     S
O598   C599    1.413   .     S
C599   H600    1.108   .     S
C599   H601    1.111   .     S
C599   H602    1.110   .     S
O603   C604    1.412   .     S
C604   H607    1.107   .     S
C604   H606    1.114   .     S
C604   H605    1.111   .     S
I608   C1243   2.133   1_554 S
C609   O645    1.295   .     A
C609   C625    1.416   .     S
C609   O644    1.292   .     A
C610   C611    1.400   .     A
C610   C1296   1.425   .     S
C610   C1320   1.430   .     S
C611   C615    1.393   .     A
C611   C618    1.404   .     A
C612   C616    1.387   .     A
C612   C1294   1.425   1_554 S
C612   C1297   1.430   1_554 S
C613   C614    1.407   .     A
C613   C1296   1.430   .     S
C613   C1316   1.419   .     S
C614   I672    2.092   .     S
C614   C615    1.373   .     A
C615   H640    1.081   .     S
C616   C633    1.392   .     A
C616   H639    1.077   .     S
C617   C633    1.406   .     A
C617   O654    1.386   .     S
C617   C632    1.404   .     A
C618   C634    1.397   .     A
C618   C620    1.493   .     S
C619   H641    1.075   .     S
C619   C625    1.388   .     A
C619   C165    1.371   1_565 S
C620   O646    1.322   .     A
C620   O647    1.299   .     A
C621   O659    1.386   .     S
C621   C622    1.404   .     A
C622   C630    1.427   .     S
C622   C623    1.412   .     A
C623   O664    1.384   .     S
C624   C625    1.400   .     A
C624   I669    2.145   .     S
C624   C167    1.388   1_565 S
C626   N643    1.369   .     A
C626   H637    1.081   .     S
C626   C475    1.425   1_655 S
C627   N642    1.368   .     A
C627   H638    1.080   .     S
C628   N642    1.378   .     A
C628   I670    2.137   .     S
C629   N643    1.377   .     A
C629   I671    2.133   .     S
C629   C476    1.430   1_655 S
C630   O649    1.297   .     A
C630   O648    1.294   .     A
C631   O650    1.305   .     A
C631   O651    1.302   .     A
C631   C633    1.458   .     S
C632   C1297   1.419   1_554 S
C632   I1357   2.129   1_554 S
C634   C635    1.408   .     A
C634   O674    1.373   .     S
C635   C1320   1.410   .     S
C635   I1368   2.133   .     S
C636   O679    1.383   .     S
C636   C1294   1.430   1_554 S
C636   C1319   1.410   1_554 S
N642   Zn652   2.038   .     S
N643   Zn653   2.038   .     S
O644   Zn652   1.996   .     S
O645   Zn653   2.002   .     S
O646   Zn652   1.970   .     S
O647   Zn653   1.958   .     S
O648   Zn652   2.002   .     S
O649   Zn653   1.996   .     S
O650   Zn652   1.958   .     S
O651   Zn653   1.970   .     S
O654   C655    1.411   .     S
C655   H657    1.108   .     S
C655   H656    1.114   .     S
C655   H506    1.106   1_655 S
O659   C660    1.413   .     S
C660   H663    1.111   .     S
C660   H662    1.115   .     S
C660   H661    1.106   .     S
O664   C665    1.416   .     S
C665   H667    1.110   .     S
C665   H668    1.114   .     S
C665   H666    1.109   .     S
I673   C1316   2.129   .     S
O674   C675    1.413   .     S
C675   H676    1.108   .     S
C675   H677    1.111   .     S
C675   H678    1.110   .     S
O679   C680    1.412   .     S
C680   H683    1.107   .     S
C680   H682    1.114   .     S
C680   H681    1.111   .     S
I684   C1319   2.133   1_554 S
C685   O721    1.295   .     A
C685   C701    1.416   .     S
C685   O720    1.292   .     A
C686   C687    1.400   .     A
C686   C4      1.425   1_556 S
C686   C28     1.430   1_556 S
C687   C691    1.393   .     A
C687   C694    1.404   .     A
C688   C692    1.387   .     A
C689   C690    1.407   .     A
C689   C4      1.430   1_556 S
C689   C24     1.419   1_556 S
C690   I748    2.092   .     S
C690   C691    1.373   .     A
C691   H716    1.081   .     S
C692   C709    1.392   .     A
C692   H715    1.077   .     S
C693   C709    1.406   .     A
C693   O730    1.386   .     S
C693   C708    1.404   .     A
C694   C710    1.397   .     A
C694   C696    1.493   .     S
C695   H717    1.075   .     S
C695   C701    1.388   .     A
C695   C925    1.371   .     S
C696   O722    1.322   .     A
C696   O723    1.299   .     A
C697   O735    1.386   .     S
C697   C698    1.404   .     A
C697   C1151   1.371   1_545 S
C698   C706    1.427   .     S
C698   C699    1.412   .     A
C699   O740    1.384   .     S
C699   C1156   1.388   1_545 S
C700   C701    1.400   .     A
C700   I745    2.145   .     S
C700   C927    1.388   .     S
C702   N719    1.369   .     A
C702   H713    1.081   .     S
C702   C779    1.425   .     S
C703   N718    1.368   .     A
C703   H714    1.080   .     S
C703   C854    1.425   1_455 S
C704   N718    1.378   .     A
C704   I746    2.137   .     S
C704   C857    1.430   1_455 S
C705   N719    1.377   .     A
C705   I747    2.133   .     S
C705   C780    1.430   .     S
C706   O725    1.297   .     A
C706   O724    1.294   .     A
C707   O726    1.305   .     A
C707   O727    1.302   .     A
C707   C709    1.458   .     S
C710   C711    1.408   .     A
C710   O750    1.373   .     S
C711   C28     1.410   1_556 S
C711   I76     2.133   1_556 S
C712   O755    1.383   .     S
N718   Zn728   2.038   .     S
N719   Zn729   2.038   .     S
O720   Zn728   1.996   .     S
O721   Zn729   2.002   .     S
O722   Zn728   1.970   .     S
O723   Zn729   1.958   .     S
O724   Zn728   2.002   .     S
O725   Zn729   1.996   .     S
O726   Zn728   1.958   .     S
O727   Zn729   1.970   .     S
O730   C731    1.411   .     S
C731   H733    1.108   .     S
C731   H732    1.114   .     S
C731   H810    1.106   .     S
H734   C883    1.106   1_455 S
O735   C736    1.413   .     S
C736   H739    1.111   .     S
C736   H738    1.115   .     S
C736   H737    1.106   .     S
O740   C741    1.416   .     S
C741   H743    1.110   .     S
C741   H744    1.114   .     S
C741   H742    1.109   .     S
I749   C24     2.129   1_556 S
O750   C751    1.413   .     S
C751   H752    1.108   .     S
C751   H753    1.111   .     S
C751   H754    1.110   .     S
O755   C756    1.412   .     S
C756   H759    1.107   .     S
C756   H758    1.114   .     S
C756   H757    1.111   .     S
C761   O797    1.295   .     A
C761   C777    1.416   .     S
C761   O796    1.292   .     A
C762   C763    1.400   .     A
C762   C80     1.425   1_556 S
C762   C104    1.430   1_556 S
C763   C767    1.393   .     A
C763   C770    1.404   .     A
C764   C768    1.387   .     A
C765   C766    1.407   .     A
C765   C80     1.430   1_556 S
C765   C100    1.419   1_556 S
C766   I824    2.092   .     S
C766   C767    1.373   .     A
C767   H792    1.081   .     S
C768   C785    1.392   .     A
C768   H791    1.077   .     S
C769   C785    1.406   .     A
C769   O806    1.386   .     S
C769   C784    1.404   .     A
C770   C786    1.397   .     A
C770   C772    1.493   .     S
C771   H793    1.075   .     S
C771   C777    1.388   .     A
C771   C1001   1.371   .     S
C772   O798    1.322   .     A
C772   O799    1.299   .     A
C773   O811    1.386   .     S
C773   C774    1.404   .     A
C773   C1227   1.371   1_545 S
C774   C782    1.427   .     S
C774   C775    1.412   .     A
C775   O816    1.384   .     S
C775   C1232   1.388   1_545 S
C776   C777    1.400   .     A
C776   I821    2.145   .     S
C776   C1003   1.388   .     S
C778   N795    1.369   .     A
C778   H789    1.081   .     S
C778   C855    1.425   .     S
C779   N794    1.368   .     A
C779   H790    1.080   .     S
C780   N794    1.378   .     A
C780   I822    2.137   .     S
C781   N795    1.377   .     A
C781   I823    2.133   .     S
C781   C856    1.430   .     S
C782   O801    1.297   .     A
C782   O800    1.294   .     A
C783   O802    1.305   .     A
C783   O803    1.302   .     A
C783   C785    1.458   .     S
C786   C787    1.408   .     A
C786   O826    1.373   .     S
C787   C104    1.410   1_556 S
C787   I152    2.133   1_556 S
C788   O831    1.383   .     S
N794   Zn804   2.038   .     S
N795   Zn805   2.038   .     S
O796   Zn804   1.996   .     S
O797   Zn805   2.002   .     S
O798   Zn804   1.970   .     S
O799   Zn805   1.958   .     S
O800   Zn804   2.002   .     S
O801   Zn805   1.996   .     S
O802   Zn804   1.958   .     S
O803   Zn805   1.970   .     S
O806   C807    1.411   .     S
C807   H809    1.108   .     S
C807   H808    1.114   .     S
C807   H886    1.106   .     S
O811   C812    1.413   .     S
C812   H815    1.111   .     S
C812   H814    1.115   .     S
C812   H813    1.106   .     S
O816   C817    1.416   .     S
C817   H819    1.110   .     S
C817   H820    1.114   .     S
C817   H818    1.109   .     S
I825   C100    2.129   1_556 S
O826   C827    1.413   .     S
C827   H828    1.108   .     S
C827   H829    1.111   .     S
C827   H830    1.110   .     S
O831   C832    1.412   .     S
C832   H835    1.107   .     S
C832   H834    1.114   .     S
C832   H833    1.111   .     S
C837   O873    1.295   .     A
C837   C853    1.416   .     S
C837   O872    1.292   .     A
C838   C839    1.400   .     A
C838   C156    1.425   1_556 S
C838   C180    1.430   1_556 S
C839   C843    1.393   .     A
C839   C846    1.404   .     A
C840   C844    1.387   .     A
C841   C842    1.407   .     A
C841   C156    1.430   1_556 S
C841   C176    1.419   1_556 S
C842   I900    2.092   .     S
C842   C843    1.373   .     A
C843   H868    1.081   .     S
C844   C861    1.392   .     A
C844   H867    1.077   .     S
C845   C861    1.406   .     A
C845   O882    1.386   .     S
C845   C860    1.404   .     A
C846   C862    1.397   .     A
C846   C848    1.493   .     S
C847   H869    1.075   .     S
C847   C853    1.388   .     A
C847   C1077   1.371   .     S
C848   O874    1.322   .     A
C848   O875    1.299   .     A
C849   O887    1.386   .     S
C849   C850    1.404   .     A
C849   C1303   1.371   1_545 S
C850   C858    1.427   .     S
C850   C851    1.412   .     A
C851   O892    1.384   .     S
C851   C1308   1.388   1_545 S
C852   C853    1.400   .     A
C852   I897    2.145   .     S
C852   C1079   1.388   .     S
C854   N871    1.369   .     A
C854   H865    1.081   .     S
C854   C703    1.425   1_655 S
C855   N870    1.368   .     A
C855   H866    1.080   .     S
C856   N870    1.378   .     A
C856   I898    2.137   .     S
C857   N871    1.377   .     A
C857   I899    2.133   .     S
C857   C704    1.430   1_655 S
C858   O877    1.297   .     A
C858   O876    1.294   .     A
C859   O878    1.305   .     A
C859   O879    1.302   .     A
C859   C861    1.458   .     S
C862   C863    1.408   .     A
C862   O902    1.373   .     S
C863   C180    1.410   1_556 S
C863   I228    2.133   1_556 S
C864   O907    1.383   .     S
N870   Zn880   2.038   .     S
N871   Zn881   2.038   .     S
O872   Zn880   1.996   .     S
O873   Zn881   2.002   .     S
O874   Zn880   1.970   .     S
O875   Zn881   1.958   .     S
O876   Zn880   2.002   .     S
O877   Zn881   1.996   .     S
O878   Zn880   1.958   .     S
O879   Zn881   1.970   .     S
O882   C883    1.411   .     S
C883   H885    1.108   .     S
C883   H884    1.114   .     S
C883   H734    1.106   1_655 S
O887   C888    1.413   .     S
C888   H891    1.111   .     S
C888   H890    1.115   .     S
C888   H889    1.106   .     S
O892   C893    1.416   .     S
C893   H895    1.110   .     S
C893   H896    1.114   .     S
C893   H894    1.109   .     S
I901   C176    2.129   1_556 S
O902   C903    1.413   .     S
C903   H904    1.108   .     S
C903   H905    1.111   .     S
C903   H906    1.110   .     S
O907   C908    1.412   .     S
C908   H911    1.107   .     S
C908   H910    1.114   .     S
C908   H909    1.111   .     S
C913   O949    1.295   .     A
C913   C929    1.416   .     S
C913   O948    1.292   .     A
C914   C915    1.400   .     A
C914   C232    1.425   1_556 S
C914   C256    1.430   1_556 S
C915   C919    1.393   .     A
C915   C922    1.404   .     A
C916   C920    1.387   .     A
C917   C918    1.407   .     A
C917   C232    1.430   1_556 S
C917   C252    1.419   1_556 S
C918   I976    2.092   .     S
C918   C919    1.373   .     A
C919   H944    1.081   .     S
C920   C937    1.392   .     A
C920   H943    1.077   .     S
C921   C937    1.406   .     A
C921   O958    1.386   .     S
C921   C936    1.404   .     A
C922   C938    1.397   .     A
C922   C924    1.493   .     S
C923   H945    1.075   .     S
C923   C929    1.388   .     A
C923   C1153   1.371   .     S
C924   O950    1.322   .     A
C924   O951    1.299   .     A
C925   O963    1.386   .     S
C925   C926    1.404   .     A
C926   C934    1.427   .     S
C926   C927    1.412   .     A
C927   O968    1.384   .     S
C928   C929    1.400   .     A
C928   I973    2.145   .     S
C928   C1155   1.388   .     S
C930   N947    1.369   .     A
C930   H941    1.081   .     S
C930   C1007   1.425   .     S
C931   N946    1.368   .     A
C931   H942    1.080   .     S
C931   C1082   1.425   1_455 S
C932   N946    1.378   .     A
C932   I974    2.137   .     S
C932   C1085   1.430   1_455 S
C933   N947    1.377   .     A
C933   I975    2.133   .     S
C933   C1008   1.430   .     S
C934   O953    1.297   .     A
C934   O952    1.294   .     A
C935   O954    1.305   .     A
C935   O955    1.302   .     A
C935   C937    1.458   .     S
C938   C939    1.408   .     A
C938   O978    1.373   .     S
C939   C256    1.410   1_556 S
C939   I304    2.133   1_556 S
C940   O983    1.383   .     S
N946   Zn956   2.038   .     S
N947   Zn957   2.038   .     S
O948   Zn956   1.996   .     S
O949   Zn957   2.002   .     S
O950   Zn956   1.970   .     S
O951   Zn957   1.958   .     S
O952   Zn956   2.002   .     S
O953   Zn957   1.996   .     S
O954   Zn956   1.958   .     S
O955   Zn957   1.970   .     S
O958   C959    1.411   .     S
C959   H961    1.108   .     S
C959   H960    1.114   .     S
C959   H1038   1.106   .     S
H962   C1111   1.106   1_455 S
O963   C964    1.413   .     S
C964   H967    1.111   .     S
C964   H966    1.115   .     S
C964   H965    1.106   .     S
O968   C969    1.416   .     S
C969   H971    1.110   .     S
C969   H972    1.114   .     S
C969   H970    1.109   .     S
I977   C252    2.129   1_556 S
O978   C979    1.413   .     S
C979   H980    1.108   .     S
C979   H981    1.111   .     S
C979   H982    1.110   .     S
O983   C984    1.412   .     S
C984   H987    1.107   .     S
C984   H986    1.114   .     S
C984   H985    1.111   .     S
C989   O1025   1.295   .     A
C989   C1005   1.416   .     S
C989   O1024   1.292   .     A
C990   C991    1.400   .     A
C990   C308    1.425   1_556 S
C990   C332    1.430   1_556 S
C991   C995    1.393   .     A
C991   C998    1.404   .     A
C992   C996    1.387   .     A
C993   C994    1.407   .     A
C993   C308    1.430   1_556 S
C993   C328    1.419   1_556 S
C994   I1052   2.092   .     S
C994   C995    1.373   .     A
C995   H1020   1.081   .     S
C996   C1013   1.392   .     A
C996   H1019   1.077   .     S
C997   C1013   1.406   .     A
C997   O1034   1.386   .     S
C997   C1012   1.404   .     A
C998   C1014   1.397   .     A
C998   C1000   1.493   .     S
C999   H1021   1.075   .     S
C999   C1005   1.388   .     A
C999   C1229   1.371   .     S
C1000  O1026   1.322   .     A
C1000  O1027   1.299   .     A
C1001  O1039   1.386   .     S
C1001  C1002   1.404   .     A
C1002  C1010   1.427   .     S
C1002  C1003   1.412   .     A
C1003  O1044   1.384   .     S
C1004  C1005   1.400   .     A
C1004  I1049   2.145   .     S
C1004  C1231   1.388   .     S
C1006  N1023   1.369   .     A
C1006  H1017   1.081   .     S
C1006  C1083   1.425   .     S
C1007  N1022   1.368   .     A
C1007  H1018   1.080   .     S
C1008  N1022   1.378   .     A
C1008  I1050   2.137   .     S
C1009  N1023   1.377   .     A
C1009  I1051   2.133   .     S
C1009  C1084   1.430   .     S
C1010  O1029   1.297   .     A
C1010  O1028   1.294   .     A
C1011  O1030   1.305   .     A
C1011  O1031   1.302   .     A
C1011  C1013   1.458   .     S
C1014  C1015   1.408   .     A
C1014  O1054   1.373   .     S
C1015  C332    1.410   1_556 S
C1015  I380    2.133   1_556 S
C1016  O1059   1.383   .     S
N1022  Zn1032  2.038   .     S
N1023  Zn1033  2.038   .     S
O1024  Zn1032  1.996   .     S
O1025  Zn1033  2.002   .     S
O1026  Zn1032  1.970   .     S
O1027  Zn1033  1.958   .     S
O1028  Zn1032  2.002   .     S
O1029  Zn1033  1.996   .     S
O1030  Zn1032  1.958   .     S
O1031  Zn1033  1.970   .     S
O1034  C1035   1.411   .     S
C1035  H1037   1.108   .     S
C1035  H1036   1.114   .     S
C1035  H1114   1.106   .     S
O1039  C1040   1.413   .     S
C1040  H1043   1.111   .     S
C1040  H1042   1.115   .     S
C1040  H1041   1.106   .     S
O1044  C1045   1.416   .     S
C1045  H1047   1.110   .     S
C1045  H1048   1.114   .     S
C1045  H1046   1.109   .     S
I1053  C328    2.129   1_556 S
O1054  C1055   1.413   .     S
C1055  H1056   1.108   .     S
C1055  H1057   1.111   .     S
C1055  H1058   1.110   .     S
O1059  C1060   1.412   .     S
C1060  H1063   1.107   .     S
C1060  H1062   1.114   .     S
C1060  H1061   1.111   .     S
C1065  O1101   1.295   .     A
C1065  C1081   1.416   .     S
C1065  O1100   1.292   .     A
C1066  C1067   1.400   .     A
C1066  C384    1.425   1_556 S
C1066  C408    1.430   1_556 S
C1067  C1071   1.393   .     A
C1067  C1074   1.404   .     A
C1068  C1072   1.387   .     A
C1069  C1070   1.407   .     A
C1069  C384    1.430   1_556 S
C1069  C404    1.419   1_556 S
C1070  I1128   2.092   .     S
C1070  C1071   1.373   .     A
C1071  H1096   1.081   .     S
C1072  C1089   1.392   .     A
C1072  H1095   1.077   .     S
C1073  C1089   1.406   .     A
C1073  O1110   1.386   .     S
C1073  C1088   1.404   .     A
C1074  C1090   1.397   .     A
C1074  C1076   1.493   .     S
C1075  H1097   1.075   .     S
C1075  C1081   1.388   .     A
C1075  C1305   1.371   .     S
C1076  O1102   1.322   .     A
C1076  O1103   1.299   .     A
C1077  O1115   1.386   .     S
C1077  C1078   1.404   .     A
C1078  C1086   1.427   .     S
C1078  C1079   1.412   .     A
C1079  O1120   1.384   .     S
C1080  C1081   1.400   .     A
C1080  I1125   2.145   .     S
C1080  C1307   1.388   .     S
C1082  N1099   1.369   .     A
C1082  H1093   1.081   .     S
C1082  C931    1.425   1_655 S
C1083  N1098   1.368   .     A
C1083  H1094   1.080   .     S
C1084  N1098   1.378   .     A
C1084  I1126   2.137   .     S
C1085  N1099   1.377   .     A
C1085  I1127   2.133   .     S
C1085  C932    1.430   1_655 S
C1086  O1105   1.297   .     A
C1086  O1104   1.294   .     A
C1087  O1106   1.305   .     A
C1087  O1107   1.302   .     A
C1087  C1089   1.458   .     S
C1090  C1091   1.408   .     A
C1090  O1130   1.373   .     S
C1091  C408    1.410   1_556 S
C1091  I456    2.133   1_556 S
C1092  O1135   1.383   .     S
N1098  Zn1108  2.038   .     S
N1099  Zn1109  2.038   .     S
O1100  Zn1108  1.996   .     S
O1101  Zn1109  2.002   .     S
O1102  Zn1108  1.970   .     S
O1103  Zn1109  1.958   .     S
O1104  Zn1108  2.002   .     S
O1105  Zn1109  1.996   .     S
O1106  Zn1108  1.958   .     S
O1107  Zn1109  1.970   .     S
O1110  C1111   1.411   .     S
C1111  H1113   1.108   .     S
C1111  H1112   1.114   .     S
C1111  H962    1.106   1_655 S
O1115  C1116   1.413   .     S
C1116  H1119   1.111   .     S
C1116  H1118   1.115   .     S
C1116  H1117   1.106   .     S
O1120  C1121   1.416   .     S
C1121  H1123   1.110   .     S
C1121  H1124   1.114   .     S
C1121  H1122   1.109   .     S
I1129  C404    2.129   1_556 S
O1130  C1131   1.413   .     S
C1131  H1132   1.108   .     S
C1131  H1133   1.111   .     S
C1131  H1134   1.110   .     S
O1135  C1136   1.412   .     S
C1136  H1139   1.107   .     S
C1136  H1138   1.114   .     S
C1136  H1137   1.111   .     S
C1141  O1177   1.295   .     A
C1141  C1157   1.416   .     S
C1141  O1176   1.292   .     A
C1142  C1143   1.400   .     A
C1142  C460    1.425   1_556 S
C1142  C484    1.430   1_556 S
C1143  C1147   1.393   .     A
C1143  C1150   1.404   .     A
C1144  C1148   1.387   .     A
C1145  C1146   1.407   .     A
C1145  C460    1.430   1_556 S
C1145  C480    1.419   1_556 S
C1146  I1204   2.092   .     S
C1146  C1147   1.373   .     A
C1147  H1172   1.081   .     S
C1148  C1165   1.392   .     A
C1148  H1171   1.077   .     S
C1149  C1165   1.406   .     A
C1149  O1186   1.386   .     S
C1149  C1164   1.404   .     A
C1150  C1166   1.397   .     A
C1150  C1152   1.493   .     S
C1151  H1173   1.075   .     S
C1151  C1157   1.388   .     A
C1151  C697    1.371   1_565 S
C1152  O1178   1.322   .     A
C1152  O1179   1.299   .     A
C1153  O1191   1.386   .     S
C1153  C1154   1.404   .     A
C1154  C1162   1.427   .     S
C1154  C1155   1.412   .     A
C1155  O1196   1.384   .     S
C1156  C1157   1.400   .     A
C1156  I1201   2.145   .     S
C1156  C699    1.388   1_565 S
C1158  N1175   1.369   .     A
C1158  H1169   1.081   .     S
C1158  C1235   1.425   .     S
C1159  N1174   1.368   .     A
C1159  H1170   1.080   .     S
C1159  C1310   1.425   1_455 S
C1160  N1174   1.378   .     A
C1160  I1202   2.137   .     S
C1160  C1313   1.430   1_455 S
C1161  N1175   1.377   .     A
C1161  I1203   2.133   .     S
C1161  C1236   1.430   .     S
C1162  O1181   1.297   .     A
C1162  O1180   1.294   .     A
C1163  O1182   1.305   .     A
C1163  O1183   1.302   .     A
C1163  C1165   1.458   .     S
C1166  C1167   1.408   .     A
C1166  O1206   1.373   .     S
C1167  C484    1.410   1_556 S
C1167  I532    2.133   1_556 S
C1168  O1211   1.383   .     S
N1174  Zn1184  2.038   .     S
N1175  Zn1185  2.038   .     S
O1176  Zn1184  1.996   .     S
O1177  Zn1185  2.002   .     S
O1178  Zn1184  1.970   .     S
O1179  Zn1185  1.958   .     S
O1180  Zn1184  2.002   .     S
O1181  Zn1185  1.996   .     S
O1182  Zn1184  1.958   .     S
O1183  Zn1185  1.970   .     S
O1186  C1187   1.411   .     S
C1187  H1189   1.108   .     S
C1187  H1188   1.114   .     S
C1187  H1266   1.106   .     S
H1190  C1339   1.106   1_455 S
O1191  C1192   1.413   .     S
C1192  H1195   1.111   .     S
C1192  H1194   1.115   .     S
C1192  H1193   1.106   .     S
O1196  C1197   1.416   .     S
C1197  H1199   1.110   .     S
C1197  H1200   1.114   .     S
C1197  H1198   1.109   .     S
I1205  C480    2.129   1_556 S
O1206  C1207   1.413   .     S
C1207  H1208   1.108   .     S
C1207  H1209   1.111   .     S
C1207  H1210   1.110   .     S
O1211  C1212   1.412   .     S
C1212  H1215   1.107   .     S
C1212  H1214   1.114   .     S
C1212  H1213   1.111   .     S
C1217  O1253   1.295   .     A
C1217  C1233   1.416   .     S
C1217  O1252   1.292   .     A
C1218  C1219   1.400   .     A
C1218  C536    1.425   1_556 S
C1218  C560    1.430   1_556 S
C1219  C1223   1.393   .     A
C1219  C1226   1.404   .     A
C1220  C1224   1.387   .     A
C1221  C1222   1.407   .     A
C1221  C536    1.430   1_556 S
C1221  C556    1.419   1_556 S
C1222  I1280   2.092   .     S
C1222  C1223   1.373   .     A
C1223  H1248   1.081   .     S
C1224  C1241   1.392   .     A
C1224  H1247   1.077   .     S
C1225  C1241   1.406   .     A
C1225  O1262   1.386   .     S
C1225  C1240   1.404   .     A
C1226  C1242   1.397   .     A
C1226  C1228   1.493   .     S
C1227  H1249   1.075   .     S
C1227  C1233   1.388   .     A
C1227  C773    1.371   1_565 S
C1228  O1254   1.322   .     A
C1228  O1255   1.299   .     A
C1229  O1267   1.386   .     S
C1229  C1230   1.404   .     A
C1230  C1238   1.427   .     S
C1230  C1231   1.412   .     A
C1231  O1272   1.384   .     S
C1232  C1233   1.400   .     A
C1232  I1277   2.145   .     S
C1232  C775    1.388   1_565 S
C1234  N1251   1.369   .     A
C1234  H1245   1.081   .     S
C1234  C1311   1.425   .     S
C1235  N1250   1.368   .     A
C1235  H1246   1.080   .     S
C1236  N1250   1.378   .     A
C1236  I1278   2.137   .     S
C1237  N1251   1.377   .     A
C1237  I1279   2.133   .     S
C1237  C1312   1.430   .     S
C1238  O1257   1.297   .     A
C1238  O1256   1.294   .     A
C1239  O1258   1.305   .     A
C1239  O1259   1.302   .     A
C1239  C1241   1.458   .     S
C1242  C1243   1.408   .     A
C1242  O1282   1.373   .     S
C1243  C560    1.410   1_556 S
C1243  I608    2.133   1_556 S
C1244  O1287   1.383   .     S
N1250  Zn1260  2.038   .     S
N1251  Zn1261  2.038   .     S
O1252  Zn1260  1.996   .     S
O1253  Zn1261  2.002   .     S
O1254  Zn1260  1.970   .     S
O1255  Zn1261  1.958   .     S
O1256  Zn1260  2.002   .     S
O1257  Zn1261  1.996   .     S
O1258  Zn1260  1.958   .     S
O1259  Zn1261  1.970   .     S
O1262  C1263   1.411   .     S
C1263  H1265   1.108   .     S
C1263  H1264   1.114   .     S
C1263  H1342   1.106   .     S
O1267  C1268   1.413   .     S
C1268  H1271   1.111   .     S
C1268  H1270   1.115   .     S
C1268  H1269   1.106   .     S
O1272  C1273   1.416   .     S
C1273  H1275   1.110   .     S
C1273  H1276   1.114   .     S
C1273  H1274   1.109   .     S
I1281  C556    2.129   1_556 S
O1282  C1283   1.413   .     S
C1283  H1284   1.108   .     S
C1283  H1285   1.111   .     S
C1283  H1286   1.110   .     S
O1287  C1288   1.412   .     S
C1288  H1291   1.107   .     S
C1288  H1290   1.114   .     S
C1288  H1289   1.111   .     S
C1293  O1329   1.295   .     A
C1293  C1309   1.416   .     S
C1293  O1328   1.292   .     A
C1294  C1295   1.400   .     A
C1294  C612    1.425   1_556 S
C1294  C636    1.430   1_556 S
C1295  C1299   1.393   .     A
C1295  C1302   1.404   .     A
C1296  C1300   1.387   .     A
C1297  C1298   1.407   .     A
C1297  C612    1.430   1_556 S
C1297  C632    1.419   1_556 S
C1298  I1356   2.092   .     S
C1298  C1299   1.373   .     A
C1299  H1324   1.081   .     S
C1300  C1317   1.392   .     A
C1300  H1323   1.077   .     S
C1301  C1317   1.406   .     A
C1301  O1338   1.386   .     S
C1301  C1316   1.404   .     A
C1302  C1318   1.397   .     A
C1302  C1304   1.493   .     S
C1303  H1325   1.075   .     S
C1303  C1309   1.388   .     A
C1303  C849    1.371   1_565 S
C1304  O1330   1.322   .     A
C1304  O1331   1.299   .     A
C1305  O1343   1.386   .     S
C1305  C1306   1.404   .     A
C1306  C1314   1.427   .     S
C1306  C1307   1.412   .     A
C1307  O1348   1.384   .     S
C1308  C1309   1.400   .     A
C1308  I1353   2.145   .     S
C1308  C851    1.388   1_565 S
C1310  N1327   1.369   .     A
C1310  H1321   1.081   .     S
C1310  C1159   1.425   1_655 S
C1311  N1326   1.368   .     A
C1311  H1322   1.080   .     S
C1312  N1326   1.378   .     A
C1312  I1354   2.137   .     S
C1313  N1327   1.377   .     A
C1313  I1355   2.133   .     S
C1313  C1160   1.430   1_655 S
C1314  O1333   1.297   .     A
C1314  O1332   1.294   .     A
C1315  O1334   1.305   .     A
C1315  O1335   1.302   .     A
C1315  C1317   1.458   .     S
C1318  C1319   1.408   .     A
C1318  O1358   1.373   .     S
C1319  C636    1.410   1_556 S
C1319  I684    2.133   1_556 S
C1320  O1363   1.383   .     S
N1326  Zn1336  2.038   .     S
N1327  Zn1337  2.038   .     S
O1328  Zn1336  1.996   .     S
O1329  Zn1337  2.002   .     S
O1330  Zn1336  1.970   .     S
O1331  Zn1337  1.958   .     S
O1332  Zn1336  2.002   .     S
O1333  Zn1337  1.996   .     S
O1334  Zn1336  1.958   .     S
O1335  Zn1337  1.970   .     S
O1338  C1339   1.411   .     S
C1339  H1341   1.108   .     S
C1339  H1340   1.114   .     S
C1339  H1190   1.106   1_655 S
O1343  C1344   1.413   .     S
C1344  H1347   1.111   .     S
C1344  H1346   1.115   .     S
C1344  H1345   1.106   .     S
O1348  C1349   1.416   .     S
C1349  H1351   1.110   .     S
C1349  H1352   1.114   .     S
C1349  H1350   1.109   .     S
I1357  C632    2.129   1_556 S
O1358  C1359   1.413   .     S
C1359  H1360   1.108   .     S
C1359  H1361   1.111   .     S
C1359  H1362   1.110   .     S
O1363  C1364   1.412   .     S
C1364  H1367   1.107   .     S
C1364  H1366   1.114   .     S
C1364  H1365   1.111   .     S
