data_str_m3_o1_o16_pcu_sym.197
_audit_creation_date              2020-01-03
_audit_creation_method            'Materials Studio'
_symmetry_space_group_name_H-M    'P1'
_symmetry_Int_Tables_number       1
_symmetry_cell_setting            triclinic
loop_
_symmetry_equiv_pos_as_xyz
  x,y,z
_cell_length_a                    29.6807
_cell_length_b                    31.9317
_cell_length_c                    26.3991
_cell_angle_alpha                 89.7803
_cell_angle_beta                  71.5404
_cell_angle_gamma                 89.6942
loop_
_atom_site_label
_atom_site_type_symbol
_atom_site_fract_x
_atom_site_fract_y
_atom_site_fract_z
_atom_site_U_iso_or_equiv
_atom_site_adp_type
_atom_site_occupancy
C1     C     0.16628   0.24660   0.25133   0.00000  Uiso   1.00
C2     C     0.14697   0.14779   0.49074   0.00000  Uiso   1.00
C3     C     0.15968   0.14430   0.43509   0.00000  Uiso   1.00
C4     C     0.18393   0.14872   0.01342   0.00000  Uiso   1.00
C5     C     0.22988   0.15985   0.48035   0.00000  Uiso   1.00
C6     C     0.24348   0.14579   0.42682   0.00000  Uiso   1.00
C7     C     0.20686   0.13222   0.40751   0.00000  Uiso   1.00
C8     C     0.17696   0.14056   0.06721   0.00000  Uiso   1.00
C9     C     0.24742   0.18222   0.05943   0.00000  Uiso   1.00
C10    C     0.12587   0.15434   0.40928   0.00000  Uiso   1.00
C11    C     0.20591   0.31147   0.21881   0.00000  Uiso   1.00
C12    C     0.14088   0.16305   0.35159   0.00000  Uiso   1.00
C13    C     0.20666   0.02112   0.21841   0.00000  Uiso   1.00
C14    C     0.16714   0.04271   0.25060   0.00000  Uiso   1.00
C15    C     0.12816   0.02230   0.28513   0.00000  Uiso   1.00
C16    C     0.12791   0.31270   0.28738   0.00000  Uiso   1.00
C17    C     0.16627   0.29081   0.25255   0.00000  Uiso   1.00
C18    C     0.31510   0.13328   0.23050   0.00000  Uiso   1.00
C19    C     0.02953   0.13322   0.23072   0.00000  Uiso   1.00
C20    C     0.01811   0.19993   0.26964   0.00000  Uiso   1.00
C21    C     0.30361   0.19988   0.26983   0.00000  Uiso   1.00
C22    C     0.16692   0.08678   0.24959   0.00000  Uiso   1.00
C23    C     0.19247   0.16500   0.14852   0.00000  Uiso   1.00
C24    C     0.25961   0.18127   0.00388   0.00000  Uiso   1.00
C25    C     0.20720   0.16082   0.09101   0.00000  Uiso   1.00
C26    C     0.07826   0.16020   0.43997   0.00000  Uiso   1.00
C27    C     0.06476   0.15951   0.49551   0.00000  Uiso   1.00
C28    C     0.09906   0.15508   0.02090   0.00000  Uiso   1.00
H29    H     0.26814   0.20098   0.07798   0.00000  Uiso   1.00
H30    H     0.23707   0.03745   0.19209   0.00000  Uiso   1.00
H31    H     0.09891   0.03982   0.31147   0.00000  Uiso   1.00
H32    H     0.30175   0.10652   0.21479   0.00000  Uiso   1.00
H33    H     0.05186   0.10631   0.21545   0.00000  Uiso   1.00
H34    H     0.03136   0.22665   0.28522   0.00000  Uiso   1.00
H35    H     0.28102   0.22651   0.28588   0.00000  Uiso   1.00
H36    H     0.05186   0.16691   0.42088   0.00000  Uiso   1.00
H37    H     0.08819   0.15927   0.06374   0.00000  Uiso   1.00
H38    H     0.02806   0.16491   0.01891   0.00000  Uiso   1.00
H39    H     0.23580   0.29435   0.19251   0.00000  Uiso   1.00
N40    N     0.04760   0.16668   0.25002   0.00000  Uiso   1.00
N41    N     0.28573   0.16665   0.25001   0.00000  Uiso   1.00
O42    O     0.12846   0.22775   0.25001   0.00000  Uiso   1.00
O43    O     0.20490   0.22774   0.25001   0.00000  Uiso   1.00
O44    O     0.10947   0.16666   0.32681   0.00000  Uiso   1.00
O45    O     0.18591   0.16665   0.32681   0.00000  Uiso   1.00
O46    O     0.12843   0.10559   0.25000   0.00000  Uiso   1.00
O47    O     0.20488   0.10558   0.25000   0.00000  Uiso   1.00
O48    O     0.14742   0.16668   0.17319   0.00000  Uiso   1.00
O49    O     0.22387   0.16667   0.17319   0.00000  Uiso   1.00
Zn50   Zn    0.11562   0.16667   0.25000   0.00000  Uiso   1.00
Zn51   Zn    0.21771   0.16666   0.25000   0.00000  Uiso   1.00
I52    I     0.07198   0.28437   0.34845   0.00000  Uiso   1.00
C53    C     0.29462   0.13521   0.39581   0.00000  Uiso   1.00
C54    C     0.31263   0.09868   0.42232   0.00000  Uiso   1.00
C55    C     0.02378   0.07875   0.38405   0.00000  Uiso   1.00
H56    H     0.01527   0.06406   0.35011   0.00000  Uiso   1.00
H57    H     0.05184   0.10252   0.36825   0.00000  Uiso   1.00
H58    H     0.03745   0.05419   0.40533   0.00000  Uiso   1.00
H59    H     0.32056   0.11008   0.45827   0.00000  Uiso   1.00
H60    H     0.28491   0.07409   0.43530   0.00000  Uiso   1.00
H61    H     0.29772   0.12691   0.35405   0.00000  Uiso   1.00
H62    H     0.31790   0.16263   0.39166   0.00000  Uiso   1.00
I63    I     0.30675   0.22880   0.46307   0.00000  Uiso   1.00
C64    C     0.14364   0.10507   0.09483   0.00000  Uiso   1.00
C65    C     0.17120   0.06837   0.10865   0.00000  Uiso   1.00
C66    C     0.13814   0.03191   0.13271   0.00000  Uiso   1.00
H67    H     0.15910   0.00519   0.14045   0.00000  Uiso   1.00
H68    H     0.11145   0.04151   0.17095   0.00000  Uiso   1.00
H69    H     0.11950   0.02129   0.10464   0.00000  Uiso   1.00
H70    H     0.19883   0.05737   0.07178   0.00000  Uiso   1.00
H71    H     0.18923   0.07849   0.13741   0.00000  Uiso   1.00
H72    H     0.12510   0.09203   0.06796   0.00000  Uiso   1.00
H73    H     0.11529   0.11614   0.13065   0.00000  Uiso   1.00
I74    I     0.21666   0.07733   0.35926   0.00000  Uiso   1.00
C75    C     0.49961   0.24660   0.25133   0.00000  Uiso   1.00
C76    C     0.48030   0.14779   0.49074   0.00000  Uiso   1.00
C77    C     0.49301   0.14430   0.43509   0.00000  Uiso   1.00
C78    C     0.51726   0.14872   0.01342   0.00000  Uiso   1.00
C79    C     0.56321   0.15985   0.48035   0.00000  Uiso   1.00
C80    C     0.57681   0.14579   0.42682   0.00000  Uiso   1.00
C81    C     0.54019   0.13222   0.40751   0.00000  Uiso   1.00
C82    C     0.51029   0.14056   0.06721   0.00000  Uiso   1.00
C83    C     0.58075   0.18222   0.05943   0.00000  Uiso   1.00
C84    C     0.45920   0.15434   0.40928   0.00000  Uiso   1.00
C85    C     0.53925   0.31147   0.21881   0.00000  Uiso   1.00
C86    C     0.47422   0.16305   0.35159   0.00000  Uiso   1.00
C87    C     0.53999   0.02112   0.21841   0.00000  Uiso   1.00
C88    C     0.50047   0.04271   0.25060   0.00000  Uiso   1.00
C89    C     0.46149   0.02230   0.28513   0.00000  Uiso   1.00
C90    C     0.46125   0.31270   0.28738   0.00000  Uiso   1.00
C91    C     0.49960   0.29081   0.25255   0.00000  Uiso   1.00
C92    C     0.64844   0.13328   0.23050   0.00000  Uiso   1.00
C93    C     0.36286   0.13322   0.23072   0.00000  Uiso   1.00
C94    C     0.35145   0.19993   0.26964   0.00000  Uiso   1.00
C95    C     0.63695   0.19988   0.26983   0.00000  Uiso   1.00
C96    C     0.50026   0.08678   0.24959   0.00000  Uiso   1.00
C97    C     0.52580   0.16500   0.14852   0.00000  Uiso   1.00
C98    C     0.59294   0.18127   0.00388   0.00000  Uiso   1.00
C99    C     0.54054   0.16082   0.09101   0.00000  Uiso   1.00
C100   C     0.41159   0.16020   0.43997   0.00000  Uiso   1.00
C101   C     0.39809   0.15951   0.49551   0.00000  Uiso   1.00
C102   C     0.43239   0.15508   0.02090   0.00000  Uiso   1.00
H103   H     0.60148   0.20098   0.07798   0.00000  Uiso   1.00
H104   H     0.57041   0.03745   0.19209   0.00000  Uiso   1.00
H105   H     0.43224   0.03982   0.31147   0.00000  Uiso   1.00
H106   H     0.63508   0.10652   0.21479   0.00000  Uiso   1.00
H107   H     0.38520   0.10631   0.21545   0.00000  Uiso   1.00
H108   H     0.36470   0.22665   0.28522   0.00000  Uiso   1.00
H109   H     0.61435   0.22651   0.28588   0.00000  Uiso   1.00
H110   H     0.38519   0.16691   0.42088   0.00000  Uiso   1.00
H111   H     0.42153   0.15927   0.06374   0.00000  Uiso   1.00
H112   H     0.36139   0.16491   0.01891   0.00000  Uiso   1.00
H113   H     0.56914   0.29435   0.19251   0.00000  Uiso   1.00
N114   N     0.38093   0.16668   0.25002   0.00000  Uiso   1.00
N115   N     0.61906   0.16665   0.25001   0.00000  Uiso   1.00
O116   O     0.46179   0.22775   0.25001   0.00000  Uiso   1.00
O117   O     0.53823   0.22774   0.25001   0.00000  Uiso   1.00
O118   O     0.44280   0.16666   0.32681   0.00000  Uiso   1.00
O119   O     0.51924   0.16665   0.32681   0.00000  Uiso   1.00
O120   O     0.46177   0.10559   0.25000   0.00000  Uiso   1.00
O121   O     0.53821   0.10558   0.25000   0.00000  Uiso   1.00
O122   O     0.48076   0.16668   0.17319   0.00000  Uiso   1.00
O123   O     0.55720   0.16667   0.17319   0.00000  Uiso   1.00
Zn124  Zn    0.44896   0.16667   0.25000   0.00000  Uiso   1.00
Zn125  Zn    0.55104   0.16666   0.25000   0.00000  Uiso   1.00
I126   I     0.40531   0.28437   0.34845   0.00000  Uiso   1.00
C127   C     0.62795   0.13521   0.39581   0.00000  Uiso   1.00
C128   C     0.64596   0.09868   0.42232   0.00000  Uiso   1.00
C129   C     0.35712   0.07875   0.38405   0.00000  Uiso   1.00
H130   H     0.34861   0.06406   0.35011   0.00000  Uiso   1.00
H131   H     0.38518   0.10252   0.36825   0.00000  Uiso   1.00
H132   H     0.37078   0.05419   0.40533   0.00000  Uiso   1.00
H133   H     0.65390   0.11008   0.45827   0.00000  Uiso   1.00
H134   H     0.61825   0.07409   0.43530   0.00000  Uiso   1.00
H135   H     0.63106   0.12691   0.35405   0.00000  Uiso   1.00
H136   H     0.65123   0.16263   0.39166   0.00000  Uiso   1.00
I137   I     0.64008   0.22880   0.46307   0.00000  Uiso   1.00
C138   C     0.47698   0.10507   0.09483   0.00000  Uiso   1.00
C139   C     0.50454   0.06837   0.10865   0.00000  Uiso   1.00
C140   C     0.47147   0.03191   0.13271   0.00000  Uiso   1.00
H141   H     0.49243   0.00519   0.14045   0.00000  Uiso   1.00
H142   H     0.44478   0.04151   0.17095   0.00000  Uiso   1.00
H143   H     0.45283   0.02129   0.10464   0.00000  Uiso   1.00
H144   H     0.53216   0.05737   0.07178   0.00000  Uiso   1.00
H145   H     0.52257   0.07849   0.13741   0.00000  Uiso   1.00
H146   H     0.45843   0.09203   0.06796   0.00000  Uiso   1.00
H147   H     0.44862   0.11614   0.13065   0.00000  Uiso   1.00
I148   I     0.54999   0.07733   0.35926   0.00000  Uiso   1.00
C149   C     0.83294   0.24660   0.25133   0.00000  Uiso   1.00
C150   C     0.81364   0.14779   0.49074   0.00000  Uiso   1.00
C151   C     0.82634   0.14430   0.43509   0.00000  Uiso   1.00
C152   C     0.85060   0.14872   0.01342   0.00000  Uiso   1.00
C153   C     0.89655   0.15985   0.48035   0.00000  Uiso   1.00
C154   C     0.91015   0.14579   0.42682   0.00000  Uiso   1.00
C155   C     0.87353   0.13222   0.40751   0.00000  Uiso   1.00
C156   C     0.84363   0.14056   0.06721   0.00000  Uiso   1.00
C157   C     0.91408   0.18222   0.05943   0.00000  Uiso   1.00
C158   C     0.79253   0.15434   0.40928   0.00000  Uiso   1.00
C159   C     0.87258   0.31147   0.21881   0.00000  Uiso   1.00
C160   C     0.80755   0.16305   0.35159   0.00000  Uiso   1.00
C161   C     0.87332   0.02112   0.21841   0.00000  Uiso   1.00
C162   C     0.83381   0.04271   0.25060   0.00000  Uiso   1.00
C163   C     0.79483   0.02230   0.28513   0.00000  Uiso   1.00
C164   C     0.79458   0.31270   0.28738   0.00000  Uiso   1.00
C165   C     0.83293   0.29081   0.25255   0.00000  Uiso   1.00
C166   C     0.98177   0.13328   0.23050   0.00000  Uiso   1.00
C167   C     0.69619   0.13322   0.23072   0.00000  Uiso   1.00
C168   C     0.68478   0.19993   0.26964   0.00000  Uiso   1.00
C169   C     0.97028   0.19988   0.26983   0.00000  Uiso   1.00
C170   C     0.83359   0.08678   0.24959   0.00000  Uiso   1.00
C171   C     0.85913   0.16500   0.14852   0.00000  Uiso   1.00
C172   C     0.92627   0.18127   0.00388   0.00000  Uiso   1.00
C173   C     0.87387   0.16082   0.09101   0.00000  Uiso   1.00
C174   C     0.74492   0.16020   0.43997   0.00000  Uiso   1.00
C175   C     0.73143   0.15951   0.49551   0.00000  Uiso   1.00
C176   C     0.76573   0.15508   0.02090   0.00000  Uiso   1.00
H177   H     0.93481   0.20098   0.07798   0.00000  Uiso   1.00
H178   H     0.90374   0.03745   0.19209   0.00000  Uiso   1.00
H179   H     0.76558   0.03982   0.31147   0.00000  Uiso   1.00
H180   H     0.96842   0.10652   0.21479   0.00000  Uiso   1.00
H181   H     0.71853   0.10631   0.21545   0.00000  Uiso   1.00
H182   H     0.69803   0.22665   0.28522   0.00000  Uiso   1.00
H183   H     0.94768   0.22651   0.28588   0.00000  Uiso   1.00
H184   H     0.71852   0.16691   0.42088   0.00000  Uiso   1.00
H185   H     0.75486   0.15927   0.06374   0.00000  Uiso   1.00
H186   H     0.69472   0.16491   0.01891   0.00000  Uiso   1.00
H187   H     0.90247   0.29435   0.19251   0.00000  Uiso   1.00
N188   N     0.71426   0.16668   0.25002   0.00000  Uiso   1.00
N189   N     0.95239   0.16665   0.25001   0.00000  Uiso   1.00
O190   O     0.79512   0.22775   0.25001   0.00000  Uiso   1.00
O191   O     0.87157   0.22774   0.25001   0.00000  Uiso   1.00
O192   O     0.77613   0.16666   0.32681   0.00000  Uiso   1.00
O193   O     0.85258   0.16665   0.32681   0.00000  Uiso   1.00
O194   O     0.79510   0.10559   0.25000   0.00000  Uiso   1.00
O195   O     0.87154   0.10558   0.25000   0.00000  Uiso   1.00
O196   O     0.81409   0.16668   0.17319   0.00000  Uiso   1.00
O197   O     0.89053   0.16667   0.17319   0.00000  Uiso   1.00
Zn198  Zn    0.78229   0.16667   0.25000   0.00000  Uiso   1.00
Zn199  Zn    0.88438   0.16666   0.25000   0.00000  Uiso   1.00
I200   I     0.73864   0.28437   0.34845   0.00000  Uiso   1.00
C201   C     0.96128   0.13521   0.39581   0.00000  Uiso   1.00
C202   C     0.97930   0.09868   0.42232   0.00000  Uiso   1.00
C203   C     0.69045   0.07875   0.38405   0.00000  Uiso   1.00
H204   H     0.68194   0.06406   0.35011   0.00000  Uiso   1.00
H205   H     0.71851   0.10252   0.36825   0.00000  Uiso   1.00
H206   H     0.70412   0.05419   0.40533   0.00000  Uiso   1.00
H207   H     0.98723   0.11008   0.45827   0.00000  Uiso   1.00
H208   H     0.95158   0.07409   0.43530   0.00000  Uiso   1.00
H209   H     0.96439   0.12691   0.35405   0.00000  Uiso   1.00
H210   H     0.98456   0.16263   0.39166   0.00000  Uiso   1.00
I211   I     0.97341   0.22880   0.46307   0.00000  Uiso   1.00
C212   C     0.81031   0.10507   0.09483   0.00000  Uiso   1.00
C213   C     0.83787   0.06837   0.10865   0.00000  Uiso   1.00
C214   C     0.80480   0.03191   0.13271   0.00000  Uiso   1.00
H215   H     0.82576   0.00519   0.14045   0.00000  Uiso   1.00
H216   H     0.77812   0.04151   0.17095   0.00000  Uiso   1.00
H217   H     0.78616   0.02129   0.10464   0.00000  Uiso   1.00
H218   H     0.86549   0.05737   0.07178   0.00000  Uiso   1.00
H219   H     0.85590   0.07849   0.13741   0.00000  Uiso   1.00
H220   H     0.79176   0.09203   0.06796   0.00000  Uiso   1.00
H221   H     0.78196   0.11614   0.13065   0.00000  Uiso   1.00
I222   I     0.88333   0.07733   0.35926   0.00000  Uiso   1.00
C223   C     0.16628   0.57994   0.25133   0.00000  Uiso   1.00
C224   C     0.14697   0.48112   0.49074   0.00000  Uiso   1.00
C225   C     0.15968   0.47764   0.43509   0.00000  Uiso   1.00
C226   C     0.18393   0.48206   0.01342   0.00000  Uiso   1.00
C227   C     0.22988   0.49318   0.48035   0.00000  Uiso   1.00
C228   C     0.24348   0.47912   0.42682   0.00000  Uiso   1.00
C229   C     0.20686   0.46556   0.40751   0.00000  Uiso   1.00
C230   C     0.17696   0.47389   0.06721   0.00000  Uiso   1.00
C231   C     0.24742   0.51555   0.05943   0.00000  Uiso   1.00
C232   C     0.12587   0.48768   0.40928   0.00000  Uiso   1.00
C233   C     0.20591   0.64480   0.21881   0.00000  Uiso   1.00
C234   C     0.14088   0.49638   0.35159   0.00000  Uiso   1.00
C235   C     0.20666   0.35445   0.21841   0.00000  Uiso   1.00
C236   C     0.16714   0.37605   0.25060   0.00000  Uiso   1.00
C237   C     0.12816   0.35563   0.28513   0.00000  Uiso   1.00
C238   C     0.12791   0.64603   0.28738   0.00000  Uiso   1.00
C239   C     0.16627   0.62414   0.25255   0.00000  Uiso   1.00
C240   C     0.31510   0.46662   0.23050   0.00000  Uiso   1.00
C241   C     0.02953   0.46656   0.23072   0.00000  Uiso   1.00
C242   C     0.01811   0.53326   0.26964   0.00000  Uiso   1.00
C243   C     0.30361   0.53321   0.26983   0.00000  Uiso   1.00
C244   C     0.16692   0.42011   0.24959   0.00000  Uiso   1.00
C245   C     0.19247   0.49833   0.14852   0.00000  Uiso   1.00
C246   C     0.25961   0.51460   0.00388   0.00000  Uiso   1.00
C247   C     0.20720   0.49416   0.09101   0.00000  Uiso   1.00
C248   C     0.07826   0.49353   0.43997   0.00000  Uiso   1.00
C249   C     0.06476   0.49285   0.49551   0.00000  Uiso   1.00
C250   C     0.09906   0.48841   0.02090   0.00000  Uiso   1.00
H251   H     0.26814   0.53431   0.07798   0.00000  Uiso   1.00
H252   H     0.23707   0.37079   0.19209   0.00000  Uiso   1.00
H253   H     0.09891   0.37315   0.31147   0.00000  Uiso   1.00
H254   H     0.30175   0.43986   0.21479   0.00000  Uiso   1.00
H255   H     0.05186   0.43964   0.21545   0.00000  Uiso   1.00
H256   H     0.03136   0.55999   0.28522   0.00000  Uiso   1.00
H257   H     0.28102   0.55985   0.28588   0.00000  Uiso   1.00
H258   H     0.05186   0.50024   0.42088   0.00000  Uiso   1.00
H259   H     0.08819   0.49260   0.06374   0.00000  Uiso   1.00
H260   H     0.02806   0.49824   0.01891   0.00000  Uiso   1.00
H261   H     0.23580   0.62769   0.19251   0.00000  Uiso   1.00
N262   N     0.04760   0.50001   0.25002   0.00000  Uiso   1.00
N263   N     0.28573   0.49998   0.25001   0.00000  Uiso   1.00
O264   O     0.12846   0.56108   0.25001   0.00000  Uiso   1.00
O265   O     0.20490   0.56107   0.25001   0.00000  Uiso   1.00
O266   O     0.10947   0.50000   0.32681   0.00000  Uiso   1.00
O267   O     0.18591   0.49999   0.32681   0.00000  Uiso   1.00
O268   O     0.12843   0.43893   0.25000   0.00000  Uiso   1.00
O269   O     0.20488   0.43892   0.25000   0.00000  Uiso   1.00
O270   O     0.14742   0.50001   0.17319   0.00000  Uiso   1.00
O271   O     0.22387   0.50000   0.17319   0.00000  Uiso   1.00
Zn272  Zn    0.11562   0.50001   0.25000   0.00000  Uiso   1.00
Zn273  Zn    0.21771   0.49999   0.25000   0.00000  Uiso   1.00
I274   I     0.07198   0.61770   0.34845   0.00000  Uiso   1.00
C275   C     0.29462   0.46855   0.39581   0.00000  Uiso   1.00
C276   C     0.31263   0.43201   0.42232   0.00000  Uiso   1.00
C277   C     0.02378   0.41209   0.38405   0.00000  Uiso   1.00
H278   H     0.01527   0.39739   0.35011   0.00000  Uiso   1.00
H279   H     0.05184   0.43586   0.36825   0.00000  Uiso   1.00
H280   H     0.03745   0.38752   0.40533   0.00000  Uiso   1.00
H281   H     0.32056   0.44341   0.45827   0.00000  Uiso   1.00
H282   H     0.28491   0.40743   0.43530   0.00000  Uiso   1.00
H283   H     0.29772   0.46025   0.35405   0.00000  Uiso   1.00
H284   H     0.31790   0.49596   0.39166   0.00000  Uiso   1.00
I285   I     0.30675   0.56213   0.46307   0.00000  Uiso   1.00
C286   C     0.14364   0.43840   0.09483   0.00000  Uiso   1.00
C287   C     0.17120   0.40170   0.10865   0.00000  Uiso   1.00
C288   C     0.13814   0.36525   0.13271   0.00000  Uiso   1.00
H289   H     0.15910   0.33852   0.14045   0.00000  Uiso   1.00
H290   H     0.11145   0.37484   0.17095   0.00000  Uiso   1.00
H291   H     0.11950   0.35462   0.10464   0.00000  Uiso   1.00
H292   H     0.19883   0.39071   0.07178   0.00000  Uiso   1.00
H293   H     0.18923   0.41182   0.13741   0.00000  Uiso   1.00
H294   H     0.12510   0.42536   0.06796   0.00000  Uiso   1.00
H295   H     0.11529   0.44947   0.13065   0.00000  Uiso   1.00
I296   I     0.21666   0.41067   0.35926   0.00000  Uiso   1.00
C297   C     0.49961   0.57994   0.25133   0.00000  Uiso   1.00
C298   C     0.48030   0.48112   0.49074   0.00000  Uiso   1.00
C299   C     0.49301   0.47764   0.43509   0.00000  Uiso   1.00
C300   C     0.51726   0.48206   0.01342   0.00000  Uiso   1.00
C301   C     0.56321   0.49318   0.48035   0.00000  Uiso   1.00
C302   C     0.57681   0.47912   0.42682   0.00000  Uiso   1.00
C303   C     0.54019   0.46556   0.40751   0.00000  Uiso   1.00
C304   C     0.51029   0.47389   0.06721   0.00000  Uiso   1.00
C305   C     0.58075   0.51555   0.05943   0.00000  Uiso   1.00
C306   C     0.45920   0.48768   0.40928   0.00000  Uiso   1.00
C307   C     0.53925   0.64480   0.21881   0.00000  Uiso   1.00
C308   C     0.47422   0.49638   0.35159   0.00000  Uiso   1.00
C309   C     0.53999   0.35445   0.21841   0.00000  Uiso   1.00
C310   C     0.50047   0.37605   0.25060   0.00000  Uiso   1.00
C311   C     0.46149   0.35563   0.28513   0.00000  Uiso   1.00
C312   C     0.46125   0.64603   0.28738   0.00000  Uiso   1.00
C313   C     0.49960   0.62414   0.25255   0.00000  Uiso   1.00
C314   C     0.64844   0.46662   0.23050   0.00000  Uiso   1.00
C315   C     0.36286   0.46656   0.23072   0.00000  Uiso   1.00
C316   C     0.35145   0.53326   0.26964   0.00000  Uiso   1.00
C317   C     0.63695   0.53321   0.26983   0.00000  Uiso   1.00
C318   C     0.50026   0.42011   0.24959   0.00000  Uiso   1.00
C319   C     0.52580   0.49833   0.14852   0.00000  Uiso   1.00
C320   C     0.59294   0.51460   0.00388   0.00000  Uiso   1.00
C321   C     0.54054   0.49416   0.09101   0.00000  Uiso   1.00
C322   C     0.41159   0.49353   0.43997   0.00000  Uiso   1.00
C323   C     0.39809   0.49285   0.49551   0.00000  Uiso   1.00
C324   C     0.43239   0.48841   0.02090   0.00000  Uiso   1.00
H325   H     0.60148   0.53431   0.07798   0.00000  Uiso   1.00
H326   H     0.57041   0.37079   0.19209   0.00000  Uiso   1.00
H327   H     0.43224   0.37315   0.31147   0.00000  Uiso   1.00
H328   H     0.63508   0.43986   0.21479   0.00000  Uiso   1.00
H329   H     0.38520   0.43964   0.21545   0.00000  Uiso   1.00
H330   H     0.36470   0.55999   0.28522   0.00000  Uiso   1.00
H331   H     0.61435   0.55985   0.28588   0.00000  Uiso   1.00
H332   H     0.38519   0.50024   0.42088   0.00000  Uiso   1.00
H333   H     0.42153   0.49260   0.06374   0.00000  Uiso   1.00
H334   H     0.36139   0.49824   0.01891   0.00000  Uiso   1.00
H335   H     0.56914   0.62769   0.19251   0.00000  Uiso   1.00
N336   N     0.38093   0.50001   0.25002   0.00000  Uiso   1.00
N337   N     0.61906   0.49998   0.25001   0.00000  Uiso   1.00
O338   O     0.46179   0.56108   0.25001   0.00000  Uiso   1.00
O339   O     0.53823   0.56107   0.25001   0.00000  Uiso   1.00
O340   O     0.44280   0.50000   0.32681   0.00000  Uiso   1.00
O341   O     0.51924   0.49999   0.32681   0.00000  Uiso   1.00
O342   O     0.46177   0.43893   0.25000   0.00000  Uiso   1.00
O343   O     0.53821   0.43892   0.25000   0.00000  Uiso   1.00
O344   O     0.48076   0.50001   0.17319   0.00000  Uiso   1.00
O345   O     0.55720   0.50000   0.17319   0.00000  Uiso   1.00
Zn346  Zn    0.44896   0.50001   0.25000   0.00000  Uiso   1.00
Zn347  Zn    0.55104   0.49999   0.25000   0.00000  Uiso   1.00
I348   I     0.40531   0.61770   0.34845   0.00000  Uiso   1.00
C349   C     0.62795   0.46855   0.39581   0.00000  Uiso   1.00
C350   C     0.64596   0.43201   0.42232   0.00000  Uiso   1.00
C351   C     0.35712   0.41209   0.38405   0.00000  Uiso   1.00
H352   H     0.34861   0.39739   0.35011   0.00000  Uiso   1.00
H353   H     0.38518   0.43586   0.36825   0.00000  Uiso   1.00
H354   H     0.37078   0.38752   0.40533   0.00000  Uiso   1.00
H355   H     0.65390   0.44341   0.45827   0.00000  Uiso   1.00
H356   H     0.61825   0.40743   0.43530   0.00000  Uiso   1.00
H357   H     0.63106   0.46025   0.35405   0.00000  Uiso   1.00
H358   H     0.65123   0.49596   0.39166   0.00000  Uiso   1.00
I359   I     0.64008   0.56213   0.46307   0.00000  Uiso   1.00
C360   C     0.47698   0.43840   0.09483   0.00000  Uiso   1.00
C361   C     0.50454   0.40170   0.10865   0.00000  Uiso   1.00
C362   C     0.47147   0.36525   0.13271   0.00000  Uiso   1.00
H363   H     0.49243   0.33852   0.14045   0.00000  Uiso   1.00
H364   H     0.44478   0.37484   0.17095   0.00000  Uiso   1.00
H365   H     0.45283   0.35462   0.10464   0.00000  Uiso   1.00
H366   H     0.53216   0.39071   0.07178   0.00000  Uiso   1.00
H367   H     0.52257   0.41182   0.13741   0.00000  Uiso   1.00
H368   H     0.45843   0.42536   0.06796   0.00000  Uiso   1.00
H369   H     0.44862   0.44947   0.13065   0.00000  Uiso   1.00
I370   I     0.54999   0.41067   0.35926   0.00000  Uiso   1.00
C371   C     0.83294   0.57994   0.25133   0.00000  Uiso   1.00
C372   C     0.81364   0.48112   0.49074   0.00000  Uiso   1.00
C373   C     0.82634   0.47764   0.43509   0.00000  Uiso   1.00
C374   C     0.85060   0.48206   0.01342   0.00000  Uiso   1.00
C375   C     0.89655   0.49318   0.48035   0.00000  Uiso   1.00
C376   C     0.91015   0.47912   0.42682   0.00000  Uiso   1.00
C377   C     0.87353   0.46556   0.40751   0.00000  Uiso   1.00
C378   C     0.84363   0.47389   0.06721   0.00000  Uiso   1.00
C379   C     0.91408   0.51555   0.05943   0.00000  Uiso   1.00
C380   C     0.79253   0.48768   0.40928   0.00000  Uiso   1.00
C381   C     0.87258   0.64480   0.21881   0.00000  Uiso   1.00
C382   C     0.80755   0.49638   0.35159   0.00000  Uiso   1.00
C383   C     0.87332   0.35445   0.21841   0.00000  Uiso   1.00
C384   C     0.83381   0.37605   0.25060   0.00000  Uiso   1.00
C385   C     0.79483   0.35563   0.28513   0.00000  Uiso   1.00
C386   C     0.79458   0.64603   0.28738   0.00000  Uiso   1.00
C387   C     0.83293   0.62414   0.25255   0.00000  Uiso   1.00
C388   C     0.98177   0.46662   0.23050   0.00000  Uiso   1.00
C389   C     0.69619   0.46656   0.23072   0.00000  Uiso   1.00
C390   C     0.68478   0.53326   0.26964   0.00000  Uiso   1.00
C391   C     0.97028   0.53321   0.26983   0.00000  Uiso   1.00
C392   C     0.83359   0.42011   0.24959   0.00000  Uiso   1.00
C393   C     0.85913   0.49833   0.14852   0.00000  Uiso   1.00
C394   C     0.92627   0.51460   0.00388   0.00000  Uiso   1.00
C395   C     0.87387   0.49416   0.09101   0.00000  Uiso   1.00
C396   C     0.74492   0.49353   0.43997   0.00000  Uiso   1.00
C397   C     0.73143   0.49285   0.49551   0.00000  Uiso   1.00
C398   C     0.76573   0.48841   0.02090   0.00000  Uiso   1.00
H399   H     0.93481   0.53431   0.07798   0.00000  Uiso   1.00
H400   H     0.90374   0.37079   0.19209   0.00000  Uiso   1.00
H401   H     0.76558   0.37315   0.31147   0.00000  Uiso   1.00
H402   H     0.96842   0.43986   0.21479   0.00000  Uiso   1.00
H403   H     0.71853   0.43964   0.21545   0.00000  Uiso   1.00
H404   H     0.69803   0.55999   0.28522   0.00000  Uiso   1.00
H405   H     0.94768   0.55985   0.28588   0.00000  Uiso   1.00
H406   H     0.71852   0.50024   0.42088   0.00000  Uiso   1.00
H407   H     0.75486   0.49260   0.06374   0.00000  Uiso   1.00
H408   H     0.69472   0.49824   0.01891   0.00000  Uiso   1.00
H409   H     0.90247   0.62769   0.19251   0.00000  Uiso   1.00
N410   N     0.71426   0.50001   0.25002   0.00000  Uiso   1.00
N411   N     0.95239   0.49998   0.25001   0.00000  Uiso   1.00
O412   O     0.79512   0.56108   0.25001   0.00000  Uiso   1.00
O413   O     0.87157   0.56107   0.25001   0.00000  Uiso   1.00
O414   O     0.77613   0.50000   0.32681   0.00000  Uiso   1.00
O415   O     0.85258   0.49999   0.32681   0.00000  Uiso   1.00
O416   O     0.79510   0.43893   0.25000   0.00000  Uiso   1.00
O417   O     0.87154   0.43892   0.25000   0.00000  Uiso   1.00
O418   O     0.81409   0.50001   0.17319   0.00000  Uiso   1.00
O419   O     0.89053   0.50000   0.17319   0.00000  Uiso   1.00
Zn420  Zn    0.78229   0.50001   0.25000   0.00000  Uiso   1.00
Zn421  Zn    0.88438   0.49999   0.25000   0.00000  Uiso   1.00
I422   I     0.73864   0.61770   0.34845   0.00000  Uiso   1.00
C423   C     0.96128   0.46855   0.39581   0.00000  Uiso   1.00
C424   C     0.97930   0.43201   0.42232   0.00000  Uiso   1.00
C425   C     0.69045   0.41209   0.38405   0.00000  Uiso   1.00
H426   H     0.68194   0.39739   0.35011   0.00000  Uiso   1.00
H427   H     0.71851   0.43586   0.36825   0.00000  Uiso   1.00
H428   H     0.70412   0.38752   0.40533   0.00000  Uiso   1.00
H429   H     0.98723   0.44341   0.45827   0.00000  Uiso   1.00
H430   H     0.95158   0.40743   0.43530   0.00000  Uiso   1.00
H431   H     0.96439   0.46025   0.35405   0.00000  Uiso   1.00
H432   H     0.98456   0.49596   0.39166   0.00000  Uiso   1.00
I433   I     0.97341   0.56213   0.46307   0.00000  Uiso   1.00
C434   C     0.81031   0.43840   0.09483   0.00000  Uiso   1.00
C435   C     0.83787   0.40170   0.10865   0.00000  Uiso   1.00
C436   C     0.80480   0.36525   0.13271   0.00000  Uiso   1.00
H437   H     0.82576   0.33852   0.14045   0.00000  Uiso   1.00
H438   H     0.77812   0.37484   0.17095   0.00000  Uiso   1.00
H439   H     0.78616   0.35462   0.10464   0.00000  Uiso   1.00
H440   H     0.86549   0.39071   0.07178   0.00000  Uiso   1.00
H441   H     0.85590   0.41182   0.13741   0.00000  Uiso   1.00
H442   H     0.79176   0.42536   0.06796   0.00000  Uiso   1.00
H443   H     0.78196   0.44947   0.13065   0.00000  Uiso   1.00
I444   I     0.88333   0.41067   0.35926   0.00000  Uiso   1.00
C445   C     0.16628   0.91327   0.25133   0.00000  Uiso   1.00
C446   C     0.14697   0.81445   0.49074   0.00000  Uiso   1.00
C447   C     0.15968   0.81097   0.43509   0.00000  Uiso   1.00
C448   C     0.18393   0.81539   0.01342   0.00000  Uiso   1.00
C449   C     0.22988   0.82652   0.48035   0.00000  Uiso   1.00
C450   C     0.24348   0.81245   0.42682   0.00000  Uiso   1.00
C451   C     0.20686   0.79889   0.40751   0.00000  Uiso   1.00
C452   C     0.17696   0.80723   0.06721   0.00000  Uiso   1.00
C453   C     0.24742   0.84889   0.05943   0.00000  Uiso   1.00
C454   C     0.12587   0.82101   0.40928   0.00000  Uiso   1.00
C455   C     0.20591   0.97813   0.21881   0.00000  Uiso   1.00
C456   C     0.14088   0.82972   0.35159   0.00000  Uiso   1.00
C457   C     0.20666   0.68778   0.21841   0.00000  Uiso   1.00
C458   C     0.16714   0.70938   0.25060   0.00000  Uiso   1.00
C459   C     0.12816   0.68897   0.28513   0.00000  Uiso   1.00
C460   C     0.12791   0.97937   0.28738   0.00000  Uiso   1.00
C461   C     0.16627   0.95748   0.25255   0.00000  Uiso   1.00
C462   C     0.31510   0.79995   0.23050   0.00000  Uiso   1.00
C463   C     0.02953   0.79989   0.23072   0.00000  Uiso   1.00
C464   C     0.01811   0.86660   0.26964   0.00000  Uiso   1.00
C465   C     0.30361   0.86654   0.26983   0.00000  Uiso   1.00
C466   C     0.16692   0.75344   0.24959   0.00000  Uiso   1.00
C467   C     0.19247   0.83166   0.14852   0.00000  Uiso   1.00
C468   C     0.25961   0.84793   0.00388   0.00000  Uiso   1.00
C469   C     0.20720   0.82749   0.09101   0.00000  Uiso   1.00
C470   C     0.07826   0.82686   0.43997   0.00000  Uiso   1.00
C471   C     0.06476   0.82618   0.49551   0.00000  Uiso   1.00
C472   C     0.09906   0.82174   0.02090   0.00000  Uiso   1.00
H473   H     0.26814   0.86765   0.07798   0.00000  Uiso   1.00
H474   H     0.23707   0.70412   0.19209   0.00000  Uiso   1.00
H475   H     0.09891   0.70648   0.31147   0.00000  Uiso   1.00
H476   H     0.30175   0.77319   0.21479   0.00000  Uiso   1.00
H477   H     0.05186   0.77297   0.21545   0.00000  Uiso   1.00
H478   H     0.03136   0.89332   0.28522   0.00000  Uiso   1.00
H479   H     0.28102   0.89318   0.28588   0.00000  Uiso   1.00
H480   H     0.05186   0.83357   0.42088   0.00000  Uiso   1.00
H481   H     0.08819   0.82593   0.06374   0.00000  Uiso   1.00
H482   H     0.02806   0.83157   0.01891   0.00000  Uiso   1.00
H483   H     0.23580   0.96102   0.19251   0.00000  Uiso   1.00
N484   N     0.04760   0.83334   0.25002   0.00000  Uiso   1.00
N485   N     0.28573   0.83331   0.25001   0.00000  Uiso   1.00
O486   O     0.12846   0.89442   0.25001   0.00000  Uiso   1.00
O487   O     0.20490   0.89441   0.25001   0.00000  Uiso   1.00
O488   O     0.10947   0.83333   0.32681   0.00000  Uiso   1.00
O489   O     0.18591   0.83332   0.32681   0.00000  Uiso   1.00
O490   O     0.12843   0.77226   0.25000   0.00000  Uiso   1.00
O491   O     0.20488   0.77225   0.25000   0.00000  Uiso   1.00
O492   O     0.14742   0.83335   0.17319   0.00000  Uiso   1.00
O493   O     0.22387   0.83334   0.17319   0.00000  Uiso   1.00
Zn494  Zn    0.11562   0.83334   0.25000   0.00000  Uiso   1.00
Zn495  Zn    0.21771   0.83333   0.25000   0.00000  Uiso   1.00
I496   I     0.07198   0.95103   0.34845   0.00000  Uiso   1.00
C497   C     0.29462   0.80188   0.39581   0.00000  Uiso   1.00
C498   C     0.31263   0.76535   0.42232   0.00000  Uiso   1.00
C499   C     0.02378   0.74542   0.38405   0.00000  Uiso   1.00
H500   H     0.01527   0.73073   0.35011   0.00000  Uiso   1.00
H501   H     0.05184   0.76919   0.36825   0.00000  Uiso   1.00
H502   H     0.03745   0.72086   0.40533   0.00000  Uiso   1.00
H503   H     0.32056   0.77674   0.45827   0.00000  Uiso   1.00
H504   H     0.28491   0.74076   0.43530   0.00000  Uiso   1.00
H505   H     0.29772   0.79358   0.35405   0.00000  Uiso   1.00
H506   H     0.31790   0.82929   0.39166   0.00000  Uiso   1.00
I507   I     0.30675   0.89546   0.46307   0.00000  Uiso   1.00
C508   C     0.14364   0.77173   0.09483   0.00000  Uiso   1.00
C509   C     0.17120   0.73503   0.10865   0.00000  Uiso   1.00
C510   C     0.13814   0.69858   0.13271   0.00000  Uiso   1.00
H511   H     0.15910   0.67186   0.14045   0.00000  Uiso   1.00
H512   H     0.11145   0.70817   0.17095   0.00000  Uiso   1.00
H513   H     0.11950   0.68795   0.10464   0.00000  Uiso   1.00
H514   H     0.19883   0.72404   0.07178   0.00000  Uiso   1.00
H515   H     0.18923   0.74515   0.13741   0.00000  Uiso   1.00
H516   H     0.12510   0.75869   0.06796   0.00000  Uiso   1.00
H517   H     0.11529   0.78280   0.13065   0.00000  Uiso   1.00
I518   I     0.21666   0.74400   0.35926   0.00000  Uiso   1.00
C519   C     0.49961   0.91327   0.25133   0.00000  Uiso   1.00
C520   C     0.48030   0.81445   0.49074   0.00000  Uiso   1.00
C521   C     0.49301   0.81097   0.43509   0.00000  Uiso   1.00
C522   C     0.51726   0.81539   0.01342   0.00000  Uiso   1.00
C523   C     0.56321   0.82652   0.48035   0.00000  Uiso   1.00
C524   C     0.57681   0.81245   0.42682   0.00000  Uiso   1.00
C525   C     0.54019   0.79889   0.40751   0.00000  Uiso   1.00
C526   C     0.51029   0.80723   0.06721   0.00000  Uiso   1.00
C527   C     0.58075   0.84889   0.05943   0.00000  Uiso   1.00
C528   C     0.45920   0.82101   0.40928   0.00000  Uiso   1.00
C529   C     0.53925   0.97813   0.21881   0.00000  Uiso   1.00
C530   C     0.47422   0.82972   0.35159   0.00000  Uiso   1.00
C531   C     0.53999   0.68778   0.21841   0.00000  Uiso   1.00
C532   C     0.50047   0.70938   0.25060   0.00000  Uiso   1.00
C533   C     0.46149   0.68897   0.28513   0.00000  Uiso   1.00
C534   C     0.46125   0.97937   0.28738   0.00000  Uiso   1.00
C535   C     0.49960   0.95748   0.25255   0.00000  Uiso   1.00
C536   C     0.64844   0.79995   0.23050   0.00000  Uiso   1.00
C537   C     0.36286   0.79989   0.23072   0.00000  Uiso   1.00
C538   C     0.35145   0.86660   0.26964   0.00000  Uiso   1.00
C539   C     0.63695   0.86654   0.26983   0.00000  Uiso   1.00
C540   C     0.50026   0.75344   0.24959   0.00000  Uiso   1.00
C541   C     0.52580   0.83166   0.14852   0.00000  Uiso   1.00
C542   C     0.59294   0.84793   0.00388   0.00000  Uiso   1.00
C543   C     0.54054   0.82749   0.09101   0.00000  Uiso   1.00
C544   C     0.41159   0.82686   0.43997   0.00000  Uiso   1.00
C545   C     0.39809   0.82618   0.49551   0.00000  Uiso   1.00
C546   C     0.43239   0.82174   0.02090   0.00000  Uiso   1.00
H547   H     0.60148   0.86765   0.07798   0.00000  Uiso   1.00
H548   H     0.57041   0.70412   0.19209   0.00000  Uiso   1.00
H549   H     0.43224   0.70648   0.31147   0.00000  Uiso   1.00
H550   H     0.63508   0.77319   0.21479   0.00000  Uiso   1.00
H551   H     0.38520   0.77297   0.21545   0.00000  Uiso   1.00
H552   H     0.36470   0.89332   0.28522   0.00000  Uiso   1.00
H553   H     0.61435   0.89318   0.28588   0.00000  Uiso   1.00
H554   H     0.38519   0.83357   0.42088   0.00000  Uiso   1.00
H555   H     0.42153   0.82593   0.06374   0.00000  Uiso   1.00
H556   H     0.36139   0.83157   0.01891   0.00000  Uiso   1.00
H557   H     0.56914   0.96102   0.19251   0.00000  Uiso   1.00
N558   N     0.38093   0.83334   0.25002   0.00000  Uiso   1.00
N559   N     0.61906   0.83331   0.25001   0.00000  Uiso   1.00
O560   O     0.46179   0.89442   0.25001   0.00000  Uiso   1.00
O561   O     0.53823   0.89441   0.25001   0.00000  Uiso   1.00
O562   O     0.44280   0.83333   0.32681   0.00000  Uiso   1.00
O563   O     0.51924   0.83332   0.32681   0.00000  Uiso   1.00
O564   O     0.46177   0.77226   0.25000   0.00000  Uiso   1.00
O565   O     0.53821   0.77225   0.25000   0.00000  Uiso   1.00
O566   O     0.48076   0.83335   0.17319   0.00000  Uiso   1.00
O567   O     0.55720   0.83334   0.17319   0.00000  Uiso   1.00
Zn568  Zn    0.44896   0.83334   0.25000   0.00000  Uiso   1.00
Zn569  Zn    0.55104   0.83333   0.25000   0.00000  Uiso   1.00
I570   I     0.40531   0.95103   0.34845   0.00000  Uiso   1.00
C571   C     0.62795   0.80188   0.39581   0.00000  Uiso   1.00
C572   C     0.64596   0.76535   0.42232   0.00000  Uiso   1.00
C573   C     0.35712   0.74542   0.38405   0.00000  Uiso   1.00
H574   H     0.34861   0.73073   0.35011   0.00000  Uiso   1.00
H575   H     0.38518   0.76919   0.36825   0.00000  Uiso   1.00
H576   H     0.37078   0.72086   0.40533   0.00000  Uiso   1.00
H577   H     0.65390   0.77674   0.45827   0.00000  Uiso   1.00
H578   H     0.61825   0.74076   0.43530   0.00000  Uiso   1.00
H579   H     0.63106   0.79358   0.35405   0.00000  Uiso   1.00
H580   H     0.65123   0.82929   0.39166   0.00000  Uiso   1.00
I581   I     0.64008   0.89546   0.46307   0.00000  Uiso   1.00
C582   C     0.47698   0.77173   0.09483   0.00000  Uiso   1.00
C583   C     0.50454   0.73503   0.10865   0.00000  Uiso   1.00
C584   C     0.47147   0.69858   0.13271   0.00000  Uiso   1.00
H585   H     0.49243   0.67186   0.14045   0.00000  Uiso   1.00
H586   H     0.44478   0.70817   0.17095   0.00000  Uiso   1.00
H587   H     0.45283   0.68795   0.10464   0.00000  Uiso   1.00
H588   H     0.53216   0.72404   0.07178   0.00000  Uiso   1.00
H589   H     0.52257   0.74515   0.13741   0.00000  Uiso   1.00
H590   H     0.45843   0.75869   0.06796   0.00000  Uiso   1.00
H591   H     0.44862   0.78280   0.13065   0.00000  Uiso   1.00
I592   I     0.54999   0.74400   0.35926   0.00000  Uiso   1.00
C593   C     0.83294   0.91327   0.25133   0.00000  Uiso   1.00
C594   C     0.81364   0.81445   0.49074   0.00000  Uiso   1.00
C595   C     0.82634   0.81097   0.43509   0.00000  Uiso   1.00
C596   C     0.85060   0.81539   0.01342   0.00000  Uiso   1.00
C597   C     0.89655   0.82652   0.48035   0.00000  Uiso   1.00
C598   C     0.91015   0.81245   0.42682   0.00000  Uiso   1.00
C599   C     0.87353   0.79889   0.40751   0.00000  Uiso   1.00
C600   C     0.84363   0.80723   0.06721   0.00000  Uiso   1.00
C601   C     0.91408   0.84889   0.05943   0.00000  Uiso   1.00
C602   C     0.79253   0.82101   0.40928   0.00000  Uiso   1.00
C603   C     0.87258   0.97813   0.21881   0.00000  Uiso   1.00
C604   C     0.80755   0.82972   0.35159   0.00000  Uiso   1.00
C605   C     0.87332   0.68778   0.21841   0.00000  Uiso   1.00
C606   C     0.83381   0.70938   0.25060   0.00000  Uiso   1.00
C607   C     0.79483   0.68897   0.28513   0.00000  Uiso   1.00
C608   C     0.79458   0.97937   0.28738   0.00000  Uiso   1.00
C609   C     0.83293   0.95748   0.25255   0.00000  Uiso   1.00
C610   C     0.98177   0.79995   0.23050   0.00000  Uiso   1.00
C611   C     0.69619   0.79989   0.23072   0.00000  Uiso   1.00
C612   C     0.68478   0.86660   0.26964   0.00000  Uiso   1.00
C613   C     0.97028   0.86654   0.26983   0.00000  Uiso   1.00
C614   C     0.83359   0.75344   0.24959   0.00000  Uiso   1.00
C615   C     0.85913   0.83166   0.14852   0.00000  Uiso   1.00
C616   C     0.92627   0.84793   0.00388   0.00000  Uiso   1.00
C617   C     0.87387   0.82749   0.09101   0.00000  Uiso   1.00
C618   C     0.74492   0.82686   0.43997   0.00000  Uiso   1.00
C619   C     0.73143   0.82618   0.49551   0.00000  Uiso   1.00
C620   C     0.76573   0.82174   0.02090   0.00000  Uiso   1.00
H621   H     0.93481   0.86765   0.07798   0.00000  Uiso   1.00
H622   H     0.90374   0.70412   0.19209   0.00000  Uiso   1.00
H623   H     0.76558   0.70648   0.31147   0.00000  Uiso   1.00
H624   H     0.96842   0.77319   0.21479   0.00000  Uiso   1.00
H625   H     0.71853   0.77297   0.21545   0.00000  Uiso   1.00
H626   H     0.69803   0.89332   0.28522   0.00000  Uiso   1.00
H627   H     0.94768   0.89318   0.28588   0.00000  Uiso   1.00
H628   H     0.71852   0.83357   0.42088   0.00000  Uiso   1.00
H629   H     0.75486   0.82593   0.06374   0.00000  Uiso   1.00
H630   H     0.69472   0.83157   0.01891   0.00000  Uiso   1.00
H631   H     0.90247   0.96102   0.19251   0.00000  Uiso   1.00
N632   N     0.71426   0.83334   0.25002   0.00000  Uiso   1.00
N633   N     0.95239   0.83331   0.25001   0.00000  Uiso   1.00
O634   O     0.79512   0.89442   0.25001   0.00000  Uiso   1.00
O635   O     0.87157   0.89441   0.25001   0.00000  Uiso   1.00
O636   O     0.77613   0.83333   0.32681   0.00000  Uiso   1.00
O637   O     0.85258   0.83332   0.32681   0.00000  Uiso   1.00
O638   O     0.79510   0.77226   0.25000   0.00000  Uiso   1.00
O639   O     0.87154   0.77225   0.25000   0.00000  Uiso   1.00
O640   O     0.81409   0.83335   0.17319   0.00000  Uiso   1.00
O641   O     0.89053   0.83334   0.17319   0.00000  Uiso   1.00
Zn642  Zn    0.78229   0.83334   0.25000   0.00000  Uiso   1.00
Zn643  Zn    0.88438   0.83333   0.25000   0.00000  Uiso   1.00
I644   I     0.73864   0.95103   0.34845   0.00000  Uiso   1.00
C645   C     0.96128   0.80188   0.39581   0.00000  Uiso   1.00
C646   C     0.97930   0.76535   0.42232   0.00000  Uiso   1.00
C647   C     0.69045   0.74542   0.38405   0.00000  Uiso   1.00
H648   H     0.68194   0.73073   0.35011   0.00000  Uiso   1.00
H649   H     0.71851   0.76919   0.36825   0.00000  Uiso   1.00
H650   H     0.70412   0.72086   0.40533   0.00000  Uiso   1.00
H651   H     0.98723   0.77674   0.45827   0.00000  Uiso   1.00
H652   H     0.95158   0.74076   0.43530   0.00000  Uiso   1.00
H653   H     0.96439   0.79358   0.35405   0.00000  Uiso   1.00
H654   H     0.98456   0.82929   0.39166   0.00000  Uiso   1.00
I655   I     0.97341   0.89546   0.46307   0.00000  Uiso   1.00
C656   C     0.81031   0.77173   0.09483   0.00000  Uiso   1.00
C657   C     0.83787   0.73503   0.10865   0.00000  Uiso   1.00
C658   C     0.80480   0.69858   0.13271   0.00000  Uiso   1.00
H659   H     0.82576   0.67186   0.14045   0.00000  Uiso   1.00
H660   H     0.77812   0.70817   0.17095   0.00000  Uiso   1.00
H661   H     0.78616   0.68795   0.10464   0.00000  Uiso   1.00
H662   H     0.86549   0.72404   0.07178   0.00000  Uiso   1.00
H663   H     0.85590   0.74515   0.13741   0.00000  Uiso   1.00
H664   H     0.79176   0.75869   0.06796   0.00000  Uiso   1.00
H665   H     0.78196   0.78280   0.13065   0.00000  Uiso   1.00
I666   I     0.88333   0.74400   0.35926   0.00000  Uiso   1.00
C667   C     0.16628   0.24660   0.75133   0.00000  Uiso   1.00
C668   C     0.14697   0.14779   0.99074   0.00000  Uiso   1.00
C669   C     0.15968   0.14430   0.93509   0.00000  Uiso   1.00
C670   C     0.18393   0.14872   0.51342   0.00000  Uiso   1.00
C671   C     0.22988   0.15985   0.98035   0.00000  Uiso   1.00
C672   C     0.24348   0.14579   0.92682   0.00000  Uiso   1.00
C673   C     0.20686   0.13222   0.90751   0.00000  Uiso   1.00
C674   C     0.17696   0.14056   0.56721   0.00000  Uiso   1.00
C675   C     0.24742   0.18222   0.55943   0.00000  Uiso   1.00
C676   C     0.12587   0.15434   0.90928   0.00000  Uiso   1.00
C677   C     0.20591   0.31147   0.71881   0.00000  Uiso   1.00
C678   C     0.14088   0.16305   0.85159   0.00000  Uiso   1.00
C679   C     0.20666   0.02112   0.71841   0.00000  Uiso   1.00
C680   C     0.16714   0.04271   0.75060   0.00000  Uiso   1.00
C681   C     0.12816   0.02230   0.78513   0.00000  Uiso   1.00
C682   C     0.12791   0.31270   0.78738   0.00000  Uiso   1.00
C683   C     0.16627   0.29081   0.75255   0.00000  Uiso   1.00
C684   C     0.31510   0.13328   0.73050   0.00000  Uiso   1.00
C685   C     0.02953   0.13322   0.73072   0.00000  Uiso   1.00
C686   C     0.01811   0.19993   0.76964   0.00000  Uiso   1.00
C687   C     0.30361   0.19988   0.76983   0.00000  Uiso   1.00
C688   C     0.16692   0.08678   0.74959   0.00000  Uiso   1.00
C689   C     0.19247   0.16500   0.64852   0.00000  Uiso   1.00
C690   C     0.25961   0.18127   0.50388   0.00000  Uiso   1.00
C691   C     0.20720   0.16082   0.59101   0.00000  Uiso   1.00
C692   C     0.07826   0.16020   0.93997   0.00000  Uiso   1.00
C693   C     0.06476   0.15951   0.99551   0.00000  Uiso   1.00
C694   C     0.09906   0.15508   0.52090   0.00000  Uiso   1.00
H695   H     0.26814   0.20098   0.57798   0.00000  Uiso   1.00
H696   H     0.23707   0.03745   0.69209   0.00000  Uiso   1.00
H697   H     0.09891   0.03982   0.81147   0.00000  Uiso   1.00
H698   H     0.30175   0.10652   0.71479   0.00000  Uiso   1.00
H699   H     0.05186   0.10631   0.71545   0.00000  Uiso   1.00
H700   H     0.03136   0.22665   0.78522   0.00000  Uiso   1.00
H701   H     0.28102   0.22651   0.78588   0.00000  Uiso   1.00
H702   H     0.05186   0.16691   0.92088   0.00000  Uiso   1.00
H703   H     0.08819   0.15927   0.56374   0.00000  Uiso   1.00
H704   H     0.02806   0.16491   0.51891   0.00000  Uiso   1.00
H705   H     0.23580   0.29435   0.69251   0.00000  Uiso   1.00
N706   N     0.04760   0.16668   0.75002   0.00000  Uiso   1.00
N707   N     0.28573   0.16665   0.75001   0.00000  Uiso   1.00
O708   O     0.12846   0.22775   0.75001   0.00000  Uiso   1.00
O709   O     0.20490   0.22774   0.75001   0.00000  Uiso   1.00
O710   O     0.10947   0.16666   0.82681   0.00000  Uiso   1.00
O711   O     0.18591   0.16665   0.82681   0.00000  Uiso   1.00
O712   O     0.12843   0.10559   0.75000   0.00000  Uiso   1.00
O713   O     0.20488   0.10558   0.75000   0.00000  Uiso   1.00
O714   O     0.14742   0.16668   0.67319   0.00000  Uiso   1.00
O715   O     0.22387   0.16667   0.67319   0.00000  Uiso   1.00
Zn716  Zn    0.11562   0.16667   0.75000   0.00000  Uiso   1.00
Zn717  Zn    0.21771   0.16666   0.75000   0.00000  Uiso   1.00
I718   I     0.07198   0.28437   0.84845   0.00000  Uiso   1.00
C719   C     0.29462   0.13521   0.89581   0.00000  Uiso   1.00
C720   C     0.31263   0.09868   0.92232   0.00000  Uiso   1.00
C721   C     0.02378   0.07875   0.88405   0.00000  Uiso   1.00
H722   H     0.01527   0.06406   0.85011   0.00000  Uiso   1.00
H723   H     0.05184   0.10252   0.86825   0.00000  Uiso   1.00
H724   H     0.03745   0.05419   0.90533   0.00000  Uiso   1.00
H725   H     0.32056   0.11008   0.95827   0.00000  Uiso   1.00
H726   H     0.28491   0.07409   0.93530   0.00000  Uiso   1.00
H727   H     0.29772   0.12691   0.85405   0.00000  Uiso   1.00
H728   H     0.31790   0.16263   0.89166   0.00000  Uiso   1.00
I729   I     0.30675   0.22880   0.96307   0.00000  Uiso   1.00
C730   C     0.14364   0.10507   0.59483   0.00000  Uiso   1.00
C731   C     0.17120   0.06837   0.60865   0.00000  Uiso   1.00
C732   C     0.13814   0.03191   0.63271   0.00000  Uiso   1.00
H733   H     0.15910   0.00519   0.64045   0.00000  Uiso   1.00
H734   H     0.11145   0.04151   0.67095   0.00000  Uiso   1.00
H735   H     0.11950   0.02129   0.60464   0.00000  Uiso   1.00
H736   H     0.19883   0.05737   0.57178   0.00000  Uiso   1.00
H737   H     0.18923   0.07849   0.63741   0.00000  Uiso   1.00
H738   H     0.12510   0.09203   0.56796   0.00000  Uiso   1.00
H739   H     0.11529   0.11614   0.63065   0.00000  Uiso   1.00
I740   I     0.21666   0.07733   0.85926   0.00000  Uiso   1.00
C741   C     0.49961   0.24660   0.75133   0.00000  Uiso   1.00
C742   C     0.48030   0.14779   0.99074   0.00000  Uiso   1.00
C743   C     0.49301   0.14430   0.93509   0.00000  Uiso   1.00
C744   C     0.51726   0.14872   0.51342   0.00000  Uiso   1.00
C745   C     0.56321   0.15985   0.98035   0.00000  Uiso   1.00
C746   C     0.57681   0.14579   0.92682   0.00000  Uiso   1.00
C747   C     0.54019   0.13222   0.90751   0.00000  Uiso   1.00
C748   C     0.51029   0.14056   0.56721   0.00000  Uiso   1.00
C749   C     0.58075   0.18222   0.55943   0.00000  Uiso   1.00
C750   C     0.45920   0.15434   0.90928   0.00000  Uiso   1.00
C751   C     0.53925   0.31147   0.71881   0.00000  Uiso   1.00
C752   C     0.47422   0.16305   0.85159   0.00000  Uiso   1.00
C753   C     0.53999   0.02112   0.71841   0.00000  Uiso   1.00
C754   C     0.50047   0.04271   0.75060   0.00000  Uiso   1.00
C755   C     0.46149   0.02230   0.78513   0.00000  Uiso   1.00
C756   C     0.46125   0.31270   0.78738   0.00000  Uiso   1.00
C757   C     0.49960   0.29081   0.75255   0.00000  Uiso   1.00
C758   C     0.64844   0.13328   0.73050   0.00000  Uiso   1.00
C759   C     0.36286   0.13322   0.73072   0.00000  Uiso   1.00
C760   C     0.35145   0.19993   0.76964   0.00000  Uiso   1.00
C761   C     0.63695   0.19988   0.76983   0.00000  Uiso   1.00
C762   C     0.50026   0.08678   0.74959   0.00000  Uiso   1.00
C763   C     0.52580   0.16500   0.64852   0.00000  Uiso   1.00
C764   C     0.59294   0.18127   0.50388   0.00000  Uiso   1.00
C765   C     0.54054   0.16082   0.59101   0.00000  Uiso   1.00
C766   C     0.41159   0.16020   0.93997   0.00000  Uiso   1.00
C767   C     0.39809   0.15951   0.99551   0.00000  Uiso   1.00
C768   C     0.43239   0.15508   0.52090   0.00000  Uiso   1.00
H769   H     0.60148   0.20098   0.57798   0.00000  Uiso   1.00
H770   H     0.57041   0.03745   0.69209   0.00000  Uiso   1.00
H771   H     0.43224   0.03982   0.81147   0.00000  Uiso   1.00
H772   H     0.63508   0.10652   0.71479   0.00000  Uiso   1.00
H773   H     0.38520   0.10631   0.71545   0.00000  Uiso   1.00
H774   H     0.36470   0.22665   0.78522   0.00000  Uiso   1.00
H775   H     0.61435   0.22651   0.78588   0.00000  Uiso   1.00
H776   H     0.38519   0.16691   0.92088   0.00000  Uiso   1.00
H777   H     0.42153   0.15927   0.56374   0.00000  Uiso   1.00
H778   H     0.36139   0.16491   0.51891   0.00000  Uiso   1.00
H779   H     0.56914   0.29435   0.69251   0.00000  Uiso   1.00
N780   N     0.38093   0.16668   0.75002   0.00000  Uiso   1.00
N781   N     0.61906   0.16665   0.75001   0.00000  Uiso   1.00
O782   O     0.46179   0.22775   0.75001   0.00000  Uiso   1.00
O783   O     0.53823   0.22774   0.75001   0.00000  Uiso   1.00
O784   O     0.44280   0.16666   0.82681   0.00000  Uiso   1.00
O785   O     0.51924   0.16665   0.82681   0.00000  Uiso   1.00
O786   O     0.46177   0.10559   0.75000   0.00000  Uiso   1.00
O787   O     0.53821   0.10558   0.75000   0.00000  Uiso   1.00
O788   O     0.48076   0.16668   0.67319   0.00000  Uiso   1.00
O789   O     0.55720   0.16667   0.67319   0.00000  Uiso   1.00
Zn790  Zn    0.44896   0.16667   0.75000   0.00000  Uiso   1.00
Zn791  Zn    0.55104   0.16666   0.75000   0.00000  Uiso   1.00
I792   I     0.40531   0.28437   0.84845   0.00000  Uiso   1.00
C793   C     0.62795   0.13521   0.89581   0.00000  Uiso   1.00
C794   C     0.64596   0.09868   0.92232   0.00000  Uiso   1.00
C795   C     0.35712   0.07875   0.88405   0.00000  Uiso   1.00
H796   H     0.34861   0.06406   0.85011   0.00000  Uiso   1.00
H797   H     0.38518   0.10252   0.86825   0.00000  Uiso   1.00
H798   H     0.37078   0.05419   0.90533   0.00000  Uiso   1.00
H799   H     0.65390   0.11008   0.95827   0.00000  Uiso   1.00
H800   H     0.61825   0.07409   0.93530   0.00000  Uiso   1.00
H801   H     0.63106   0.12691   0.85405   0.00000  Uiso   1.00
H802   H     0.65123   0.16263   0.89166   0.00000  Uiso   1.00
I803   I     0.64008   0.22880   0.96307   0.00000  Uiso   1.00
C804   C     0.47698   0.10507   0.59483   0.00000  Uiso   1.00
C805   C     0.50454   0.06837   0.60865   0.00000  Uiso   1.00
C806   C     0.47147   0.03191   0.63271   0.00000  Uiso   1.00
H807   H     0.49243   0.00519   0.64045   0.00000  Uiso   1.00
H808   H     0.44478   0.04151   0.67095   0.00000  Uiso   1.00
H809   H     0.45283   0.02129   0.60464   0.00000  Uiso   1.00
H810   H     0.53216   0.05737   0.57178   0.00000  Uiso   1.00
H811   H     0.52257   0.07849   0.63741   0.00000  Uiso   1.00
H812   H     0.45843   0.09203   0.56796   0.00000  Uiso   1.00
H813   H     0.44862   0.11614   0.63065   0.00000  Uiso   1.00
I814   I     0.54999   0.07733   0.85926   0.00000  Uiso   1.00
C815   C     0.83294   0.24660   0.75133   0.00000  Uiso   1.00
C816   C     0.81364   0.14779   0.99074   0.00000  Uiso   1.00
C817   C     0.82634   0.14430   0.93509   0.00000  Uiso   1.00
C818   C     0.85060   0.14872   0.51342   0.00000  Uiso   1.00
C819   C     0.89655   0.15985   0.98035   0.00000  Uiso   1.00
C820   C     0.91015   0.14579   0.92682   0.00000  Uiso   1.00
C821   C     0.87353   0.13222   0.90751   0.00000  Uiso   1.00
C822   C     0.84363   0.14056   0.56721   0.00000  Uiso   1.00
C823   C     0.91408   0.18222   0.55943   0.00000  Uiso   1.00
C824   C     0.79253   0.15434   0.90928   0.00000  Uiso   1.00
C825   C     0.87258   0.31147   0.71881   0.00000  Uiso   1.00
C826   C     0.80755   0.16305   0.85159   0.00000  Uiso   1.00
C827   C     0.87332   0.02112   0.71841   0.00000  Uiso   1.00
C828   C     0.83381   0.04271   0.75060   0.00000  Uiso   1.00
C829   C     0.79483   0.02230   0.78513   0.00000  Uiso   1.00
C830   C     0.79458   0.31270   0.78738   0.00000  Uiso   1.00
C831   C     0.83293   0.29081   0.75255   0.00000  Uiso   1.00
C832   C     0.98177   0.13328   0.73050   0.00000  Uiso   1.00
C833   C     0.69619   0.13322   0.73072   0.00000  Uiso   1.00
C834   C     0.68478   0.19993   0.76964   0.00000  Uiso   1.00
C835   C     0.97028   0.19988   0.76983   0.00000  Uiso   1.00
C836   C     0.83359   0.08678   0.74959   0.00000  Uiso   1.00
C837   C     0.85913   0.16500   0.64852   0.00000  Uiso   1.00
C838   C     0.92627   0.18127   0.50388   0.00000  Uiso   1.00
C839   C     0.87387   0.16082   0.59101   0.00000  Uiso   1.00
C840   C     0.74492   0.16020   0.93997   0.00000  Uiso   1.00
C841   C     0.73143   0.15951   0.99551   0.00000  Uiso   1.00
C842   C     0.76573   0.15508   0.52090   0.00000  Uiso   1.00
H843   H     0.93481   0.20098   0.57798   0.00000  Uiso   1.00
H844   H     0.90374   0.03745   0.69209   0.00000  Uiso   1.00
H845   H     0.76558   0.03982   0.81147   0.00000  Uiso   1.00
H846   H     0.96842   0.10652   0.71479   0.00000  Uiso   1.00
H847   H     0.71853   0.10631   0.71545   0.00000  Uiso   1.00
H848   H     0.69803   0.22665   0.78522   0.00000  Uiso   1.00
H849   H     0.94768   0.22651   0.78588   0.00000  Uiso   1.00
H850   H     0.71852   0.16691   0.92088   0.00000  Uiso   1.00
H851   H     0.75486   0.15927   0.56374   0.00000  Uiso   1.00
H852   H     0.69472   0.16491   0.51891   0.00000  Uiso   1.00
H853   H     0.90247   0.29435   0.69251   0.00000  Uiso   1.00
N854   N     0.71426   0.16668   0.75002   0.00000  Uiso   1.00
N855   N     0.95239   0.16665   0.75001   0.00000  Uiso   1.00
O856   O     0.79512   0.22775   0.75001   0.00000  Uiso   1.00
O857   O     0.87157   0.22774   0.75001   0.00000  Uiso   1.00
O858   O     0.77613   0.16666   0.82681   0.00000  Uiso   1.00
O859   O     0.85258   0.16665   0.82681   0.00000  Uiso   1.00
O860   O     0.79510   0.10559   0.75000   0.00000  Uiso   1.00
O861   O     0.87154   0.10558   0.75000   0.00000  Uiso   1.00
O862   O     0.81409   0.16668   0.67319   0.00000  Uiso   1.00
O863   O     0.89053   0.16667   0.67319   0.00000  Uiso   1.00
Zn864  Zn    0.78229   0.16667   0.75000   0.00000  Uiso   1.00
Zn865  Zn    0.88438   0.16666   0.75000   0.00000  Uiso   1.00
I866   I     0.73864   0.28437   0.84845   0.00000  Uiso   1.00
C867   C     0.96128   0.13521   0.89581   0.00000  Uiso   1.00
C868   C     0.97930   0.09868   0.92232   0.00000  Uiso   1.00
C869   C     0.69045   0.07875   0.88405   0.00000  Uiso   1.00
H870   H     0.68194   0.06406   0.85011   0.00000  Uiso   1.00
H871   H     0.71851   0.10252   0.86825   0.00000  Uiso   1.00
H872   H     0.70412   0.05419   0.90533   0.00000  Uiso   1.00
H873   H     0.98723   0.11008   0.95827   0.00000  Uiso   1.00
H874   H     0.95158   0.07409   0.93530   0.00000  Uiso   1.00
H875   H     0.96439   0.12691   0.85405   0.00000  Uiso   1.00
H876   H     0.98456   0.16263   0.89166   0.00000  Uiso   1.00
I877   I     0.97341   0.22880   0.96307   0.00000  Uiso   1.00
C878   C     0.81031   0.10507   0.59483   0.00000  Uiso   1.00
C879   C     0.83787   0.06837   0.60865   0.00000  Uiso   1.00
C880   C     0.80480   0.03191   0.63271   0.00000  Uiso   1.00
H881   H     0.82576   0.00519   0.64045   0.00000  Uiso   1.00
H882   H     0.77812   0.04151   0.67095   0.00000  Uiso   1.00
H883   H     0.78616   0.02129   0.60464   0.00000  Uiso   1.00
H884   H     0.86549   0.05737   0.57178   0.00000  Uiso   1.00
H885   H     0.85590   0.07849   0.63741   0.00000  Uiso   1.00
H886   H     0.79176   0.09203   0.56796   0.00000  Uiso   1.00
H887   H     0.78196   0.11614   0.63065   0.00000  Uiso   1.00
I888   I     0.88333   0.07733   0.85926   0.00000  Uiso   1.00
C889   C     0.16628   0.57994   0.75133   0.00000  Uiso   1.00
C890   C     0.14697   0.48112   0.99074   0.00000  Uiso   1.00
C891   C     0.15968   0.47764   0.93509   0.00000  Uiso   1.00
C892   C     0.18393   0.48206   0.51342   0.00000  Uiso   1.00
C893   C     0.22988   0.49318   0.98035   0.00000  Uiso   1.00
C894   C     0.24348   0.47912   0.92682   0.00000  Uiso   1.00
C895   C     0.20686   0.46556   0.90751   0.00000  Uiso   1.00
C896   C     0.17696   0.47389   0.56721   0.00000  Uiso   1.00
C897   C     0.24742   0.51555   0.55943   0.00000  Uiso   1.00
C898   C     0.12587   0.48768   0.90928   0.00000  Uiso   1.00
C899   C     0.20591   0.64480   0.71881   0.00000  Uiso   1.00
C900   C     0.14088   0.49638   0.85159   0.00000  Uiso   1.00
C901   C     0.20666   0.35445   0.71841   0.00000  Uiso   1.00
C902   C     0.16714   0.37605   0.75060   0.00000  Uiso   1.00
C903   C     0.12816   0.35563   0.78513   0.00000  Uiso   1.00
C904   C     0.12791   0.64603   0.78738   0.00000  Uiso   1.00
C905   C     0.16627   0.62414   0.75255   0.00000  Uiso   1.00
C906   C     0.31510   0.46662   0.73050   0.00000  Uiso   1.00
C907   C     0.02953   0.46656   0.73072   0.00000  Uiso   1.00
C908   C     0.01811   0.53326   0.76964   0.00000  Uiso   1.00
C909   C     0.30361   0.53321   0.76983   0.00000  Uiso   1.00
C910   C     0.16692   0.42011   0.74959   0.00000  Uiso   1.00
C911   C     0.19247   0.49833   0.64852   0.00000  Uiso   1.00
C912   C     0.25961   0.51460   0.50388   0.00000  Uiso   1.00
C913   C     0.20720   0.49416   0.59101   0.00000  Uiso   1.00
C914   C     0.07826   0.49353   0.93997   0.00000  Uiso   1.00
C915   C     0.06476   0.49285   0.99551   0.00000  Uiso   1.00
C916   C     0.09906   0.48841   0.52090   0.00000  Uiso   1.00
H917   H     0.26814   0.53431   0.57798   0.00000  Uiso   1.00
H918   H     0.23707   0.37079   0.69209   0.00000  Uiso   1.00
H919   H     0.09891   0.37315   0.81147   0.00000  Uiso   1.00
H920   H     0.30175   0.43986   0.71479   0.00000  Uiso   1.00
H921   H     0.05186   0.43964   0.71545   0.00000  Uiso   1.00
H922   H     0.03136   0.55999   0.78522   0.00000  Uiso   1.00
H923   H     0.28102   0.55985   0.78588   0.00000  Uiso   1.00
H924   H     0.05186   0.50024   0.92088   0.00000  Uiso   1.00
H925   H     0.08819   0.49260   0.56374   0.00000  Uiso   1.00
H926   H     0.02806   0.49824   0.51891   0.00000  Uiso   1.00
H927   H     0.23580   0.62769   0.69251   0.00000  Uiso   1.00
N928   N     0.04760   0.50001   0.75002   0.00000  Uiso   1.00
N929   N     0.28573   0.49998   0.75001   0.00000  Uiso   1.00
O930   O     0.12846   0.56108   0.75001   0.00000  Uiso   1.00
O931   O     0.20490   0.56107   0.75001   0.00000  Uiso   1.00
O932   O     0.10947   0.50000   0.82681   0.00000  Uiso   1.00
O933   O     0.18591   0.49999   0.82681   0.00000  Uiso   1.00
O934   O     0.12843   0.43893   0.75000   0.00000  Uiso   1.00
O935   O     0.20488   0.43892   0.75000   0.00000  Uiso   1.00
O936   O     0.14742   0.50001   0.67319   0.00000  Uiso   1.00
O937   O     0.22387   0.50000   0.67319   0.00000  Uiso   1.00
Zn938  Zn    0.11562   0.50001   0.75000   0.00000  Uiso   1.00
Zn939  Zn    0.21771   0.49999   0.75000   0.00000  Uiso   1.00
I940   I     0.07198   0.61770   0.84845   0.00000  Uiso   1.00
C941   C     0.29462   0.46855   0.89581   0.00000  Uiso   1.00
C942   C     0.31263   0.43201   0.92232   0.00000  Uiso   1.00
C943   C     0.02378   0.41209   0.88405   0.00000  Uiso   1.00
H944   H     0.01527   0.39739   0.85011   0.00000  Uiso   1.00
H945   H     0.05184   0.43586   0.86825   0.00000  Uiso   1.00
H946   H     0.03745   0.38752   0.90533   0.00000  Uiso   1.00
H947   H     0.32056   0.44341   0.95827   0.00000  Uiso   1.00
H948   H     0.28491   0.40743   0.93530   0.00000  Uiso   1.00
H949   H     0.29772   0.46025   0.85405   0.00000  Uiso   1.00
H950   H     0.31790   0.49596   0.89166   0.00000  Uiso   1.00
I951   I     0.30675   0.56213   0.96307   0.00000  Uiso   1.00
C952   C     0.14364   0.43840   0.59483   0.00000  Uiso   1.00
C953   C     0.17120   0.40170   0.60865   0.00000  Uiso   1.00
C954   C     0.13814   0.36525   0.63271   0.00000  Uiso   1.00
H955   H     0.15910   0.33852   0.64045   0.00000  Uiso   1.00
H956   H     0.11145   0.37484   0.67095   0.00000  Uiso   1.00
H957   H     0.11950   0.35462   0.60464   0.00000  Uiso   1.00
H958   H     0.19883   0.39071   0.57178   0.00000  Uiso   1.00
H959   H     0.18923   0.41182   0.63741   0.00000  Uiso   1.00
H960   H     0.12510   0.42536   0.56796   0.00000  Uiso   1.00
H961   H     0.11529   0.44947   0.63065   0.00000  Uiso   1.00
I962   I     0.21666   0.41067   0.85926   0.00000  Uiso   1.00
C963   C     0.49961   0.57994   0.75133   0.00000  Uiso   1.00
C964   C     0.48030   0.48112   0.99074   0.00000  Uiso   1.00
C965   C     0.49301   0.47764   0.93509   0.00000  Uiso   1.00
C966   C     0.51726   0.48206   0.51342   0.00000  Uiso   1.00
C967   C     0.56321   0.49318   0.98035   0.00000  Uiso   1.00
C968   C     0.57681   0.47912   0.92682   0.00000  Uiso   1.00
C969   C     0.54019   0.46556   0.90751   0.00000  Uiso   1.00
C970   C     0.51029   0.47389   0.56721   0.00000  Uiso   1.00
C971   C     0.58075   0.51555   0.55943   0.00000  Uiso   1.00
C972   C     0.45920   0.48768   0.90928   0.00000  Uiso   1.00
C973   C     0.53925   0.64480   0.71881   0.00000  Uiso   1.00
C974   C     0.47422   0.49638   0.85159   0.00000  Uiso   1.00
C975   C     0.53999   0.35445   0.71841   0.00000  Uiso   1.00
C976   C     0.50047   0.37605   0.75060   0.00000  Uiso   1.00
C977   C     0.46149   0.35563   0.78513   0.00000  Uiso   1.00
C978   C     0.46125   0.64603   0.78738   0.00000  Uiso   1.00
C979   C     0.49960   0.62414   0.75255   0.00000  Uiso   1.00
C980   C     0.64844   0.46662   0.73050   0.00000  Uiso   1.00
C981   C     0.36286   0.46656   0.73072   0.00000  Uiso   1.00
C982   C     0.35145   0.53326   0.76964   0.00000  Uiso   1.00
C983   C     0.63695   0.53321   0.76983   0.00000  Uiso   1.00
C984   C     0.50026   0.42011   0.74959   0.00000  Uiso   1.00
C985   C     0.52580   0.49833   0.64852   0.00000  Uiso   1.00
C986   C     0.59294   0.51460   0.50388   0.00000  Uiso   1.00
C987   C     0.54054   0.49416   0.59101   0.00000  Uiso   1.00
C988   C     0.41159   0.49353   0.93997   0.00000  Uiso   1.00
C989   C     0.39809   0.49285   0.99551   0.00000  Uiso   1.00
C990   C     0.43239   0.48841   0.52090   0.00000  Uiso   1.00
H991   H     0.60148   0.53431   0.57798   0.00000  Uiso   1.00
H992   H     0.57041   0.37079   0.69209   0.00000  Uiso   1.00
H993   H     0.43224   0.37315   0.81147   0.00000  Uiso   1.00
H994   H     0.63508   0.43986   0.71479   0.00000  Uiso   1.00
H995   H     0.38520   0.43964   0.71545   0.00000  Uiso   1.00
H996   H     0.36470   0.55999   0.78522   0.00000  Uiso   1.00
H997   H     0.61435   0.55985   0.78588   0.00000  Uiso   1.00
H998   H     0.38519   0.50024   0.92088   0.00000  Uiso   1.00
H999   H     0.42153   0.49260   0.56374   0.00000  Uiso   1.00
H1000  H     0.36139   0.49824   0.51891   0.00000  Uiso   1.00
H1001  H     0.56914   0.62769   0.69251   0.00000  Uiso   1.00
N1002  N     0.38093   0.50001   0.75002   0.00000  Uiso   1.00
N1003  N     0.61906   0.49998   0.75001   0.00000  Uiso   1.00
O1004  O     0.46179   0.56108   0.75001   0.00000  Uiso   1.00
O1005  O     0.53823   0.56107   0.75001   0.00000  Uiso   1.00
O1006  O     0.44280   0.50000   0.82681   0.00000  Uiso   1.00
O1007  O     0.51924   0.49999   0.82681   0.00000  Uiso   1.00
O1008  O     0.46177   0.43893   0.75000   0.00000  Uiso   1.00
O1009  O     0.53821   0.43892   0.75000   0.00000  Uiso   1.00
O1010  O     0.48076   0.50001   0.67319   0.00000  Uiso   1.00
O1011  O     0.55720   0.50000   0.67319   0.00000  Uiso   1.00
Zn1012 Zn    0.44896   0.50001   0.75000   0.00000  Uiso   1.00
Zn1013 Zn    0.55104   0.49999   0.75000   0.00000  Uiso   1.00
I1014  I     0.40531   0.61770   0.84845   0.00000  Uiso   1.00
C1015  C     0.62795   0.46855   0.89581   0.00000  Uiso   1.00
C1016  C     0.64596   0.43201   0.92232   0.00000  Uiso   1.00
C1017  C     0.35712   0.41209   0.88405   0.00000  Uiso   1.00
H1018  H     0.34861   0.39739   0.85011   0.00000  Uiso   1.00
H1019  H     0.38518   0.43586   0.86825   0.00000  Uiso   1.00
H1020  H     0.37078   0.38752   0.90533   0.00000  Uiso   1.00
H1021  H     0.65390   0.44341   0.95827   0.00000  Uiso   1.00
H1022  H     0.61825   0.40743   0.93530   0.00000  Uiso   1.00
H1023  H     0.63106   0.46025   0.85405   0.00000  Uiso   1.00
H1024  H     0.65123   0.49596   0.89166   0.00000  Uiso   1.00
I1025  I     0.64008   0.56213   0.96307   0.00000  Uiso   1.00
C1026  C     0.47698   0.43840   0.59483   0.00000  Uiso   1.00
C1027  C     0.50454   0.40170   0.60865   0.00000  Uiso   1.00
C1028  C     0.47147   0.36525   0.63271   0.00000  Uiso   1.00
H1029  H     0.49243   0.33852   0.64045   0.00000  Uiso   1.00
H1030  H     0.44478   0.37484   0.67095   0.00000  Uiso   1.00
H1031  H     0.45283   0.35462   0.60464   0.00000  Uiso   1.00
H1032  H     0.53216   0.39071   0.57178   0.00000  Uiso   1.00
H1033  H     0.52257   0.41182   0.63741   0.00000  Uiso   1.00
H1034  H     0.45843   0.42536   0.56796   0.00000  Uiso   1.00
H1035  H     0.44862   0.44947   0.63065   0.00000  Uiso   1.00
I1036  I     0.54999   0.41067   0.85926   0.00000  Uiso   1.00
C1037  C     0.83294   0.57994   0.75133   0.00000  Uiso   1.00
C1038  C     0.81364   0.48112   0.99074   0.00000  Uiso   1.00
C1039  C     0.82634   0.47764   0.93509   0.00000  Uiso   1.00
C1040  C     0.85060   0.48206   0.51342   0.00000  Uiso   1.00
C1041  C     0.89655   0.49318   0.98035   0.00000  Uiso   1.00
C1042  C     0.91015   0.47912   0.92682   0.00000  Uiso   1.00
C1043  C     0.87353   0.46556   0.90751   0.00000  Uiso   1.00
C1044  C     0.84363   0.47389   0.56721   0.00000  Uiso   1.00
C1045  C     0.91408   0.51555   0.55943   0.00000  Uiso   1.00
C1046  C     0.79253   0.48768   0.90928   0.00000  Uiso   1.00
C1047  C     0.87258   0.64480   0.71881   0.00000  Uiso   1.00
C1048  C     0.80755   0.49638   0.85159   0.00000  Uiso   1.00
C1049  C     0.87332   0.35445   0.71841   0.00000  Uiso   1.00
C1050  C     0.83381   0.37605   0.75060   0.00000  Uiso   1.00
C1051  C     0.79483   0.35563   0.78513   0.00000  Uiso   1.00
C1052  C     0.79458   0.64603   0.78738   0.00000  Uiso   1.00
C1053  C     0.83293   0.62414   0.75255   0.00000  Uiso   1.00
C1054  C     0.98177   0.46662   0.73050   0.00000  Uiso   1.00
C1055  C     0.69619   0.46656   0.73072   0.00000  Uiso   1.00
C1056  C     0.68478   0.53326   0.76964   0.00000  Uiso   1.00
C1057  C     0.97028   0.53321   0.76983   0.00000  Uiso   1.00
C1058  C     0.83359   0.42011   0.74959   0.00000  Uiso   1.00
C1059  C     0.85913   0.49833   0.64852   0.00000  Uiso   1.00
C1060  C     0.92627   0.51460   0.50388   0.00000  Uiso   1.00
C1061  C     0.87387   0.49416   0.59101   0.00000  Uiso   1.00
C1062  C     0.74492   0.49353   0.93997   0.00000  Uiso   1.00
C1063  C     0.73143   0.49285   0.99551   0.00000  Uiso   1.00
C1064  C     0.76573   0.48841   0.52090   0.00000  Uiso   1.00
H1065  H     0.93481   0.53431   0.57798   0.00000  Uiso   1.00
H1066  H     0.90374   0.37079   0.69209   0.00000  Uiso   1.00
H1067  H     0.76558   0.37315   0.81147   0.00000  Uiso   1.00
H1068  H     0.96842   0.43986   0.71479   0.00000  Uiso   1.00
H1069  H     0.71853   0.43964   0.71545   0.00000  Uiso   1.00
H1070  H     0.69803   0.55999   0.78522   0.00000  Uiso   1.00
H1071  H     0.94768   0.55985   0.78588   0.00000  Uiso   1.00
H1072  H     0.71852   0.50024   0.92088   0.00000  Uiso   1.00
H1073  H     0.75486   0.49260   0.56374   0.00000  Uiso   1.00
H1074  H     0.69472   0.49824   0.51891   0.00000  Uiso   1.00
H1075  H     0.90247   0.62769   0.69251   0.00000  Uiso   1.00
N1076  N     0.71426   0.50001   0.75002   0.00000  Uiso   1.00
N1077  N     0.95239   0.49998   0.75001   0.00000  Uiso   1.00
O1078  O     0.79512   0.56108   0.75001   0.00000  Uiso   1.00
O1079  O     0.87157   0.56107   0.75001   0.00000  Uiso   1.00
O1080  O     0.77613   0.50000   0.82681   0.00000  Uiso   1.00
O1081  O     0.85258   0.49999   0.82681   0.00000  Uiso   1.00
O1082  O     0.79510   0.43893   0.75000   0.00000  Uiso   1.00
O1083  O     0.87154   0.43892   0.75000   0.00000  Uiso   1.00
O1084  O     0.81409   0.50001   0.67319   0.00000  Uiso   1.00
O1085  O     0.89053   0.50000   0.67319   0.00000  Uiso   1.00
Zn1086 Zn    0.78229   0.50001   0.75000   0.00000  Uiso   1.00
Zn1087 Zn    0.88438   0.49999   0.75000   0.00000  Uiso   1.00
I1088  I     0.73864   0.61770   0.84845   0.00000  Uiso   1.00
C1089  C     0.96128   0.46855   0.89581   0.00000  Uiso   1.00
C1090  C     0.97930   0.43201   0.92232   0.00000  Uiso   1.00
C1091  C     0.69045   0.41209   0.88405   0.00000  Uiso   1.00
H1092  H     0.68194   0.39739   0.85011   0.00000  Uiso   1.00
H1093  H     0.71851   0.43586   0.86825   0.00000  Uiso   1.00
H1094  H     0.70412   0.38752   0.90533   0.00000  Uiso   1.00
H1095  H     0.98723   0.44341   0.95827   0.00000  Uiso   1.00
H1096  H     0.95158   0.40743   0.93530   0.00000  Uiso   1.00
H1097  H     0.96439   0.46025   0.85405   0.00000  Uiso   1.00
H1098  H     0.98456   0.49596   0.89166   0.00000  Uiso   1.00
I1099  I     0.97341   0.56213   0.96307   0.00000  Uiso   1.00
C1100  C     0.81031   0.43840   0.59483   0.00000  Uiso   1.00
C1101  C     0.83787   0.40170   0.60865   0.00000  Uiso   1.00
C1102  C     0.80480   0.36525   0.63271   0.00000  Uiso   1.00
H1103  H     0.82576   0.33852   0.64045   0.00000  Uiso   1.00
H1104  H     0.77812   0.37484   0.67095   0.00000  Uiso   1.00
H1105  H     0.78616   0.35462   0.60464   0.00000  Uiso   1.00
H1106  H     0.86549   0.39071   0.57178   0.00000  Uiso   1.00
H1107  H     0.85590   0.41182   0.63741   0.00000  Uiso   1.00
H1108  H     0.79176   0.42536   0.56796   0.00000  Uiso   1.00
H1109  H     0.78196   0.44947   0.63065   0.00000  Uiso   1.00
I1110  I     0.88333   0.41067   0.85926   0.00000  Uiso   1.00
C1111  C     0.16628   0.91327   0.75133   0.00000  Uiso   1.00
C1112  C     0.14697   0.81445   0.99074   0.00000  Uiso   1.00
C1113  C     0.15968   0.81097   0.93509   0.00000  Uiso   1.00
C1114  C     0.18393   0.81539   0.51342   0.00000  Uiso   1.00
C1115  C     0.22988   0.82652   0.98035   0.00000  Uiso   1.00
C1116  C     0.24348   0.81245   0.92682   0.00000  Uiso   1.00
C1117  C     0.20686   0.79889   0.90751   0.00000  Uiso   1.00
C1118  C     0.17696   0.80723   0.56721   0.00000  Uiso   1.00
C1119  C     0.24742   0.84889   0.55943   0.00000  Uiso   1.00
C1120  C     0.12587   0.82101   0.90928   0.00000  Uiso   1.00
C1121  C     0.20591   0.97813   0.71881   0.00000  Uiso   1.00
C1122  C     0.14088   0.82972   0.85159   0.00000  Uiso   1.00
C1123  C     0.20666   0.68778   0.71841   0.00000  Uiso   1.00
C1124  C     0.16714   0.70938   0.75060   0.00000  Uiso   1.00
C1125  C     0.12816   0.68897   0.78513   0.00000  Uiso   1.00
C1126  C     0.12791   0.97937   0.78738   0.00000  Uiso   1.00
C1127  C     0.16627   0.95748   0.75255   0.00000  Uiso   1.00
C1128  C     0.31510   0.79995   0.73050   0.00000  Uiso   1.00
C1129  C     0.02953   0.79989   0.73072   0.00000  Uiso   1.00
C1130  C     0.01811   0.86660   0.76964   0.00000  Uiso   1.00
C1131  C     0.30361   0.86654   0.76983   0.00000  Uiso   1.00
C1132  C     0.16692   0.75344   0.74959   0.00000  Uiso   1.00
C1133  C     0.19247   0.83166   0.64852   0.00000  Uiso   1.00
C1134  C     0.25961   0.84793   0.50388   0.00000  Uiso   1.00
C1135  C     0.20720   0.82749   0.59101   0.00000  Uiso   1.00
C1136  C     0.07826   0.82686   0.93997   0.00000  Uiso   1.00
C1137  C     0.06476   0.82618   0.99551   0.00000  Uiso   1.00
C1138  C     0.09906   0.82174   0.52090   0.00000  Uiso   1.00
H1139  H     0.26814   0.86765   0.57798   0.00000  Uiso   1.00
H1140  H     0.23707   0.70412   0.69209   0.00000  Uiso   1.00
H1141  H     0.09891   0.70648   0.81147   0.00000  Uiso   1.00
H1142  H     0.30175   0.77319   0.71479   0.00000  Uiso   1.00
H1143  H     0.05186   0.77297   0.71545   0.00000  Uiso   1.00
H1144  H     0.03136   0.89332   0.78522   0.00000  Uiso   1.00
H1145  H     0.28102   0.89318   0.78588   0.00000  Uiso   1.00
H1146  H     0.05186   0.83357   0.92088   0.00000  Uiso   1.00
H1147  H     0.08819   0.82593   0.56374   0.00000  Uiso   1.00
H1148  H     0.02806   0.83157   0.51891   0.00000  Uiso   1.00
H1149  H     0.23580   0.96102   0.69251   0.00000  Uiso   1.00
N1150  N     0.04760   0.83334   0.75002   0.00000  Uiso   1.00
N1151  N     0.28573   0.83331   0.75001   0.00000  Uiso   1.00
O1152  O     0.12846   0.89442   0.75001   0.00000  Uiso   1.00
O1153  O     0.20490   0.89441   0.75001   0.00000  Uiso   1.00
O1154  O     0.10947   0.83333   0.82681   0.00000  Uiso   1.00
O1155  O     0.18591   0.83332   0.82681   0.00000  Uiso   1.00
O1156  O     0.12843   0.77226   0.75000   0.00000  Uiso   1.00
O1157  O     0.20488   0.77225   0.75000   0.00000  Uiso   1.00
O1158  O     0.14742   0.83335   0.67319   0.00000  Uiso   1.00
O1159  O     0.22387   0.83334   0.67319   0.00000  Uiso   1.00
Zn1160 Zn    0.11562   0.83334   0.75000   0.00000  Uiso   1.00
Zn1161 Zn    0.21771   0.83333   0.75000   0.00000  Uiso   1.00
I1162  I     0.07198   0.95103   0.84845   0.00000  Uiso   1.00
C1163  C     0.29462   0.80188   0.89581   0.00000  Uiso   1.00
C1164  C     0.31263   0.76535   0.92232   0.00000  Uiso   1.00
C1165  C     0.02378   0.74542   0.88405   0.00000  Uiso   1.00
H1166  H     0.01527   0.73073   0.85011   0.00000  Uiso   1.00
H1167  H     0.05184   0.76919   0.86825   0.00000  Uiso   1.00
H1168  H     0.03745   0.72086   0.90533   0.00000  Uiso   1.00
H1169  H     0.32056   0.77674   0.95827   0.00000  Uiso   1.00
H1170  H     0.28491   0.74076   0.93530   0.00000  Uiso   1.00
H1171  H     0.29772   0.79358   0.85405   0.00000  Uiso   1.00
H1172  H     0.31790   0.82929   0.89166   0.00000  Uiso   1.00
I1173  I     0.30675   0.89546   0.96307   0.00000  Uiso   1.00
C1174  C     0.14364   0.77173   0.59483   0.00000  Uiso   1.00
C1175  C     0.17120   0.73503   0.60865   0.00000  Uiso   1.00
C1176  C     0.13814   0.69858   0.63271   0.00000  Uiso   1.00
H1177  H     0.15910   0.67186   0.64045   0.00000  Uiso   1.00
H1178  H     0.11145   0.70817   0.67095   0.00000  Uiso   1.00
H1179  H     0.11950   0.68795   0.60464   0.00000  Uiso   1.00
H1180  H     0.19883   0.72404   0.57178   0.00000  Uiso   1.00
H1181  H     0.18923   0.74515   0.63741   0.00000  Uiso   1.00
H1182  H     0.12510   0.75869   0.56796   0.00000  Uiso   1.00
H1183  H     0.11529   0.78280   0.63065   0.00000  Uiso   1.00
I1184  I     0.21666   0.74400   0.85926   0.00000  Uiso   1.00
C1185  C     0.49961   0.91327   0.75133   0.00000  Uiso   1.00
C1186  C     0.48030   0.81445   0.99074   0.00000  Uiso   1.00
C1187  C     0.49301   0.81097   0.93509   0.00000  Uiso   1.00
C1188  C     0.51726   0.81539   0.51342   0.00000  Uiso   1.00
C1189  C     0.56321   0.82652   0.98035   0.00000  Uiso   1.00
C1190  C     0.57681   0.81245   0.92682   0.00000  Uiso   1.00
C1191  C     0.54019   0.79889   0.90751   0.00000  Uiso   1.00
C1192  C     0.51029   0.80723   0.56721   0.00000  Uiso   1.00
C1193  C     0.58075   0.84889   0.55943   0.00000  Uiso   1.00
C1194  C     0.45920   0.82101   0.90928   0.00000  Uiso   1.00
C1195  C     0.53925   0.97813   0.71881   0.00000  Uiso   1.00
C1196  C     0.47422   0.82972   0.85159   0.00000  Uiso   1.00
C1197  C     0.53999   0.68778   0.71841   0.00000  Uiso   1.00
C1198  C     0.50047   0.70938   0.75060   0.00000  Uiso   1.00
C1199  C     0.46149   0.68897   0.78513   0.00000  Uiso   1.00
C1200  C     0.46125   0.97937   0.78738   0.00000  Uiso   1.00
C1201  C     0.49960   0.95748   0.75255   0.00000  Uiso   1.00
C1202  C     0.64844   0.79995   0.73050   0.00000  Uiso   1.00
C1203  C     0.36286   0.79989   0.73072   0.00000  Uiso   1.00
C1204  C     0.35145   0.86660   0.76964   0.00000  Uiso   1.00
C1205  C     0.63695   0.86654   0.76983   0.00000  Uiso   1.00
C1206  C     0.50026   0.75344   0.74959   0.00000  Uiso   1.00
C1207  C     0.52580   0.83166   0.64852   0.00000  Uiso   1.00
C1208  C     0.59294   0.84793   0.50388   0.00000  Uiso   1.00
C1209  C     0.54054   0.82749   0.59101   0.00000  Uiso   1.00
C1210  C     0.41159   0.82686   0.93997   0.00000  Uiso   1.00
C1211  C     0.39809   0.82618   0.99551   0.00000  Uiso   1.00
C1212  C     0.43239   0.82174   0.52090   0.00000  Uiso   1.00
H1213  H     0.60148   0.86765   0.57798   0.00000  Uiso   1.00
H1214  H     0.57041   0.70412   0.69209   0.00000  Uiso   1.00
H1215  H     0.43224   0.70648   0.81147   0.00000  Uiso   1.00
H1216  H     0.63508   0.77319   0.71479   0.00000  Uiso   1.00
H1217  H     0.38520   0.77297   0.71545   0.00000  Uiso   1.00
H1218  H     0.36470   0.89332   0.78522   0.00000  Uiso   1.00
H1219  H     0.61435   0.89318   0.78588   0.00000  Uiso   1.00
H1220  H     0.38519   0.83357   0.92088   0.00000  Uiso   1.00
H1221  H     0.42153   0.82593   0.56374   0.00000  Uiso   1.00
H1222  H     0.36139   0.83157   0.51891   0.00000  Uiso   1.00
H1223  H     0.56914   0.96102   0.69251   0.00000  Uiso   1.00
N1224  N     0.38093   0.83334   0.75002   0.00000  Uiso   1.00
N1225  N     0.61906   0.83331   0.75001   0.00000  Uiso   1.00
O1226  O     0.46179   0.89442   0.75001   0.00000  Uiso   1.00
O1227  O     0.53823   0.89441   0.75001   0.00000  Uiso   1.00
O1228  O     0.44280   0.83333   0.82681   0.00000  Uiso   1.00
O1229  O     0.51924   0.83332   0.82681   0.00000  Uiso   1.00
O1230  O     0.46177   0.77226   0.75000   0.00000  Uiso   1.00
O1231  O     0.53821   0.77225   0.75000   0.00000  Uiso   1.00
O1232  O     0.48076   0.83335   0.67319   0.00000  Uiso   1.00
O1233  O     0.55720   0.83334   0.67319   0.00000  Uiso   1.00
Zn1234 Zn    0.44896   0.83334   0.75000   0.00000  Uiso   1.00
Zn1235 Zn    0.55104   0.83333   0.75000   0.00000  Uiso   1.00
I1236  I     0.40531   0.95103   0.84845   0.00000  Uiso   1.00
C1237  C     0.62795   0.80188   0.89581   0.00000  Uiso   1.00
C1238  C     0.64596   0.76535   0.92232   0.00000  Uiso   1.00
C1239  C     0.35712   0.74542   0.88405   0.00000  Uiso   1.00
H1240  H     0.34861   0.73073   0.85011   0.00000  Uiso   1.00
H1241  H     0.38518   0.76919   0.86825   0.00000  Uiso   1.00
H1242  H     0.37078   0.72086   0.90533   0.00000  Uiso   1.00
H1243  H     0.65390   0.77674   0.95827   0.00000  Uiso   1.00
H1244  H     0.61825   0.74076   0.93530   0.00000  Uiso   1.00
H1245  H     0.63106   0.79358   0.85405   0.00000  Uiso   1.00
H1246  H     0.65123   0.82929   0.89166   0.00000  Uiso   1.00
I1247  I     0.64008   0.89546   0.96307   0.00000  Uiso   1.00
C1248  C     0.47698   0.77173   0.59483   0.00000  Uiso   1.00
C1249  C     0.50454   0.73503   0.60865   0.00000  Uiso   1.00
C1250  C     0.47147   0.69858   0.63271   0.00000  Uiso   1.00
H1251  H     0.49243   0.67186   0.64045   0.00000  Uiso   1.00
H1252  H     0.44478   0.70817   0.67095   0.00000  Uiso   1.00
H1253  H     0.45283   0.68795   0.60464   0.00000  Uiso   1.00
H1254  H     0.53216   0.72404   0.57178   0.00000  Uiso   1.00
H1255  H     0.52257   0.74515   0.63741   0.00000  Uiso   1.00
H1256  H     0.45843   0.75869   0.56796   0.00000  Uiso   1.00
H1257  H     0.44862   0.78280   0.63065   0.00000  Uiso   1.00
I1258  I     0.54999   0.74400   0.85926   0.00000  Uiso   1.00
C1259  C     0.83294   0.91327   0.75133   0.00000  Uiso   1.00
C1260  C     0.81364   0.81445   0.99074   0.00000  Uiso   1.00
C1261  C     0.82634   0.81097   0.93509   0.00000  Uiso   1.00
C1262  C     0.85060   0.81539   0.51342   0.00000  Uiso   1.00
C1263  C     0.89655   0.82652   0.98035   0.00000  Uiso   1.00
C1264  C     0.91015   0.81245   0.92682   0.00000  Uiso   1.00
C1265  C     0.87353   0.79889   0.90751   0.00000  Uiso   1.00
C1266  C     0.84363   0.80723   0.56721   0.00000  Uiso   1.00
C1267  C     0.91408   0.84889   0.55943   0.00000  Uiso   1.00
C1268  C     0.79253   0.82101   0.90928   0.00000  Uiso   1.00
C1269  C     0.87258   0.97813   0.71881   0.00000  Uiso   1.00
C1270  C     0.80755   0.82972   0.85159   0.00000  Uiso   1.00
C1271  C     0.87332   0.68778   0.71841   0.00000  Uiso   1.00
C1272  C     0.83381   0.70938   0.75060   0.00000  Uiso   1.00
C1273  C     0.79483   0.68897   0.78513   0.00000  Uiso   1.00
C1274  C     0.79458   0.97937   0.78738   0.00000  Uiso   1.00
C1275  C     0.83293   0.95748   0.75255   0.00000  Uiso   1.00
C1276  C     0.98177   0.79995   0.73050   0.00000  Uiso   1.00
C1277  C     0.69619   0.79989   0.73072   0.00000  Uiso   1.00
C1278  C     0.68478   0.86660   0.76964   0.00000  Uiso   1.00
C1279  C     0.97028   0.86654   0.76983   0.00000  Uiso   1.00
C1280  C     0.83359   0.75344   0.74959   0.00000  Uiso   1.00
C1281  C     0.85913   0.83166   0.64852   0.00000  Uiso   1.00
C1282  C     0.92627   0.84793   0.50388   0.00000  Uiso   1.00
C1283  C     0.87387   0.82749   0.59101   0.00000  Uiso   1.00
C1284  C     0.74492   0.82686   0.93997   0.00000  Uiso   1.00
C1285  C     0.73143   0.82618   0.99551   0.00000  Uiso   1.00
C1286  C     0.76573   0.82174   0.52090   0.00000  Uiso   1.00
H1287  H     0.93481   0.86765   0.57798   0.00000  Uiso   1.00
H1288  H     0.90374   0.70412   0.69209   0.00000  Uiso   1.00
H1289  H     0.76558   0.70648   0.81147   0.00000  Uiso   1.00
H1290  H     0.96842   0.77319   0.71479   0.00000  Uiso   1.00
H1291  H     0.71853   0.77297   0.71545   0.00000  Uiso   1.00
H1292  H     0.69803   0.89332   0.78522   0.00000  Uiso   1.00
H1293  H     0.94768   0.89318   0.78588   0.00000  Uiso   1.00
H1294  H     0.71852   0.83357   0.92088   0.00000  Uiso   1.00
H1295  H     0.75486   0.82593   0.56374   0.00000  Uiso   1.00
H1296  H     0.69472   0.83157   0.51891   0.00000  Uiso   1.00
H1297  H     0.90247   0.96102   0.69251   0.00000  Uiso   1.00
N1298  N     0.71426   0.83334   0.75002   0.00000  Uiso   1.00
N1299  N     0.95239   0.83331   0.75001   0.00000  Uiso   1.00
O1300  O     0.79512   0.89442   0.75001   0.00000  Uiso   1.00
O1301  O     0.87157   0.89441   0.75001   0.00000  Uiso   1.00
O1302  O     0.77613   0.83333   0.82681   0.00000  Uiso   1.00
O1303  O     0.85258   0.83332   0.82681   0.00000  Uiso   1.00
O1304  O     0.79510   0.77226   0.75000   0.00000  Uiso   1.00
O1305  O     0.87154   0.77225   0.75000   0.00000  Uiso   1.00
O1306  O     0.81409   0.83335   0.67319   0.00000  Uiso   1.00
O1307  O     0.89053   0.83334   0.67319   0.00000  Uiso   1.00
Zn1308 Zn    0.78229   0.83334   0.75000   0.00000  Uiso   1.00
Zn1309 Zn    0.88438   0.83333   0.75000   0.00000  Uiso   1.00
I1310  I     0.73864   0.95103   0.84845   0.00000  Uiso   1.00
C1311  C     0.96128   0.80188   0.89581   0.00000  Uiso   1.00
C1312  C     0.97930   0.76535   0.92232   0.00000  Uiso   1.00
C1313  C     0.69045   0.74542   0.88405   0.00000  Uiso   1.00
H1314  H     0.68194   0.73073   0.85011   0.00000  Uiso   1.00
H1315  H     0.71851   0.76919   0.86825   0.00000  Uiso   1.00
H1316  H     0.70412   0.72086   0.90533   0.00000  Uiso   1.00
H1317  H     0.98723   0.77674   0.95827   0.00000  Uiso   1.00
H1318  H     0.95158   0.74076   0.93530   0.00000  Uiso   1.00
H1319  H     0.96439   0.79358   0.85405   0.00000  Uiso   1.00
H1320  H     0.98456   0.82929   0.89166   0.00000  Uiso   1.00
I1321  I     0.97341   0.89546   0.96307   0.00000  Uiso   1.00
C1322  C     0.81031   0.77173   0.59483   0.00000  Uiso   1.00
C1323  C     0.83787   0.73503   0.60865   0.00000  Uiso   1.00
C1324  C     0.80480   0.69858   0.63271   0.00000  Uiso   1.00
H1325  H     0.82576   0.67186   0.64045   0.00000  Uiso   1.00
H1326  H     0.77812   0.70817   0.67095   0.00000  Uiso   1.00
H1327  H     0.78616   0.68795   0.60464   0.00000  Uiso   1.00
H1328  H     0.86549   0.72404   0.57178   0.00000  Uiso   1.00
H1329  H     0.85590   0.74515   0.63741   0.00000  Uiso   1.00
H1330  H     0.79176   0.75869   0.56796   0.00000  Uiso   1.00
H1331  H     0.78196   0.78280   0.63065   0.00000  Uiso   1.00
I1332  I     0.88333   0.74400   0.85926   0.00000  Uiso   1.00
loop_
_geom_bond_atom_site_label_1
_geom_bond_atom_site_label_2
_geom_bond_distance
_geom_bond_site_symmetry_2
_ccdc_geom_bond_type
C1     O42     1.287   .     A
C1     C17     1.412   .     S
C1     O43     1.283   .     A
C2     C3      1.401   .     A
C2     C670    1.407   .     S
C2     C694    1.411   .     S
C3     C10     1.415   .     A
C3     C7      1.411   .     A
C4     C8      1.392   .     A
C4     C668    1.407   1_554 S
C4     C671    1.413   1_554 S
C5     C6      1.416   .     A
C5     C670    1.413   .     S
C5     C690    1.410   .     S
C6     C7      1.409   .     A
C6     C53     1.516   .     S
C7     I74     2.134   .     S
C8     C25     1.409   .     A
C8     C64     1.531   .     S
C9     C24     1.395   .     A
C9     H29     1.084   .     S
C9     C25     1.400   .     A
C10    C26     1.401   .     A
C10    C12     1.471   .     S
C11    H39     1.084   .     S
C11    C17     1.398   .     A
C11    C235    1.373   .     S
C12    O44     1.302   .     A
C12    O45     1.294   .     A
C13    C14     1.392   .     A
C13    H30     1.084   .     S
C13    C455    1.373   1_545 S
C14    C22     1.407   .     S
C14    C15     1.389   .     A
C15    H31     1.080   .     S
C15    C460    1.372   1_545 S
C16    I52     2.118   .     S
C16    C17     1.401   .     A
C16    C237    1.372   .     S
C18    H32     1.082   .     S
C18    N41     1.368   .     A
C18    C93     1.419   .     S
C19    N40     1.368   .     A
C19    H33     1.081   .     S
C19    C166    1.419   1_455 S
C20    H34     1.077   .     S
C20    N40     1.367   .     A
C20    C169    1.418   1_455 S
C21    H35     1.081   .     S
C21    N41     1.367   .     A
C21    C94     1.418   .     S
C22    O47     1.282   .     A
C22    O46     1.285   .     A
C23    O49     1.296   .     A
C23    C25     1.447   .     S
C23    O48     1.289   .     A
C24    C671    1.410   1_554 S
C24    I729    2.116   1_554 S
C26    C27     1.392   .     A
C26    H36     1.078   .     S
C27    C694    1.391   .     S
C27    H704    1.082   .     S
C28    H37     1.082   .     S
C28    C693    1.391   1_554 S
C28    C668    1.411   1_554 S
H38    C693    1.082   1_554 S
N40    Zn50    2.019   .     S
N41    Zn51    2.019   .     S
O42    Zn50    1.989   .     S
O43    Zn51    1.985   .     S
O44    Zn50    1.977   .     S
O45    Zn51    1.947   .     S
O46    Zn50    1.985   .     S
O47    Zn51    1.989   .     S
O48    Zn50    1.947   .     S
O49    Zn51    1.977   .     S
C53    H62     1.102   .     S
C53    H61     1.110   .     S
C53    C54     1.536   .     S
C54    H60     1.112   .     S
C54    H59     1.111   .     S
C54    C129    1.523   .     S
C55    H56     1.111   .     S
C55    H58     1.110   .     S
C55    H57     1.108   .     S
C55    C202    1.523   1_455 S
I63    C690    2.116   .     S
C64    H73     1.106   .     S
C64    H72     1.110   .     S
C64    C65     1.533   .     S
C65    C66     1.528   .     S
C65    H70     1.112   .     S
C65    H71     1.108   .     S
C66    H68     1.111   .     S
C66    H69     1.111   .     S
C66    H67     1.109   .     S
C75    O116    1.287   .     A
C75    C91     1.412   .     S
C75    O117    1.283   .     A
C76    C77     1.401   .     A
C76    C744    1.407   .     S
C76    C768    1.411   .     S
C77    C84     1.415   .     A
C77    C81     1.411   .     A
C78    C82     1.392   .     A
C78    C742    1.407   1_554 S
C78    C745    1.413   1_554 S
C79    C80     1.416   .     A
C79    C744    1.413   .     S
C79    C764    1.410   .     S
C80    C81     1.409   .     A
C80    C127    1.516   .     S
C81    I148    2.134   .     S
C82    C99     1.409   .     A
C82    C138    1.531   .     S
C83    C98     1.395   .     A
C83    H103    1.084   .     S
C83    C99     1.400   .     A
C84    C100    1.401   .     A
C84    C86     1.471   .     S
C85    H113    1.084   .     S
C85    C91     1.398   .     A
C85    C309    1.373   .     S
C86    O118    1.302   .     A
C86    O119    1.294   .     A
C87    C88     1.392   .     A
C87    H104    1.084   .     S
C87    C529    1.373   1_545 S
C88    C96     1.407   .     S
C88    C89     1.389   .     A
C89    H105    1.080   .     S
C89    C534    1.372   1_545 S
C90    I126    2.118   .     S
C90    C91     1.401   .     A
C90    C311    1.372   .     S
C92    H106    1.082   .     S
C92    N115    1.368   .     A
C92    C167    1.419   .     S
C93    N114    1.368   .     A
C93    H107    1.081   .     S
C94    H108    1.077   .     S
C94    N114    1.367   .     A
C95    H109    1.081   .     S
C95    N115    1.367   .     A
C95    C168    1.418   .     S
C96    O121    1.282   .     A
C96    O120    1.285   .     A
C97    O123    1.296   .     A
C97    C99     1.447   .     S
C97    O122    1.289   .     A
C98    C745    1.410   1_554 S
C98    I803    2.116   1_554 S
C100   C101    1.392   .     A
C100   H110    1.078   .     S
C101   C768    1.391   .     S
C101   H778    1.082   .     S
C102   H111    1.082   .     S
C102   C767    1.391   1_554 S
C102   C742    1.411   1_554 S
H112   C767    1.082   1_554 S
N114   Zn124   2.019   .     S
N115   Zn125   2.019   .     S
O116   Zn124   1.989   .     S
O117   Zn125   1.985   .     S
O118   Zn124   1.977   .     S
O119   Zn125   1.947   .     S
O120   Zn124   1.985   .     S
O121   Zn125   1.989   .     S
O122   Zn124   1.947   .     S
O123   Zn125   1.977   .     S
C127   H136    1.102   .     S
C127   H135    1.110   .     S
C127   C128    1.536   .     S
C128   H134    1.112   .     S
C128   H133    1.111   .     S
C128   C203    1.523   .     S
C129   H130    1.111   .     S
C129   H132    1.110   .     S
C129   H131    1.108   .     S
I137   C764    2.116   .     S
C138   H147    1.106   .     S
C138   H146    1.110   .     S
C138   C139    1.533   .     S
C139   C140    1.528   .     S
C139   H144    1.112   .     S
C139   H145    1.108   .     S
C140   H142    1.111   .     S
C140   H143    1.111   .     S
C140   H141    1.109   .     S
C149   O190    1.287   .     A
C149   C165    1.412   .     S
C149   O191    1.283   .     A
C150   C151    1.401   .     A
C150   C818    1.407   .     S
C150   C842    1.411   .     S
C151   C158    1.415   .     A
C151   C155    1.411   .     A
C152   C156    1.392   .     A
C152   C816    1.407   1_554 S
C152   C819    1.413   1_554 S
C153   C154    1.416   .     A
C153   C818    1.413   .     S
C153   C838    1.410   .     S
C154   C155    1.409   .     A
C154   C201    1.516   .     S
C155   I222    2.134   .     S
C156   C173    1.409   .     A
C156   C212    1.531   .     S
C157   C172    1.395   .     A
C157   H177    1.084   .     S
C157   C173    1.400   .     A
C158   C174    1.401   .     A
C158   C160    1.471   .     S
C159   H187    1.084   .     S
C159   C165    1.398   .     A
C159   C383    1.373   .     S
C160   O192    1.302   .     A
C160   O193    1.294   .     A
C161   C162    1.392   .     A
C161   H178    1.084   .     S
C161   C603    1.373   1_545 S
C162   C170    1.407   .     S
C162   C163    1.389   .     A
C163   H179    1.080   .     S
C163   C608    1.372   1_545 S
C164   I200    2.118   .     S
C164   C165    1.401   .     A
C164   C385    1.372   .     S
C166   H180    1.082   .     S
C166   N189    1.368   .     A
C166   C19     1.419   1_655 S
C167   N188    1.368   .     A
C167   H181    1.081   .     S
C168   H182    1.077   .     S
C168   N188    1.367   .     A
C169   H183    1.081   .     S
C169   N189    1.367   .     A
C169   C20     1.418   1_655 S
C170   O195    1.282   .     A
C170   O194    1.285   .     A
C171   O197    1.296   .     A
C171   C173    1.447   .     S
C171   O196    1.289   .     A
C172   C819    1.410   1_554 S
C172   I877    2.116   1_554 S
C174   C175    1.392   .     A
C174   H184    1.078   .     S
C175   C842    1.391   .     S
C175   H852    1.082   .     S
C176   H185    1.082   .     S
C176   C841    1.391   1_554 S
C176   C816    1.411   1_554 S
H186   C841    1.082   1_554 S
N188   Zn198   2.019   .     S
N189   Zn199   2.019   .     S
O190   Zn198   1.989   .     S
O191   Zn199   1.985   .     S
O192   Zn198   1.977   .     S
O193   Zn199   1.947   .     S
O194   Zn198   1.985   .     S
O195   Zn199   1.989   .     S
O196   Zn198   1.947   .     S
O197   Zn199   1.977   .     S
C201   H210    1.102   .     S
C201   H209    1.110   .     S
C201   C202    1.536   .     S
C202   H208    1.112   .     S
C202   H207    1.111   .     S
C202   C55     1.523   1_655 S
C203   H204    1.111   .     S
C203   H206    1.110   .     S
C203   H205    1.108   .     S
I211   C838    2.116   .     S
C212   H221    1.106   .     S
C212   H220    1.110   .     S
C212   C213    1.533   .     S
C213   C214    1.528   .     S
C213   H218    1.112   .     S
C213   H219    1.108   .     S
C214   H216    1.111   .     S
C214   H217    1.111   .     S
C214   H215    1.109   .     S
C223   O264    1.287   .     A
C223   C239    1.412   .     S
C223   O265    1.283   .     A
C224   C225    1.401   .     A
C224   C892    1.407   .     S
C224   C916    1.411   .     S
C225   C232    1.415   .     A
C225   C229    1.411   .     A
C226   C230    1.392   .     A
C226   C890    1.407   1_554 S
C226   C893    1.413   1_554 S
C227   C228    1.416   .     A
C227   C892    1.413   .     S
C227   C912    1.410   .     S
C228   C229    1.409   .     A
C228   C275    1.516   .     S
C229   I296    2.134   .     S
C230   C247    1.409   .     A
C230   C286    1.531   .     S
C231   C246    1.395   .     A
C231   H251    1.084   .     S
C231   C247    1.400   .     A
C232   C248    1.401   .     A
C232   C234    1.471   .     S
C233   H261    1.084   .     S
C233   C239    1.398   .     A
C233   C457    1.373   .     S
C234   O266    1.302   .     A
C234   O267    1.294   .     A
C235   C236    1.392   .     A
C235   H252    1.084   .     S
C236   C244    1.407   .     S
C236   C237    1.389   .     A
C237   H253    1.080   .     S
C238   I274    2.118   .     S
C238   C239    1.401   .     A
C238   C459    1.372   .     S
C240   H254    1.082   .     S
C240   N263    1.368   .     A
C240   C315    1.419   .     S
C241   N262    1.368   .     A
C241   H255    1.081   .     S
C241   C388    1.419   1_455 S
C242   H256    1.077   .     S
C242   N262    1.367   .     A
C242   C391    1.418   1_455 S
C243   H257    1.081   .     S
C243   N263    1.367   .     A
C243   C316    1.418   .     S
C244   O269    1.282   .     A
C244   O268    1.285   .     A
C245   O271    1.296   .     A
C245   C247    1.447   .     S
C245   O270    1.289   .     A
C246   C893    1.410   1_554 S
C246   I951    2.116   1_554 S
C248   C249    1.392   .     A
C248   H258    1.078   .     S
C249   C916    1.391   .     S
C249   H926    1.082   .     S
C250   H259    1.082   .     S
C250   C915    1.391   1_554 S
C250   C890    1.411   1_554 S
H260   C915    1.082   1_554 S
N262   Zn272   2.019   .     S
N263   Zn273   2.019   .     S
O264   Zn272   1.989   .     S
O265   Zn273   1.985   .     S
O266   Zn272   1.977   .     S
O267   Zn273   1.947   .     S
O268   Zn272   1.985   .     S
O269   Zn273   1.989   .     S
O270   Zn272   1.947   .     S
O271   Zn273   1.977   .     S
C275   H284    1.102   .     S
C275   H283    1.110   .     S
C275   C276    1.536   .     S
C276   H282    1.112   .     S
C276   H281    1.111   .     S
C276   C351    1.523   .     S
C277   H278    1.111   .     S
C277   H280    1.110   .     S
C277   H279    1.108   .     S
C277   C424    1.523   1_455 S
I285   C912    2.116   .     S
C286   H295    1.106   .     S
C286   H294    1.110   .     S
C286   C287    1.533   .     S
C287   C288    1.528   .     S
C287   H292    1.112   .     S
C287   H293    1.108   .     S
C288   H290    1.111   .     S
C288   H291    1.111   .     S
C288   H289    1.109   .     S
C297   O338    1.287   .     A
C297   C313    1.412   .     S
C297   O339    1.283   .     A
C298   C299    1.401   .     A
C298   C966    1.407   .     S
C298   C990    1.411   .     S
C299   C306    1.415   .     A
C299   C303    1.411   .     A
C300   C304    1.392   .     A
C300   C964    1.407   1_554 S
C300   C967    1.413   1_554 S
C301   C302    1.416   .     A
C301   C966    1.413   .     S
C301   C986    1.410   .     S
C302   C303    1.409   .     A
C302   C349    1.516   .     S
C303   I370    2.134   .     S
C304   C321    1.409   .     A
C304   C360    1.531   .     S
C305   C320    1.395   .     A
C305   H325    1.084   .     S
C305   C321    1.400   .     A
C306   C322    1.401   .     A
C306   C308    1.471   .     S
C307   H335    1.084   .     S
C307   C313    1.398   .     A
C307   C531    1.373   .     S
C308   O340    1.302   .     A
C308   O341    1.294   .     A
C309   C310    1.392   .     A
C309   H326    1.084   .     S
C310   C318    1.407   .     S
C310   C311    1.389   .     A
C311   H327    1.080   .     S
C312   I348    2.118   .     S
C312   C313    1.401   .     A
C312   C533    1.372   .     S
C314   H328    1.082   .     S
C314   N337    1.368   .     A
C314   C389    1.419   .     S
C315   N336    1.368   .     A
C315   H329    1.081   .     S
C316   H330    1.077   .     S
C316   N336    1.367   .     A
C317   H331    1.081   .     S
C317   N337    1.367   .     A
C317   C390    1.418   .     S
C318   O343    1.282   .     A
C318   O342    1.285   .     A
C319   O345    1.296   .     A
C319   C321    1.447   .     S
C319   O344    1.289   .     A
C320   C967    1.410   1_554 S
C320   I1025   2.116   1_554 S
C322   C323    1.392   .     A
C322   H332    1.078   .     S
C323   C990    1.391   .     S
C323   H1000   1.082   .     S
C324   H333    1.082   .     S
C324   C989    1.391   1_554 S
C324   C964    1.411   1_554 S
H334   C989    1.082   1_554 S
N336   Zn346   2.019   .     S
N337   Zn347   2.019   .     S
O338   Zn346   1.989   .     S
O339   Zn347   1.985   .     S
O340   Zn346   1.977   .     S
O341   Zn347   1.947   .     S
O342   Zn346   1.985   .     S
O343   Zn347   1.989   .     S
O344   Zn346   1.947   .     S
O345   Zn347   1.977   .     S
C349   H358    1.102   .     S
C349   H357    1.110   .     S
C349   C350    1.536   .     S
C350   H356    1.112   .     S
C350   H355    1.111   .     S
C350   C425    1.523   .     S
C351   H352    1.111   .     S
C351   H354    1.110   .     S
C351   H353    1.108   .     S
I359   C986    2.116   .     S
C360   H369    1.106   .     S
C360   H368    1.110   .     S
C360   C361    1.533   .     S
C361   C362    1.528   .     S
C361   H366    1.112   .     S
C361   H367    1.108   .     S
C362   H364    1.111   .     S
C362   H365    1.111   .     S
C362   H363    1.109   .     S
C371   O412    1.287   .     A
C371   C387    1.412   .     S
C371   O413    1.283   .     A
C372   C373    1.401   .     A
C372   C1040   1.407   .     S
C372   C1064   1.411   .     S
C373   C380    1.415   .     A
C373   C377    1.411   .     A
C374   C378    1.392   .     A
C374   C1038   1.407   1_554 S
C374   C1041   1.413   1_554 S
C375   C376    1.416   .     A
C375   C1040   1.413   .     S
C375   C1060   1.410   .     S
C376   C377    1.409   .     A
C376   C423    1.516   .     S
C377   I444    2.134   .     S
C378   C395    1.409   .     A
C378   C434    1.531   .     S
C379   C394    1.395   .     A
C379   H399    1.084   .     S
C379   C395    1.400   .     A
C380   C396    1.401   .     A
C380   C382    1.471   .     S
C381   H409    1.084   .     S
C381   C387    1.398   .     A
C381   C605    1.373   .     S
C382   O414    1.302   .     A
C382   O415    1.294   .     A
C383   C384    1.392   .     A
C383   H400    1.084   .     S
C384   C392    1.407   .     S
C384   C385    1.389   .     A
C385   H401    1.080   .     S
C386   I422    2.118   .     S
C386   C387    1.401   .     A
C386   C607    1.372   .     S
C388   H402    1.082   .     S
C388   N411    1.368   .     A
C388   C241    1.419   1_655 S
C389   N410    1.368   .     A
C389   H403    1.081   .     S
C390   H404    1.077   .     S
C390   N410    1.367   .     A
C391   H405    1.081   .     S
C391   N411    1.367   .     A
C391   C242    1.418   1_655 S
C392   O417    1.282   .     A
C392   O416    1.285   .     A
C393   O419    1.296   .     A
C393   C395    1.447   .     S
C393   O418    1.289   .     A
C394   C1041   1.410   1_554 S
C394   I1099   2.116   1_554 S
C396   C397    1.392   .     A
C396   H406    1.078   .     S
C397   C1064   1.391   .     S
C397   H1074   1.082   .     S
C398   H407    1.082   .     S
C398   C1063   1.391   1_554 S
C398   C1038   1.411   1_554 S
H408   C1063   1.082   1_554 S
N410   Zn420   2.019   .     S
N411   Zn421   2.019   .     S
O412   Zn420   1.989   .     S
O413   Zn421   1.985   .     S
O414   Zn420   1.977   .     S
O415   Zn421   1.947   .     S
O416   Zn420   1.985   .     S
O417   Zn421   1.989   .     S
O418   Zn420   1.947   .     S
O419   Zn421   1.977   .     S
C423   H432    1.102   .     S
C423   H431    1.110   .     S
C423   C424    1.536   .     S
C424   H430    1.112   .     S
C424   H429    1.111   .     S
C424   C277    1.523   1_655 S
C425   H426    1.111   .     S
C425   H428    1.110   .     S
C425   H427    1.108   .     S
I433   C1060   2.116   .     S
C434   H443    1.106   .     S
C434   H442    1.110   .     S
C434   C435    1.533   .     S
C435   C436    1.528   .     S
C435   H440    1.112   .     S
C435   H441    1.108   .     S
C436   H438    1.111   .     S
C436   H439    1.111   .     S
C436   H437    1.109   .     S
C445   O486    1.287   .     A
C445   C461    1.412   .     S
C445   O487    1.283   .     A
C446   C447    1.401   .     A
C446   C1114   1.407   .     S
C446   C1138   1.411   .     S
C447   C454    1.415   .     A
C447   C451    1.411   .     A
C448   C452    1.392   .     A
C448   C1112   1.407   1_554 S
C448   C1115   1.413   1_554 S
C449   C450    1.416   .     A
C449   C1114   1.413   .     S
C449   C1134   1.410   .     S
C450   C451    1.409   .     A
C450   C497    1.516   .     S
C451   I518    2.134   .     S
C452   C469    1.409   .     A
C452   C508    1.531   .     S
C453   C468    1.395   .     A
C453   H473    1.084   .     S
C453   C469    1.400   .     A
C454   C470    1.401   .     A
C454   C456    1.471   .     S
C455   H483    1.084   .     S
C455   C461    1.398   .     A
C455   C13     1.373   1_565 S
C456   O488    1.302   .     A
C456   O489    1.294   .     A
C457   C458    1.392   .     A
C457   H474    1.084   .     S
C458   C466    1.407   .     S
C458   C459    1.389   .     A
C459   H475    1.080   .     S
C460   I496    2.118   .     S
C460   C461    1.401   .     A
C460   C15     1.372   1_565 S
C462   H476    1.082   .     S
C462   N485    1.368   .     A
C462   C537    1.419   .     S
C463   N484    1.368   .     A
C463   H477    1.081   .     S
C463   C610    1.419   1_455 S
C464   H478    1.077   .     S
C464   N484    1.367   .     A
C464   C613    1.418   1_455 S
C465   H479    1.081   .     S
C465   N485    1.367   .     A
C465   C538    1.418   .     S
C466   O491    1.282   .     A
C466   O490    1.285   .     A
C467   O493    1.296   .     A
C467   C469    1.447   .     S
C467   O492    1.289   .     A
C468   C1115   1.410   1_554 S
C468   I1173   2.116   1_554 S
C470   C471    1.392   .     A
C470   H480    1.078   .     S
C471   C1138   1.391   .     S
C471   H1148   1.082   .     S
C472   H481    1.082   .     S
C472   C1137   1.391   1_554 S
C472   C1112   1.411   1_554 S
H482   C1137   1.082   1_554 S
N484   Zn494   2.019   .     S
N485   Zn495   2.019   .     S
O486   Zn494   1.989   .     S
O487   Zn495   1.985   .     S
O488   Zn494   1.977   .     S
O489   Zn495   1.947   .     S
O490   Zn494   1.985   .     S
O491   Zn495   1.989   .     S
O492   Zn494   1.947   .     S
O493   Zn495   1.977   .     S
C497   H506    1.102   .     S
C497   H505    1.110   .     S
C497   C498    1.536   .     S
C498   H504    1.112   .     S
C498   H503    1.111   .     S
C498   C573    1.523   .     S
C499   H500    1.111   .     S
C499   H502    1.110   .     S
C499   H501    1.108   .     S
C499   C646    1.523   1_455 S
I507   C1134   2.116   .     S
C508   H517    1.106   .     S
C508   H516    1.110   .     S
C508   C509    1.533   .     S
C509   C510    1.528   .     S
C509   H514    1.112   .     S
C509   H515    1.108   .     S
C510   H512    1.111   .     S
C510   H513    1.111   .     S
C510   H511    1.109   .     S
C519   O560    1.287   .     A
C519   C535    1.412   .     S
C519   O561    1.283   .     A
C520   C521    1.401   .     A
C520   C1188   1.407   .     S
C520   C1212   1.411   .     S
C521   C528    1.415   .     A
C521   C525    1.411   .     A
C522   C526    1.392   .     A
C522   C1186   1.407   1_554 S
C522   C1189   1.413   1_554 S
C523   C524    1.416   .     A
C523   C1188   1.413   .     S
C523   C1208   1.410   .     S
C524   C525    1.409   .     A
C524   C571    1.516   .     S
C525   I592    2.134   .     S
C526   C543    1.409   .     A
C526   C582    1.531   .     S
C527   C542    1.395   .     A
C527   H547    1.084   .     S
C527   C543    1.400   .     A
C528   C544    1.401   .     A
C528   C530    1.471   .     S
C529   H557    1.084   .     S
C529   C535    1.398   .     A
C529   C87     1.373   1_565 S
C530   O562    1.302   .     A
C530   O563    1.294   .     A
C531   C532    1.392   .     A
C531   H548    1.084   .     S
C532   C540    1.407   .     S
C532   C533    1.389   .     A
C533   H549    1.080   .     S
C534   I570    2.118   .     S
C534   C535    1.401   .     A
C534   C89     1.372   1_565 S
C536   H550    1.082   .     S
C536   N559    1.368   .     A
C536   C611    1.419   .     S
C537   N558    1.368   .     A
C537   H551    1.081   .     S
C538   H552    1.077   .     S
C538   N558    1.367   .     A
C539   H553    1.081   .     S
C539   N559    1.367   .     A
C539   C612    1.418   .     S
C540   O565    1.282   .     A
C540   O564    1.285   .     A
C541   O567    1.296   .     A
C541   C543    1.447   .     S
C541   O566    1.289   .     A
C542   C1189   1.410   1_554 S
C542   I1247   2.116   1_554 S
C544   C545    1.392   .     A
C544   H554    1.078   .     S
C545   C1212   1.391   .     S
C545   H1222   1.082   .     S
C546   H555    1.082   .     S
C546   C1211   1.391   1_554 S
C546   C1186   1.411   1_554 S
H556   C1211   1.082   1_554 S
N558   Zn568   2.019   .     S
N559   Zn569   2.019   .     S
O560   Zn568   1.989   .     S
O561   Zn569   1.985   .     S
O562   Zn568   1.977   .     S
O563   Zn569   1.947   .     S
O564   Zn568   1.985   .     S
O565   Zn569   1.989   .     S
O566   Zn568   1.947   .     S
O567   Zn569   1.977   .     S
C571   H580    1.102   .     S
C571   H579    1.110   .     S
C571   C572    1.536   .     S
C572   H578    1.112   .     S
C572   H577    1.111   .     S
C572   C647    1.523   .     S
C573   H574    1.111   .     S
C573   H576    1.110   .     S
C573   H575    1.108   .     S
I581   C1208   2.116   .     S
C582   H591    1.106   .     S
C582   H590    1.110   .     S
C582   C583    1.533   .     S
C583   C584    1.528   .     S
C583   H588    1.112   .     S
C583   H589    1.108   .     S
C584   H586    1.111   .     S
C584   H587    1.111   .     S
C584   H585    1.109   .     S
C593   O634    1.287   .     A
C593   C609    1.412   .     S
C593   O635    1.283   .     A
C594   C595    1.401   .     A
C594   C1262   1.407   .     S
C594   C1286   1.411   .     S
C595   C602    1.415   .     A
C595   C599    1.411   .     A
C596   C600    1.392   .     A
C596   C1260   1.407   1_554 S
C596   C1263   1.413   1_554 S
C597   C598    1.416   .     A
C597   C1262   1.413   .     S
C597   C1282   1.410   .     S
C598   C599    1.409   .     A
C598   C645    1.516   .     S
C599   I666    2.134   .     S
C600   C617    1.409   .     A
C600   C656    1.531   .     S
C601   C616    1.395   .     A
C601   H621    1.084   .     S
C601   C617    1.400   .     A
C602   C618    1.401   .     A
C602   C604    1.471   .     S
C603   H631    1.084   .     S
C603   C609    1.398   .     A
C603   C161    1.373   1_565 S
C604   O636    1.302   .     A
C604   O637    1.294   .     A
C605   C606    1.392   .     A
C605   H622    1.084   .     S
C606   C614    1.407   .     S
C606   C607    1.389   .     A
C607   H623    1.080   .     S
C608   I644    2.118   .     S
C608   C609    1.401   .     A
C608   C163    1.372   1_565 S
C610   H624    1.082   .     S
C610   N633    1.368   .     A
C610   C463    1.419   1_655 S
C611   N632    1.368   .     A
C611   H625    1.081   .     S
C612   H626    1.077   .     S
C612   N632    1.367   .     A
C613   H627    1.081   .     S
C613   N633    1.367   .     A
C613   C464    1.418   1_655 S
C614   O639    1.282   .     A
C614   O638    1.285   .     A
C615   O641    1.296   .     A
C615   C617    1.447   .     S
C615   O640    1.289   .     A
C616   C1263   1.410   1_554 S
C616   I1321   2.116   1_554 S
C618   C619    1.392   .     A
C618   H628    1.078   .     S
C619   C1286   1.391   .     S
C619   H1296   1.082   .     S
C620   H629    1.082   .     S
C620   C1285   1.391   1_554 S
C620   C1260   1.411   1_554 S
H630   C1285   1.082   1_554 S
N632   Zn642   2.019   .     S
N633   Zn643   2.019   .     S
O634   Zn642   1.989   .     S
O635   Zn643   1.985   .     S
O636   Zn642   1.977   .     S
O637   Zn643   1.947   .     S
O638   Zn642   1.985   .     S
O639   Zn643   1.989   .     S
O640   Zn642   1.947   .     S
O641   Zn643   1.977   .     S
C645   H654    1.102   .     S
C645   H653    1.110   .     S
C645   C646    1.536   .     S
C646   H652    1.112   .     S
C646   H651    1.111   .     S
C646   C499    1.523   1_655 S
C647   H648    1.111   .     S
C647   H650    1.110   .     S
C647   H649    1.108   .     S
I655   C1282   2.116   .     S
C656   H665    1.106   .     S
C656   H664    1.110   .     S
C656   C657    1.533   .     S
C657   C658    1.528   .     S
C657   H662    1.112   .     S
C657   H663    1.108   .     S
C658   H660    1.111   .     S
C658   H661    1.111   .     S
C658   H659    1.109   .     S
C667   O708    1.287   .     A
C667   C683    1.412   .     S
C667   O709    1.283   .     A
C668   C669    1.401   .     A
C668   C4      1.407   1_556 S
C668   C28     1.411   1_556 S
C669   C676    1.415   .     A
C669   C673    1.411   .     A
C670   C674    1.392   .     A
C671   C672    1.416   .     A
C671   C4      1.413   1_556 S
C671   C24     1.410   1_556 S
C672   C673    1.409   .     A
C672   C719    1.516   .     S
C673   I740    2.134   .     S
C674   C691    1.409   .     A
C674   C730    1.531   .     S
C675   C690    1.395   .     A
C675   H695    1.084   .     S
C675   C691    1.400   .     A
C676   C692    1.401   .     A
C676   C678    1.471   .     S
C677   H705    1.084   .     S
C677   C683    1.398   .     A
C677   C901    1.373   .     S
C678   O710    1.302   .     A
C678   O711    1.294   .     A
C679   C680    1.392   .     A
C679   H696    1.084   .     S
C679   C1121   1.373   1_545 S
C680   C688    1.407   .     S
C680   C681    1.389   .     A
C681   H697    1.080   .     S
C681   C1126   1.372   1_545 S
C682   I718    2.118   .     S
C682   C683    1.401   .     A
C682   C903    1.372   .     S
C684   H698    1.082   .     S
C684   N707    1.368   .     A
C684   C759    1.419   .     S
C685   N706    1.368   .     A
C685   H699    1.081   .     S
C685   C832    1.419   1_455 S
C686   H700    1.077   .     S
C686   N706    1.367   .     A
C686   C835    1.418   1_455 S
C687   H701    1.081   .     S
C687   N707    1.367   .     A
C687   C760    1.418   .     S
C688   O713    1.282   .     A
C688   O712    1.285   .     A
C689   O715    1.296   .     A
C689   C691    1.447   .     S
C689   O714    1.289   .     A
C692   C693    1.392   .     A
C692   H702    1.078   .     S
C693   C28     1.391   1_556 S
C693   H38     1.082   1_556 S
C694   H703    1.082   .     S
N706   Zn716   2.019   .     S
N707   Zn717   2.019   .     S
O708   Zn716   1.989   .     S
O709   Zn717   1.985   .     S
O710   Zn716   1.977   .     S
O711   Zn717   1.947   .     S
O712   Zn716   1.985   .     S
O713   Zn717   1.989   .     S
O714   Zn716   1.947   .     S
O715   Zn717   1.977   .     S
C719   H728    1.102   .     S
C719   H727    1.110   .     S
C719   C720    1.536   .     S
C720   H726    1.112   .     S
C720   H725    1.111   .     S
C720   C795    1.523   .     S
C721   H722    1.111   .     S
C721   H724    1.110   .     S
C721   H723    1.108   .     S
C721   C868    1.523   1_455 S
I729   C24     2.116   1_556 S
C730   H739    1.106   .     S
C730   H738    1.110   .     S
C730   C731    1.533   .     S
C731   C732    1.528   .     S
C731   H736    1.112   .     S
C731   H737    1.108   .     S
C732   H734    1.111   .     S
C732   H735    1.111   .     S
C732   H733    1.109   .     S
C741   O782    1.287   .     A
C741   C757    1.412   .     S
C741   O783    1.283   .     A
C742   C743    1.401   .     A
C742   C78     1.407   1_556 S
C742   C102    1.411   1_556 S
C743   C750    1.415   .     A
C743   C747    1.411   .     A
C744   C748    1.392   .     A
C745   C746    1.416   .     A
C745   C78     1.413   1_556 S
C745   C98     1.410   1_556 S
C746   C747    1.409   .     A
C746   C793    1.516   .     S
C747   I814    2.134   .     S
C748   C765    1.409   .     A
C748   C804    1.531   .     S
C749   C764    1.395   .     A
C749   H769    1.084   .     S
C749   C765    1.400   .     A
C750   C766    1.401   .     A
C750   C752    1.471   .     S
C751   H779    1.084   .     S
C751   C757    1.398   .     A
C751   C975    1.373   .     S
C752   O784    1.302   .     A
C752   O785    1.294   .     A
C753   C754    1.392   .     A
C753   H770    1.084   .     S
C753   C1195   1.373   1_545 S
C754   C762    1.407   .     S
C754   C755    1.389   .     A
C755   H771    1.080   .     S
C755   C1200   1.372   1_545 S
C756   I792    2.118   .     S
C756   C757    1.401   .     A
C756   C977    1.372   .     S
C758   H772    1.082   .     S
C758   N781    1.368   .     A
C758   C833    1.419   .     S
C759   N780    1.368   .     A
C759   H773    1.081   .     S
C760   H774    1.077   .     S
C760   N780    1.367   .     A
C761   H775    1.081   .     S
C761   N781    1.367   .     A
C761   C834    1.418   .     S
C762   O787    1.282   .     A
C762   O786    1.285   .     A
C763   O789    1.296   .     A
C763   C765    1.447   .     S
C763   O788    1.289   .     A
C766   C767    1.392   .     A
C766   H776    1.078   .     S
C767   C102    1.391   1_556 S
C767   H112    1.082   1_556 S
C768   H777    1.082   .     S
N780   Zn790   2.019   .     S
N781   Zn791   2.019   .     S
O782   Zn790   1.989   .     S
O783   Zn791   1.985   .     S
O784   Zn790   1.977   .     S
O785   Zn791   1.947   .     S
O786   Zn790   1.985   .     S
O787   Zn791   1.989   .     S
O788   Zn790   1.947   .     S
O789   Zn791   1.977   .     S
C793   H802    1.102   .     S
C793   H801    1.110   .     S
C793   C794    1.536   .     S
C794   H800    1.112   .     S
C794   H799    1.111   .     S
C794   C869    1.523   .     S
C795   H796    1.111   .     S
C795   H798    1.110   .     S
C795   H797    1.108   .     S
I803   C98     2.116   1_556 S
C804   H813    1.106   .     S
C804   H812    1.110   .     S
C804   C805    1.533   .     S
C805   C806    1.528   .     S
C805   H810    1.112   .     S
C805   H811    1.108   .     S
C806   H808    1.111   .     S
C806   H809    1.111   .     S
C806   H807    1.109   .     S
C815   O856    1.287   .     A
C815   C831    1.412   .     S
C815   O857    1.283   .     A
C816   C817    1.401   .     A
C816   C152    1.407   1_556 S
C816   C176    1.411   1_556 S
C817   C824    1.415   .     A
C817   C821    1.411   .     A
C818   C822    1.392   .     A
C819   C820    1.416   .     A
C819   C152    1.413   1_556 S
C819   C172    1.410   1_556 S
C820   C821    1.409   .     A
C820   C867    1.516   .     S
C821   I888    2.134   .     S
C822   C839    1.409   .     A
C822   C878    1.531   .     S
C823   C838    1.395   .     A
C823   H843    1.084   .     S
C823   C839    1.400   .     A
C824   C840    1.401   .     A
C824   C826    1.471   .     S
C825   H853    1.084   .     S
C825   C831    1.398   .     A
C825   C1049   1.373   .     S
C826   O858    1.302   .     A
C826   O859    1.294   .     A
C827   C828    1.392   .     A
C827   H844    1.084   .     S
C827   C1269   1.373   1_545 S
C828   C836    1.407   .     S
C828   C829    1.389   .     A
C829   H845    1.080   .     S
C829   C1274   1.372   1_545 S
C830   I866    2.118   .     S
C830   C831    1.401   .     A
C830   C1051   1.372   .     S
C832   H846    1.082   .     S
C832   N855    1.368   .     A
C832   C685    1.419   1_655 S
C833   N854    1.368   .     A
C833   H847    1.081   .     S
C834   H848    1.077   .     S
C834   N854    1.367   .     A
C835   H849    1.081   .     S
C835   N855    1.367   .     A
C835   C686    1.418   1_655 S
C836   O861    1.282   .     A
C836   O860    1.285   .     A
C837   O863    1.296   .     A
C837   C839    1.447   .     S
C837   O862    1.289   .     A
C840   C841    1.392   .     A
C840   H850    1.078   .     S
C841   C176    1.391   1_556 S
C841   H186    1.082   1_556 S
C842   H851    1.082   .     S
N854   Zn864   2.019   .     S
N855   Zn865   2.019   .     S
O856   Zn864   1.989   .     S
O857   Zn865   1.985   .     S
O858   Zn864   1.977   .     S
O859   Zn865   1.947   .     S
O860   Zn864   1.985   .     S
O861   Zn865   1.989   .     S
O862   Zn864   1.947   .     S
O863   Zn865   1.977   .     S
C867   H876    1.102   .     S
C867   H875    1.110   .     S
C867   C868    1.536   .     S
C868   H874    1.112   .     S
C868   H873    1.111   .     S
C868   C721    1.523   1_655 S
C869   H870    1.111   .     S
C869   H872    1.110   .     S
C869   H871    1.108   .     S
I877   C172    2.116   1_556 S
C878   H887    1.106   .     S
C878   H886    1.110   .     S
C878   C879    1.533   .     S
C879   C880    1.528   .     S
C879   H884    1.112   .     S
C879   H885    1.108   .     S
C880   H882    1.111   .     S
C880   H883    1.111   .     S
C880   H881    1.109   .     S
C889   O930    1.287   .     A
C889   C905    1.412   .     S
C889   O931    1.283   .     A
C890   C891    1.401   .     A
C890   C226    1.407   1_556 S
C890   C250    1.411   1_556 S
C891   C898    1.415   .     A
C891   C895    1.411   .     A
C892   C896    1.392   .     A
C893   C894    1.416   .     A
C893   C226    1.413   1_556 S
C893   C246    1.410   1_556 S
C894   C895    1.409   .     A
C894   C941    1.516   .     S
C895   I962    2.134   .     S
C896   C913    1.409   .     A
C896   C952    1.531   .     S
C897   C912    1.395   .     A
C897   H917    1.084   .     S
C897   C913    1.400   .     A
C898   C914    1.401   .     A
C898   C900    1.471   .     S
C899   H927    1.084   .     S
C899   C905    1.398   .     A
C899   C1123   1.373   .     S
C900   O932    1.302   .     A
C900   O933    1.294   .     A
C901   C902    1.392   .     A
C901   H918    1.084   .     S
C902   C910    1.407   .     S
C902   C903    1.389   .     A
C903   H919    1.080   .     S
C904   I940    2.118   .     S
C904   C905    1.401   .     A
C904   C1125   1.372   .     S
C906   H920    1.082   .     S
C906   N929    1.368   .     A
C906   C981    1.419   .     S
C907   N928    1.368   .     A
C907   H921    1.081   .     S
C907   C1054   1.419   1_455 S
C908   H922    1.077   .     S
C908   N928    1.367   .     A
C908   C1057   1.418   1_455 S
C909   H923    1.081   .     S
C909   N929    1.367   .     A
C909   C982    1.418   .     S
C910   O935    1.282   .     A
C910   O934    1.285   .     A
C911   O937    1.296   .     A
C911   C913    1.447   .     S
C911   O936    1.289   .     A
C914   C915    1.392   .     A
C914   H924    1.078   .     S
C915   C250    1.391   1_556 S
C915   H260    1.082   1_556 S
C916   H925    1.082   .     S
N928   Zn938   2.019   .     S
N929   Zn939   2.019   .     S
O930   Zn938   1.989   .     S
O931   Zn939   1.985   .     S
O932   Zn938   1.977   .     S
O933   Zn939   1.947   .     S
O934   Zn938   1.985   .     S
O935   Zn939   1.989   .     S
O936   Zn938   1.947   .     S
O937   Zn939   1.977   .     S
C941   H950    1.102   .     S
C941   H949    1.110   .     S
C941   C942    1.536   .     S
C942   H948    1.112   .     S
C942   H947    1.111   .     S
C942   C1017   1.523   .     S
C943   H944    1.111   .     S
C943   H946    1.110   .     S
C943   H945    1.108   .     S
C943   C1090   1.523   1_455 S
I951   C246    2.116   1_556 S
C952   H961    1.106   .     S
C952   H960    1.110   .     S
C952   C953    1.533   .     S
C953   C954    1.528   .     S
C953   H958    1.112   .     S
C953   H959    1.108   .     S
C954   H956    1.111   .     S
C954   H957    1.111   .     S
C954   H955    1.109   .     S
C963   O1004   1.287   .     A
C963   C979    1.412   .     S
C963   O1005   1.283   .     A
C964   C965    1.401   .     A
C964   C300    1.407   1_556 S
C964   C324    1.411   1_556 S
C965   C972    1.415   .     A
C965   C969    1.411   .     A
C966   C970    1.392   .     A
C967   C968    1.416   .     A
C967   C300    1.413   1_556 S
C967   C320    1.410   1_556 S
C968   C969    1.409   .     A
C968   C1015   1.516   .     S
C969   I1036   2.134   .     S
C970   C987    1.409   .     A
C970   C1026   1.531   .     S
C971   C986    1.395   .     A
C971   H991    1.084   .     S
C971   C987    1.400   .     A
C972   C988    1.401   .     A
C972   C974    1.471   .     S
C973   H1001   1.084   .     S
C973   C979    1.398   .     A
C973   C1197   1.373   .     S
C974   O1006   1.302   .     A
C974   O1007   1.294   .     A
C975   C976    1.392   .     A
C975   H992    1.084   .     S
C976   C984    1.407   .     S
C976   C977    1.389   .     A
C977   H993    1.080   .     S
C978   I1014   2.118   .     S
C978   C979    1.401   .     A
C978   C1199   1.372   .     S
C980   H994    1.082   .     S
C980   N1003   1.368   .     A
C980   C1055   1.419   .     S
C981   N1002   1.368   .     A
C981   H995    1.081   .     S
C982   H996    1.077   .     S
C982   N1002   1.367   .     A
C983   H997    1.081   .     S
C983   N1003   1.367   .     A
C983   C1056   1.418   .     S
C984   O1009   1.282   .     A
C984   O1008   1.285   .     A
C985   O1011   1.296   .     A
C985   C987    1.447   .     S
C985   O1010   1.289   .     A
C988   C989    1.392   .     A
C988   H998    1.078   .     S
C989   C324    1.391   1_556 S
C989   H334    1.082   1_556 S
C990   H999    1.082   .     S
N1002  Zn1012  2.019   .     S
N1003  Zn1013  2.019   .     S
O1004  Zn1012  1.989   .     S
O1005  Zn1013  1.985   .     S
O1006  Zn1012  1.977   .     S
O1007  Zn1013  1.947   .     S
O1008  Zn1012  1.985   .     S
O1009  Zn1013  1.989   .     S
O1010  Zn1012  1.947   .     S
O1011  Zn1013  1.977   .     S
C1015  H1024   1.102   .     S
C1015  H1023   1.110   .     S
C1015  C1016   1.536   .     S
C1016  H1022   1.112   .     S
C1016  H1021   1.111   .     S
C1016  C1091   1.523   .     S
C1017  H1018   1.111   .     S
C1017  H1020   1.110   .     S
C1017  H1019   1.108   .     S
I1025  C320    2.116   1_556 S
C1026  H1035   1.106   .     S
C1026  H1034   1.110   .     S
C1026  C1027   1.533   .     S
C1027  C1028   1.528   .     S
C1027  H1032   1.112   .     S
C1027  H1033   1.108   .     S
C1028  H1030   1.111   .     S
C1028  H1031   1.111   .     S
C1028  H1029   1.109   .     S
C1037  O1078   1.287   .     A
C1037  C1053   1.412   .     S
C1037  O1079   1.283   .     A
C1038  C1039   1.401   .     A
C1038  C374    1.407   1_556 S
C1038  C398    1.411   1_556 S
C1039  C1046   1.415   .     A
C1039  C1043   1.411   .     A
C1040  C1044   1.392   .     A
C1041  C1042   1.416   .     A
C1041  C374    1.413   1_556 S
C1041  C394    1.410   1_556 S
C1042  C1043   1.409   .     A
C1042  C1089   1.516   .     S
C1043  I1110   2.134   .     S
C1044  C1061   1.409   .     A
C1044  C1100   1.531   .     S
C1045  C1060   1.395   .     A
C1045  H1065   1.084   .     S
C1045  C1061   1.400   .     A
C1046  C1062   1.401   .     A
C1046  C1048   1.471   .     S
C1047  H1075   1.084   .     S
C1047  C1053   1.398   .     A
C1047  C1271   1.373   .     S
C1048  O1080   1.302   .     A
C1048  O1081   1.294   .     A
C1049  C1050   1.392   .     A
C1049  H1066   1.084   .     S
C1050  C1058   1.407   .     S
C1050  C1051   1.389   .     A
C1051  H1067   1.080   .     S
C1052  I1088   2.118   .     S
C1052  C1053   1.401   .     A
C1052  C1273   1.372   .     S
C1054  H1068   1.082   .     S
C1054  N1077   1.368   .     A
C1054  C907    1.419   1_655 S
C1055  N1076   1.368   .     A
C1055  H1069   1.081   .     S
C1056  H1070   1.077   .     S
C1056  N1076   1.367   .     A
C1057  H1071   1.081   .     S
C1057  N1077   1.367   .     A
C1057  C908    1.418   1_655 S
C1058  O1083   1.282   .     A
C1058  O1082   1.285   .     A
C1059  O1085   1.296   .     A
C1059  C1061   1.447   .     S
C1059  O1084   1.289   .     A
C1062  C1063   1.392   .     A
C1062  H1072   1.078   .     S
C1063  C398    1.391   1_556 S
C1063  H408    1.082   1_556 S
C1064  H1073   1.082   .     S
N1076  Zn1086  2.019   .     S
N1077  Zn1087  2.019   .     S
O1078  Zn1086  1.989   .     S
O1079  Zn1087  1.985   .     S
O1080  Zn1086  1.977   .     S
O1081  Zn1087  1.947   .     S
O1082  Zn1086  1.985   .     S
O1083  Zn1087  1.989   .     S
O1084  Zn1086  1.947   .     S
O1085  Zn1087  1.977   .     S
C1089  H1098   1.102   .     S
C1089  H1097   1.110   .     S
C1089  C1090   1.536   .     S
C1090  H1096   1.112   .     S
C1090  H1095   1.111   .     S
C1090  C943    1.523   1_655 S
C1091  H1092   1.111   .     S
C1091  H1094   1.110   .     S
C1091  H1093   1.108   .     S
I1099  C394    2.116   1_556 S
C1100  H1109   1.106   .     S
C1100  H1108   1.110   .     S
C1100  C1101   1.533   .     S
C1101  C1102   1.528   .     S
C1101  H1106   1.112   .     S
C1101  H1107   1.108   .     S
C1102  H1104   1.111   .     S
C1102  H1105   1.111   .     S
C1102  H1103   1.109   .     S
C1111  O1152   1.287   .     A
C1111  C1127   1.412   .     S
C1111  O1153   1.283   .     A
C1112  C1113   1.401   .     A
C1112  C448    1.407   1_556 S
C1112  C472    1.411   1_556 S
C1113  C1120   1.415   .     A
C1113  C1117   1.411   .     A
C1114  C1118   1.392   .     A
C1115  C1116   1.416   .     A
C1115  C448    1.413   1_556 S
C1115  C468    1.410   1_556 S
C1116  C1117   1.409   .     A
C1116  C1163   1.516   .     S
C1117  I1184   2.134   .     S
C1118  C1135   1.409   .     A
C1118  C1174   1.531   .     S
C1119  C1134   1.395   .     A
C1119  H1139   1.084   .     S
C1119  C1135   1.400   .     A
C1120  C1136   1.401   .     A
C1120  C1122   1.471   .     S
C1121  H1149   1.084   .     S
C1121  C1127   1.398   .     A
C1121  C679    1.373   1_565 S
C1122  O1154   1.302   .     A
C1122  O1155   1.294   .     A
C1123  C1124   1.392   .     A
C1123  H1140   1.084   .     S
C1124  C1132   1.407   .     S
C1124  C1125   1.389   .     A
C1125  H1141   1.080   .     S
C1126  I1162   2.118   .     S
C1126  C1127   1.401   .     A
C1126  C681    1.372   1_565 S
C1128  H1142   1.082   .     S
C1128  N1151   1.368   .     A
C1128  C1203   1.419   .     S
C1129  N1150   1.368   .     A
C1129  H1143   1.081   .     S
C1129  C1276   1.419   1_455 S
C1130  H1144   1.077   .     S
C1130  N1150   1.367   .     A
C1130  C1279   1.418   1_455 S
C1131  H1145   1.081   .     S
C1131  N1151   1.367   .     A
C1131  C1204   1.418   .     S
C1132  O1157   1.282   .     A
C1132  O1156   1.285   .     A
C1133  O1159   1.296   .     A
C1133  C1135   1.447   .     S
C1133  O1158   1.289   .     A
C1136  C1137   1.392   .     A
C1136  H1146   1.078   .     S
C1137  C472    1.391   1_556 S
C1137  H482    1.082   1_556 S
C1138  H1147   1.082   .     S
N1150  Zn1160  2.019   .     S
N1151  Zn1161  2.019   .     S
O1152  Zn1160  1.989   .     S
O1153  Zn1161  1.985   .     S
O1154  Zn1160  1.977   .     S
O1155  Zn1161  1.947   .     S
O1156  Zn1160  1.985   .     S
O1157  Zn1161  1.989   .     S
O1158  Zn1160  1.947   .     S
O1159  Zn1161  1.977   .     S
C1163  H1172   1.102   .     S
C1163  H1171   1.110   .     S
C1163  C1164   1.536   .     S
C1164  H1170   1.112   .     S
C1164  H1169   1.111   .     S
C1164  C1239   1.523   .     S
C1165  H1166   1.111   .     S
C1165  H1168   1.110   .     S
C1165  H1167   1.108   .     S
C1165  C1312   1.523   1_455 S
I1173  C468    2.116   1_556 S
C1174  H1183   1.106   .     S
C1174  H1182   1.110   .     S
C1174  C1175   1.533   .     S
C1175  C1176   1.528   .     S
C1175  H1180   1.112   .     S
C1175  H1181   1.108   .     S
C1176  H1178   1.111   .     S
C1176  H1179   1.111   .     S
C1176  H1177   1.109   .     S
C1185  O1226   1.287   .     A
C1185  C1201   1.412   .     S
C1185  O1227   1.283   .     A
C1186  C1187   1.401   .     A
C1186  C522    1.407   1_556 S
C1186  C546    1.411   1_556 S
C1187  C1194   1.415   .     A
C1187  C1191   1.411   .     A
C1188  C1192   1.392   .     A
C1189  C1190   1.416   .     A
C1189  C522    1.413   1_556 S
C1189  C542    1.410   1_556 S
C1190  C1191   1.409   .     A
C1190  C1237   1.516   .     S
C1191  I1258   2.134   .     S
C1192  C1209   1.409   .     A
C1192  C1248   1.531   .     S
C1193  C1208   1.395   .     A
C1193  H1213   1.084   .     S
C1193  C1209   1.400   .     A
C1194  C1210   1.401   .     A
C1194  C1196   1.471   .     S
C1195  H1223   1.084   .     S
C1195  C1201   1.398   .     A
C1195  C753    1.373   1_565 S
C1196  O1228   1.302   .     A
C1196  O1229   1.294   .     A
C1197  C1198   1.392   .     A
C1197  H1214   1.084   .     S
C1198  C1206   1.407   .     S
C1198  C1199   1.389   .     A
C1199  H1215   1.080   .     S
C1200  I1236   2.118   .     S
C1200  C1201   1.401   .     A
C1200  C755    1.372   1_565 S
C1202  H1216   1.082   .     S
C1202  N1225   1.368   .     A
C1202  C1277   1.419   .     S
C1203  N1224   1.368   .     A
C1203  H1217   1.081   .     S
C1204  H1218   1.077   .     S
C1204  N1224   1.367   .     A
C1205  H1219   1.081   .     S
C1205  N1225   1.367   .     A
C1205  C1278   1.418   .     S
C1206  O1231   1.282   .     A
C1206  O1230   1.285   .     A
C1207  O1233   1.296   .     A
C1207  C1209   1.447   .     S
C1207  O1232   1.289   .     A
C1210  C1211   1.392   .     A
C1210  H1220   1.078   .     S
C1211  C546    1.391   1_556 S
C1211  H556    1.082   1_556 S
C1212  H1221   1.082   .     S
N1224  Zn1234  2.019   .     S
N1225  Zn1235  2.019   .     S
O1226  Zn1234  1.989   .     S
O1227  Zn1235  1.985   .     S
O1228  Zn1234  1.977   .     S
O1229  Zn1235  1.947   .     S
O1230  Zn1234  1.985   .     S
O1231  Zn1235  1.989   .     S
O1232  Zn1234  1.947   .     S
O1233  Zn1235  1.977   .     S
C1237  H1246   1.102   .     S
C1237  H1245   1.110   .     S
C1237  C1238   1.536   .     S
C1238  H1244   1.112   .     S
C1238  H1243   1.111   .     S
C1238  C1313   1.523   .     S
C1239  H1240   1.111   .     S
C1239  H1242   1.110   .     S
C1239  H1241   1.108   .     S
I1247  C542    2.116   1_556 S
C1248  H1257   1.106   .     S
C1248  H1256   1.110   .     S
C1248  C1249   1.533   .     S
C1249  C1250   1.528   .     S
C1249  H1254   1.112   .     S
C1249  H1255   1.108   .     S
C1250  H1252   1.111   .     S
C1250  H1253   1.111   .     S
C1250  H1251   1.109   .     S
C1259  O1300   1.287   .     A
C1259  C1275   1.412   .     S
C1259  O1301   1.283   .     A
C1260  C1261   1.401   .     A
C1260  C596    1.407   1_556 S
C1260  C620    1.411   1_556 S
C1261  C1268   1.415   .     A
C1261  C1265   1.411   .     A
C1262  C1266   1.392   .     A
C1263  C1264   1.416   .     A
C1263  C596    1.413   1_556 S
C1263  C616    1.410   1_556 S
C1264  C1265   1.409   .     A
C1264  C1311   1.516   .     S
C1265  I1332   2.134   .     S
C1266  C1283   1.409   .     A
C1266  C1322   1.531   .     S
C1267  C1282   1.395   .     A
C1267  H1287   1.084   .     S
C1267  C1283   1.400   .     A
C1268  C1284   1.401   .     A
C1268  C1270   1.471   .     S
C1269  H1297   1.084   .     S
C1269  C1275   1.398   .     A
C1269  C827    1.373   1_565 S
C1270  O1302   1.302   .     A
C1270  O1303   1.294   .     A
C1271  C1272   1.392   .     A
C1271  H1288   1.084   .     S
C1272  C1280   1.407   .     S
C1272  C1273   1.389   .     A
C1273  H1289   1.080   .     S
C1274  I1310   2.118   .     S
C1274  C1275   1.401   .     A
C1274  C829    1.372   1_565 S
C1276  H1290   1.082   .     S
C1276  N1299   1.368   .     A
C1276  C1129   1.419   1_655 S
C1277  N1298   1.368   .     A
C1277  H1291   1.081   .     S
C1278  H1292   1.077   .     S
C1278  N1298   1.367   .     A
C1279  H1293   1.081   .     S
C1279  N1299   1.367   .     A
C1279  C1130   1.418   1_655 S
C1280  O1305   1.282   .     A
C1280  O1304   1.285   .     A
C1281  O1307   1.296   .     A
C1281  C1283   1.447   .     S
C1281  O1306   1.289   .     A
C1284  C1285   1.392   .     A
C1284  H1294   1.078   .     S
C1285  C620    1.391   1_556 S
C1285  H630    1.082   1_556 S
C1286  H1295   1.082   .     S
N1298  Zn1308  2.019   .     S
N1299  Zn1309  2.019   .     S
O1300  Zn1308  1.989   .     S
O1301  Zn1309  1.985   .     S
O1302  Zn1308  1.977   .     S
O1303  Zn1309  1.947   .     S
O1304  Zn1308  1.985   .     S
O1305  Zn1309  1.989   .     S
O1306  Zn1308  1.947   .     S
O1307  Zn1309  1.977   .     S
C1311  H1320   1.102   .     S
C1311  H1319   1.110   .     S
C1311  C1312   1.536   .     S
C1312  H1318   1.112   .     S
C1312  H1317   1.111   .     S
C1312  C1165   1.523   1_655 S
C1313  H1314   1.111   .     S
C1313  H1316   1.110   .     S
C1313  H1315   1.108   .     S
I1321  C616    2.116   1_556 S
C1322  H1331   1.106   .     S
C1322  H1330   1.110   .     S
C1322  C1323   1.533   .     S
C1323  C1324   1.528   .     S
C1323  H1328   1.112   .     S
C1323  H1329   1.108   .     S
C1324  H1326   1.111   .     S
C1324  H1327   1.111   .     S
C1324  H1325   1.109   .     S
