data_str_m3_o1_o5_pcu_sym.80
_audit_creation_date              2020-01-03
_audit_creation_method            'Materials Studio'
_symmetry_space_group_name_H-M    'P1'
_symmetry_Int_Tables_number       1
_symmetry_cell_setting            triclinic
loop_
_symmetry_equiv_pos_as_xyz
  x,y,z
_cell_length_a                    32.2622
_cell_length_b                    29.8278
_cell_length_c                    26.6667
_cell_angle_alpha                 89.9997
_cell_angle_beta                  92.8709
_cell_angle_gamma                 90.0004
loop_
_atom_site_label
_atom_site_type_symbol
_atom_site_fract_x
_atom_site_fract_y
_atom_site_fract_z
_atom_site_U_iso_or_equiv
_atom_site_adp_type
_atom_site_occupancy
C1     C     0.08695   0.16667   0.17135   0.00000  Uiso   1.00
C2     C     0.02085   0.20773   0.17369   0.00000  Uiso   1.00
C3     C     0.29083   0.16667   0.15745   0.00000  Uiso   1.00
C4     C     0.04250   0.16667   0.17588   0.00000  Uiso   1.00
C5     C     0.19214   0.02392   0.20005   0.00000  Uiso   1.00
C6     C     0.14119   0.30942   0.13328   0.00000  Uiso   1.00
C7     C     0.14119   0.02392   0.13328   0.00000  Uiso   1.00
C8     C     0.19214   0.30942   0.20005   0.00000  Uiso   1.00
C9     C     0.24639   0.16667   0.16198   0.00000  Uiso   1.00
C10    C     0.16660   0.16667   0.07299   0.00000  Uiso   1.00
C11    C     0.16673   0.16667   0.26035   0.00000  Uiso   1.00
C12    C     0.16665   0.16667   0.02183   0.00000  Uiso   1.00
C13    C     0.16669   0.16667   0.31150   0.00000  Uiso   1.00
C14    C     0.02085   0.12561   0.17368   0.00000  Uiso   1.00
C15    C     0.31248   0.20773   0.15965   0.00000  Uiso   1.00
C16    C     0.31248   0.12561   0.15965   0.00000  Uiso   1.00
Cl17   Cl    0.04340   0.07391   0.19398   0.00000  Uiso   1.00
Cl18   Cl    0.28993   0.25942   0.13936   0.00000  Uiso   1.00
Cl19   Cl    0.28993   0.07391   0.13934   0.00000  Uiso   1.00
Cl20   Cl    0.04340   0.25942   0.19399   0.00000  Uiso   1.00
I21    I     0.23259   0.05839   0.25319   0.00000  Uiso   1.00
I22    I     0.10075   0.27494   0.08014   0.00000  Uiso   1.00
I23    I     0.10075   0.05839   0.08014   0.00000  Uiso   1.00
I24    I     0.23259   0.27494   0.25320   0.00000  Uiso   1.00
N25    N     0.16667   0.28573   0.16667   0.00000  Uiso   1.00
N26    N     0.16667   0.04760   0.16667   0.00000  Uiso   1.00
O27    O     0.10559   0.20487   0.16666   0.00000  Uiso   1.00
O28    O     0.22774   0.12846   0.16667   0.00000  Uiso   1.00
O29    O     0.22774   0.20487   0.16667   0.00000  Uiso   1.00
O30    O     0.10559   0.12846   0.16666   0.00000  Uiso   1.00
O31    O     0.16667   0.20488   0.09511   0.00000  Uiso   1.00
O32    O     0.16666   0.12845   0.23822   0.00000  Uiso   1.00
O33    O     0.16666   0.20488   0.23822   0.00000  Uiso   1.00
O34    O     0.16667   0.12845   0.09511   0.00000  Uiso   1.00
Zn35   Zn    0.16667   0.21771   0.16667   0.00000  Uiso   1.00
Zn36   Zn    0.16667   0.11563   0.16667   0.00000  Uiso   1.00
C37    C     0.42028   0.16667   0.17135   0.00000  Uiso   1.00
C38    C     0.35419   0.20773   0.17369   0.00000  Uiso   1.00
C39    C     0.62417   0.16667   0.15745   0.00000  Uiso   1.00
C40    C     0.37583   0.16667   0.17588   0.00000  Uiso   1.00
C41    C     0.52548   0.02392   0.20005   0.00000  Uiso   1.00
C42    C     0.47452   0.30942   0.13328   0.00000  Uiso   1.00
C43    C     0.47452   0.02392   0.13328   0.00000  Uiso   1.00
C44    C     0.52547   0.30942   0.20005   0.00000  Uiso   1.00
C45    C     0.57972   0.16667   0.16198   0.00000  Uiso   1.00
C46    C     0.49993   0.16667   0.07299   0.00000  Uiso   1.00
C47    C     0.50007   0.16667   0.26035   0.00000  Uiso   1.00
C48    C     0.49998   0.16667   0.02183   0.00000  Uiso   1.00
C49    C     0.50002   0.16667   0.31150   0.00000  Uiso   1.00
C50    C     0.35418   0.12561   0.17368   0.00000  Uiso   1.00
C51    C     0.64581   0.20773   0.15965   0.00000  Uiso   1.00
C52    C     0.64581   0.12561   0.15965   0.00000  Uiso   1.00
Cl53   Cl    0.37673   0.07391   0.19398   0.00000  Uiso   1.00
Cl54   Cl    0.62327   0.25942   0.13936   0.00000  Uiso   1.00
Cl55   Cl    0.62327   0.07391   0.13934   0.00000  Uiso   1.00
Cl56   Cl    0.37673   0.25942   0.19399   0.00000  Uiso   1.00
I57    I     0.56592   0.05839   0.25319   0.00000  Uiso   1.00
I58    I     0.43408   0.27494   0.08014   0.00000  Uiso   1.00
I59    I     0.43408   0.05839   0.08014   0.00000  Uiso   1.00
I60    I     0.56592   0.27494   0.25320   0.00000  Uiso   1.00
N61    N     0.50000   0.28573   0.16667   0.00000  Uiso   1.00
N62    N     0.50000   0.04760   0.16667   0.00000  Uiso   1.00
O63    O     0.43892   0.20487   0.16666   0.00000  Uiso   1.00
O64    O     0.56108   0.12846   0.16667   0.00000  Uiso   1.00
O65    O     0.56108   0.20487   0.16667   0.00000  Uiso   1.00
O66    O     0.43892   0.12846   0.16666   0.00000  Uiso   1.00
O67    O     0.50000   0.20488   0.09511   0.00000  Uiso   1.00
O68    O     0.50000   0.12845   0.23822   0.00000  Uiso   1.00
O69    O     0.50000   0.20488   0.23822   0.00000  Uiso   1.00
O70    O     0.50000   0.12845   0.09511   0.00000  Uiso   1.00
Zn71   Zn    0.50000   0.21771   0.16667   0.00000  Uiso   1.00
Zn72   Zn    0.50000   0.11563   0.16667   0.00000  Uiso   1.00
C73    C     0.75361   0.16667   0.17135   0.00000  Uiso   1.00
C74    C     0.68752   0.20773   0.17369   0.00000  Uiso   1.00
C75    C     0.95750   0.16667   0.15745   0.00000  Uiso   1.00
C76    C     0.70917   0.16667   0.17588   0.00000  Uiso   1.00
C77    C     0.85881   0.02392   0.20005   0.00000  Uiso   1.00
C78    C     0.80786   0.30942   0.13328   0.00000  Uiso   1.00
C79    C     0.80786   0.02392   0.13328   0.00000  Uiso   1.00
C80    C     0.85881   0.30942   0.20005   0.00000  Uiso   1.00
C81    C     0.91305   0.16667   0.16198   0.00000  Uiso   1.00
C82    C     0.83327   0.16667   0.07299   0.00000  Uiso   1.00
C83    C     0.83340   0.16667   0.26035   0.00000  Uiso   1.00
C84    C     0.83331   0.16667   0.02183   0.00000  Uiso   1.00
C85    C     0.83335   0.16667   0.31150   0.00000  Uiso   1.00
C86    C     0.68752   0.12561   0.17368   0.00000  Uiso   1.00
C87    C     0.97915   0.20773   0.15965   0.00000  Uiso   1.00
C88    C     0.97915   0.12561   0.15965   0.00000  Uiso   1.00
Cl89   Cl    0.71006   0.07391   0.19398   0.00000  Uiso   1.00
Cl90   Cl    0.95660   0.25942   0.13936   0.00000  Uiso   1.00
Cl91   Cl    0.95660   0.07391   0.13934   0.00000  Uiso   1.00
Cl92   Cl    0.71007   0.25942   0.19399   0.00000  Uiso   1.00
I93    I     0.89925   0.05839   0.25319   0.00000  Uiso   1.00
I94    I     0.76741   0.27494   0.08014   0.00000  Uiso   1.00
I95    I     0.76741   0.05839   0.08014   0.00000  Uiso   1.00
I96    I     0.89925   0.27494   0.25320   0.00000  Uiso   1.00
N97    N     0.83333   0.28573   0.16667   0.00000  Uiso   1.00
N98    N     0.83333   0.04760   0.16667   0.00000  Uiso   1.00
O99    O     0.77226   0.20487   0.16666   0.00000  Uiso   1.00
O100   O     0.89441   0.12846   0.16667   0.00000  Uiso   1.00
O101   O     0.89441   0.20487   0.16667   0.00000  Uiso   1.00
O102   O     0.77226   0.12846   0.16666   0.00000  Uiso   1.00
O103   O     0.83334   0.20488   0.09511   0.00000  Uiso   1.00
O104   O     0.83333   0.12845   0.23822   0.00000  Uiso   1.00
O105   O     0.83333   0.20488   0.23822   0.00000  Uiso   1.00
O106   O     0.83334   0.12845   0.09511   0.00000  Uiso   1.00
Zn107  Zn    0.83333   0.21771   0.16667   0.00000  Uiso   1.00
Zn108  Zn    0.83333   0.11563   0.16667   0.00000  Uiso   1.00
C109   C     0.08695   0.50000   0.17135   0.00000  Uiso   1.00
C110   C     0.02085   0.54106   0.17369   0.00000  Uiso   1.00
C111   C     0.29083   0.50000   0.15745   0.00000  Uiso   1.00
C112   C     0.04250   0.50000   0.17588   0.00000  Uiso   1.00
C113   C     0.19214   0.35725   0.20005   0.00000  Uiso   1.00
C114   C     0.14119   0.64275   0.13328   0.00000  Uiso   1.00
C115   C     0.14119   0.35725   0.13328   0.00000  Uiso   1.00
C116   C     0.19214   0.64275   0.20005   0.00000  Uiso   1.00
C117   C     0.24639   0.50000   0.16198   0.00000  Uiso   1.00
C118   C     0.16660   0.50000   0.07299   0.00000  Uiso   1.00
C119   C     0.16673   0.50000   0.26035   0.00000  Uiso   1.00
C120   C     0.16665   0.50000   0.02183   0.00000  Uiso   1.00
C121   C     0.16669   0.50000   0.31150   0.00000  Uiso   1.00
C122   C     0.02085   0.45894   0.17368   0.00000  Uiso   1.00
C123   C     0.31248   0.54106   0.15965   0.00000  Uiso   1.00
C124   C     0.31248   0.45894   0.15965   0.00000  Uiso   1.00
Cl125  Cl    0.04340   0.40724   0.19398   0.00000  Uiso   1.00
Cl126  Cl    0.28993   0.59276   0.13936   0.00000  Uiso   1.00
Cl127  Cl    0.28993   0.40725   0.13934   0.00000  Uiso   1.00
Cl128  Cl    0.04340   0.59275   0.19399   0.00000  Uiso   1.00
I129   I     0.23259   0.39172   0.25319   0.00000  Uiso   1.00
I130   I     0.10075   0.60828   0.08014   0.00000  Uiso   1.00
I131   I     0.10075   0.39172   0.08014   0.00000  Uiso   1.00
I132   I     0.23259   0.60828   0.25320   0.00000  Uiso   1.00
N133   N     0.16667   0.61907   0.16667   0.00000  Uiso   1.00
N134   N     0.16667   0.38093   0.16667   0.00000  Uiso   1.00
O135   O     0.10559   0.53821   0.16666   0.00000  Uiso   1.00
O136   O     0.22774   0.46179   0.16667   0.00000  Uiso   1.00
O137   O     0.22774   0.53821   0.16667   0.00000  Uiso   1.00
O138   O     0.10559   0.46179   0.16666   0.00000  Uiso   1.00
O139   O     0.16667   0.53821   0.09511   0.00000  Uiso   1.00
O140   O     0.16666   0.46179   0.23822   0.00000  Uiso   1.00
O141   O     0.16666   0.53821   0.23822   0.00000  Uiso   1.00
O142   O     0.16667   0.46179   0.09511   0.00000  Uiso   1.00
Zn143  Zn    0.16667   0.55104   0.16667   0.00000  Uiso   1.00
Zn144  Zn    0.16667   0.44896   0.16667   0.00000  Uiso   1.00
C145   C     0.42028   0.50000   0.17135   0.00000  Uiso   1.00
C146   C     0.35419   0.54106   0.17369   0.00000  Uiso   1.00
C147   C     0.62417   0.50000   0.15745   0.00000  Uiso   1.00
C148   C     0.37583   0.50000   0.17588   0.00000  Uiso   1.00
C149   C     0.52548   0.35725   0.20005   0.00000  Uiso   1.00
C150   C     0.47452   0.64275   0.13328   0.00000  Uiso   1.00
C151   C     0.47452   0.35725   0.13328   0.00000  Uiso   1.00
C152   C     0.52547   0.64275   0.20005   0.00000  Uiso   1.00
C153   C     0.57972   0.50000   0.16198   0.00000  Uiso   1.00
C154   C     0.49993   0.50000   0.07299   0.00000  Uiso   1.00
C155   C     0.50007   0.50000   0.26035   0.00000  Uiso   1.00
C156   C     0.49998   0.50000   0.02183   0.00000  Uiso   1.00
C157   C     0.50002   0.50000   0.31150   0.00000  Uiso   1.00
C158   C     0.35418   0.45894   0.17368   0.00000  Uiso   1.00
C159   C     0.64581   0.54106   0.15965   0.00000  Uiso   1.00
C160   C     0.64581   0.45894   0.15965   0.00000  Uiso   1.00
Cl161  Cl    0.37673   0.40724   0.19398   0.00000  Uiso   1.00
Cl162  Cl    0.62327   0.59276   0.13936   0.00000  Uiso   1.00
Cl163  Cl    0.62327   0.40725   0.13934   0.00000  Uiso   1.00
Cl164  Cl    0.37673   0.59275   0.19399   0.00000  Uiso   1.00
I165   I     0.56592   0.39172   0.25319   0.00000  Uiso   1.00
I166   I     0.43408   0.60828   0.08014   0.00000  Uiso   1.00
I167   I     0.43408   0.39172   0.08014   0.00000  Uiso   1.00
I168   I     0.56592   0.60828   0.25320   0.00000  Uiso   1.00
N169   N     0.50000   0.61907   0.16667   0.00000  Uiso   1.00
N170   N     0.50000   0.38093   0.16667   0.00000  Uiso   1.00
O171   O     0.43892   0.53821   0.16666   0.00000  Uiso   1.00
O172   O     0.56108   0.46179   0.16667   0.00000  Uiso   1.00
O173   O     0.56108   0.53821   0.16667   0.00000  Uiso   1.00
O174   O     0.43892   0.46179   0.16666   0.00000  Uiso   1.00
O175   O     0.50000   0.53821   0.09511   0.00000  Uiso   1.00
O176   O     0.50000   0.46179   0.23822   0.00000  Uiso   1.00
O177   O     0.50000   0.53821   0.23822   0.00000  Uiso   1.00
O178   O     0.50000   0.46179   0.09511   0.00000  Uiso   1.00
Zn179  Zn    0.50000   0.55104   0.16667   0.00000  Uiso   1.00
Zn180  Zn    0.50000   0.44896   0.16667   0.00000  Uiso   1.00
C181   C     0.75361   0.50000   0.17135   0.00000  Uiso   1.00
C182   C     0.68752   0.54106   0.17369   0.00000  Uiso   1.00
C183   C     0.95750   0.50000   0.15745   0.00000  Uiso   1.00
C184   C     0.70917   0.50000   0.17588   0.00000  Uiso   1.00
C185   C     0.85881   0.35725   0.20005   0.00000  Uiso   1.00
C186   C     0.80786   0.64275   0.13328   0.00000  Uiso   1.00
C187   C     0.80786   0.35725   0.13328   0.00000  Uiso   1.00
C188   C     0.85881   0.64275   0.20005   0.00000  Uiso   1.00
C189   C     0.91305   0.50000   0.16198   0.00000  Uiso   1.00
C190   C     0.83327   0.50000   0.07299   0.00000  Uiso   1.00
C191   C     0.83340   0.50000   0.26035   0.00000  Uiso   1.00
C192   C     0.83331   0.50000   0.02183   0.00000  Uiso   1.00
C193   C     0.83335   0.50000   0.31150   0.00000  Uiso   1.00
C194   C     0.68752   0.45894   0.17368   0.00000  Uiso   1.00
C195   C     0.97915   0.54106   0.15965   0.00000  Uiso   1.00
C196   C     0.97915   0.45894   0.15965   0.00000  Uiso   1.00
Cl197  Cl    0.71006   0.40724   0.19398   0.00000  Uiso   1.00
Cl198  Cl    0.95660   0.59276   0.13936   0.00000  Uiso   1.00
Cl199  Cl    0.95660   0.40725   0.13934   0.00000  Uiso   1.00
Cl200  Cl    0.71007   0.59275   0.19399   0.00000  Uiso   1.00
I201   I     0.89925   0.39172   0.25319   0.00000  Uiso   1.00
I202   I     0.76741   0.60828   0.08014   0.00000  Uiso   1.00
I203   I     0.76741   0.39172   0.08014   0.00000  Uiso   1.00
I204   I     0.89925   0.60828   0.25320   0.00000  Uiso   1.00
N205   N     0.83333   0.61907   0.16667   0.00000  Uiso   1.00
N206   N     0.83333   0.38093   0.16667   0.00000  Uiso   1.00
O207   O     0.77226   0.53821   0.16666   0.00000  Uiso   1.00
O208   O     0.89441   0.46179   0.16667   0.00000  Uiso   1.00
O209   O     0.89441   0.53821   0.16667   0.00000  Uiso   1.00
O210   O     0.77226   0.46179   0.16666   0.00000  Uiso   1.00
O211   O     0.83334   0.53821   0.09511   0.00000  Uiso   1.00
O212   O     0.83333   0.46179   0.23822   0.00000  Uiso   1.00
O213   O     0.83333   0.53821   0.23822   0.00000  Uiso   1.00
O214   O     0.83334   0.46179   0.09511   0.00000  Uiso   1.00
Zn215  Zn    0.83333   0.55104   0.16667   0.00000  Uiso   1.00
Zn216  Zn    0.83333   0.44896   0.16667   0.00000  Uiso   1.00
C217   C     0.08695   0.83333   0.17135   0.00000  Uiso   1.00
C218   C     0.02085   0.87439   0.17369   0.00000  Uiso   1.00
C219   C     0.29083   0.83333   0.15745   0.00000  Uiso   1.00
C220   C     0.04250   0.83333   0.17588   0.00000  Uiso   1.00
C221   C     0.19214   0.69058   0.20005   0.00000  Uiso   1.00
C222   C     0.14119   0.97608   0.13328   0.00000  Uiso   1.00
C223   C     0.14119   0.69058   0.13328   0.00000  Uiso   1.00
C224   C     0.19214   0.97608   0.20005   0.00000  Uiso   1.00
C225   C     0.24639   0.83333   0.16198   0.00000  Uiso   1.00
C226   C     0.16660   0.83333   0.07299   0.00000  Uiso   1.00
C227   C     0.16673   0.83333   0.26035   0.00000  Uiso   1.00
C228   C     0.16665   0.83333   0.02183   0.00000  Uiso   1.00
C229   C     0.16669   0.83333   0.31150   0.00000  Uiso   1.00
C230   C     0.02085   0.79227   0.17368   0.00000  Uiso   1.00
C231   C     0.31248   0.87439   0.15965   0.00000  Uiso   1.00
C232   C     0.31248   0.79227   0.15965   0.00000  Uiso   1.00
Cl233  Cl    0.04340   0.74057   0.19398   0.00000  Uiso   1.00
Cl234  Cl    0.28993   0.92609   0.13936   0.00000  Uiso   1.00
Cl235  Cl    0.28993   0.74058   0.13934   0.00000  Uiso   1.00
Cl236  Cl    0.04340   0.92609   0.19399   0.00000  Uiso   1.00
I237   I     0.23259   0.72506   0.25319   0.00000  Uiso   1.00
I238   I     0.10075   0.94161   0.08014   0.00000  Uiso   1.00
I239   I     0.10075   0.72506   0.08014   0.00000  Uiso   1.00
I240   I     0.23259   0.94161   0.25320   0.00000  Uiso   1.00
N241   N     0.16667   0.95240   0.16667   0.00000  Uiso   1.00
N242   N     0.16667   0.71427   0.16667   0.00000  Uiso   1.00
O243   O     0.10559   0.87154   0.16666   0.00000  Uiso   1.00
O244   O     0.22774   0.79513   0.16667   0.00000  Uiso   1.00
O245   O     0.22774   0.87154   0.16667   0.00000  Uiso   1.00
O246   O     0.10559   0.79513   0.16666   0.00000  Uiso   1.00
O247   O     0.16667   0.87155   0.09511   0.00000  Uiso   1.00
O248   O     0.16666   0.79512   0.23822   0.00000  Uiso   1.00
O249   O     0.16666   0.87155   0.23822   0.00000  Uiso   1.00
O250   O     0.16667   0.79512   0.09511   0.00000  Uiso   1.00
Zn251  Zn    0.16667   0.88437   0.16667   0.00000  Uiso   1.00
Zn252  Zn    0.16667   0.78229   0.16667   0.00000  Uiso   1.00
C253   C     0.42028   0.83333   0.17135   0.00000  Uiso   1.00
C254   C     0.35419   0.87439   0.17369   0.00000  Uiso   1.00
C255   C     0.62417   0.83333   0.15745   0.00000  Uiso   1.00
C256   C     0.37583   0.83333   0.17588   0.00000  Uiso   1.00
C257   C     0.52548   0.69058   0.20005   0.00000  Uiso   1.00
C258   C     0.47452   0.97608   0.13328   0.00000  Uiso   1.00
C259   C     0.47452   0.69058   0.13328   0.00000  Uiso   1.00
C260   C     0.52547   0.97608   0.20005   0.00000  Uiso   1.00
C261   C     0.57972   0.83333   0.16198   0.00000  Uiso   1.00
C262   C     0.49993   0.83333   0.07299   0.00000  Uiso   1.00
C263   C     0.50007   0.83333   0.26035   0.00000  Uiso   1.00
C264   C     0.49998   0.83333   0.02183   0.00000  Uiso   1.00
C265   C     0.50002   0.83333   0.31150   0.00000  Uiso   1.00
C266   C     0.35418   0.79227   0.17368   0.00000  Uiso   1.00
C267   C     0.64581   0.87439   0.15965   0.00000  Uiso   1.00
C268   C     0.64581   0.79227   0.15965   0.00000  Uiso   1.00
Cl269  Cl    0.37673   0.74057   0.19398   0.00000  Uiso   1.00
Cl270  Cl    0.62327   0.92609   0.13936   0.00000  Uiso   1.00
Cl271  Cl    0.62327   0.74058   0.13934   0.00000  Uiso   1.00
Cl272  Cl    0.37673   0.92609   0.19399   0.00000  Uiso   1.00
I273   I     0.56592   0.72506   0.25319   0.00000  Uiso   1.00
I274   I     0.43408   0.94161   0.08014   0.00000  Uiso   1.00
I275   I     0.43408   0.72506   0.08014   0.00000  Uiso   1.00
I276   I     0.56592   0.94161   0.25320   0.00000  Uiso   1.00
N277   N     0.50000   0.95240   0.16667   0.00000  Uiso   1.00
N278   N     0.50000   0.71427   0.16667   0.00000  Uiso   1.00
O279   O     0.43892   0.87154   0.16666   0.00000  Uiso   1.00
O280   O     0.56108   0.79513   0.16667   0.00000  Uiso   1.00
O281   O     0.56108   0.87154   0.16667   0.00000  Uiso   1.00
O282   O     0.43892   0.79513   0.16666   0.00000  Uiso   1.00
O283   O     0.50000   0.87155   0.09511   0.00000  Uiso   1.00
O284   O     0.50000   0.79512   0.23822   0.00000  Uiso   1.00
O285   O     0.50000   0.87155   0.23822   0.00000  Uiso   1.00
O286   O     0.50000   0.79512   0.09511   0.00000  Uiso   1.00
Zn287  Zn    0.50000   0.88437   0.16667   0.00000  Uiso   1.00
Zn288  Zn    0.50000   0.78229   0.16667   0.00000  Uiso   1.00
C289   C     0.75361   0.83333   0.17135   0.00000  Uiso   1.00
C290   C     0.68752   0.87439   0.17369   0.00000  Uiso   1.00
C291   C     0.95750   0.83333   0.15745   0.00000  Uiso   1.00
C292   C     0.70917   0.83333   0.17588   0.00000  Uiso   1.00
C293   C     0.85881   0.69058   0.20005   0.00000  Uiso   1.00
C294   C     0.80786   0.97608   0.13328   0.00000  Uiso   1.00
C295   C     0.80786   0.69058   0.13328   0.00000  Uiso   1.00
C296   C     0.85881   0.97608   0.20005   0.00000  Uiso   1.00
C297   C     0.91305   0.83333   0.16198   0.00000  Uiso   1.00
C298   C     0.83327   0.83333   0.07299   0.00000  Uiso   1.00
C299   C     0.83340   0.83333   0.26035   0.00000  Uiso   1.00
C300   C     0.83331   0.83333   0.02183   0.00000  Uiso   1.00
C301   C     0.83335   0.83333   0.31150   0.00000  Uiso   1.00
C302   C     0.68752   0.79227   0.17368   0.00000  Uiso   1.00
C303   C     0.97915   0.87439   0.15965   0.00000  Uiso   1.00
C304   C     0.97915   0.79227   0.15965   0.00000  Uiso   1.00
Cl305  Cl    0.71006   0.74057   0.19398   0.00000  Uiso   1.00
Cl306  Cl    0.95660   0.92609   0.13936   0.00000  Uiso   1.00
Cl307  Cl    0.95660   0.74058   0.13934   0.00000  Uiso   1.00
Cl308  Cl    0.71007   0.92609   0.19399   0.00000  Uiso   1.00
I309   I     0.89925   0.72506   0.25319   0.00000  Uiso   1.00
I310   I     0.76741   0.94161   0.08014   0.00000  Uiso   1.00
I311   I     0.76741   0.72506   0.08014   0.00000  Uiso   1.00
I312   I     0.89925   0.94161   0.25320   0.00000  Uiso   1.00
N313   N     0.83333   0.95240   0.16667   0.00000  Uiso   1.00
N314   N     0.83333   0.71427   0.16667   0.00000  Uiso   1.00
O315   O     0.77226   0.87154   0.16666   0.00000  Uiso   1.00
O316   O     0.89441   0.79513   0.16667   0.00000  Uiso   1.00
O317   O     0.89441   0.87154   0.16667   0.00000  Uiso   1.00
O318   O     0.77226   0.79513   0.16666   0.00000  Uiso   1.00
O319   O     0.83334   0.87155   0.09511   0.00000  Uiso   1.00
O320   O     0.83333   0.79512   0.23822   0.00000  Uiso   1.00
O321   O     0.83333   0.87155   0.23822   0.00000  Uiso   1.00
O322   O     0.83334   0.79512   0.09511   0.00000  Uiso   1.00
Zn323  Zn    0.83333   0.88437   0.16667   0.00000  Uiso   1.00
Zn324  Zn    0.83333   0.78229   0.16667   0.00000  Uiso   1.00
C325   C     0.08695   0.16667   0.50468   0.00000  Uiso   1.00
C326   C     0.02085   0.20773   0.50702   0.00000  Uiso   1.00
C327   C     0.29083   0.16667   0.49078   0.00000  Uiso   1.00
C328   C     0.04250   0.16667   0.50922   0.00000  Uiso   1.00
C329   C     0.19214   0.02392   0.53338   0.00000  Uiso   1.00
C330   C     0.14119   0.30942   0.46662   0.00000  Uiso   1.00
C331   C     0.14119   0.02392   0.46662   0.00000  Uiso   1.00
C332   C     0.19214   0.30942   0.53338   0.00000  Uiso   1.00
C333   C     0.24639   0.16667   0.49532   0.00000  Uiso   1.00
C334   C     0.16660   0.16667   0.40632   0.00000  Uiso   1.00
C335   C     0.16673   0.16667   0.59368   0.00000  Uiso   1.00
C336   C     0.16665   0.16667   0.35516   0.00000  Uiso   1.00
C337   C     0.16669   0.16667   0.64484   0.00000  Uiso   1.00
C338   C     0.02085   0.12561   0.50701   0.00000  Uiso   1.00
C339   C     0.31248   0.20773   0.49299   0.00000  Uiso   1.00
C340   C     0.31248   0.12561   0.49298   0.00000  Uiso   1.00
Cl341  Cl    0.04340   0.07391   0.52731   0.00000  Uiso   1.00
Cl342  Cl    0.28993   0.25942   0.47269   0.00000  Uiso   1.00
Cl343  Cl    0.28993   0.07391   0.47268   0.00000  Uiso   1.00
Cl344  Cl    0.04340   0.25942   0.52732   0.00000  Uiso   1.00
I345   I     0.23259   0.05839   0.58653   0.00000  Uiso   1.00
I346   I     0.10075   0.27494   0.41347   0.00000  Uiso   1.00
I347   I     0.10075   0.05839   0.41347   0.00000  Uiso   1.00
I348   I     0.23259   0.27494   0.58653   0.00000  Uiso   1.00
N349   N     0.16667   0.28573   0.50000   0.00000  Uiso   1.00
N350   N     0.16667   0.04760   0.50000   0.00000  Uiso   1.00
O351   O     0.10559   0.20487   0.50000   0.00000  Uiso   1.00
O352   O     0.22774   0.12846   0.50000   0.00000  Uiso   1.00
O353   O     0.22774   0.20487   0.50000   0.00000  Uiso   1.00
O354   O     0.10559   0.12846   0.50000   0.00000  Uiso   1.00
O355   O     0.16667   0.20488   0.42845   0.00000  Uiso   1.00
O356   O     0.16666   0.12845   0.57155   0.00000  Uiso   1.00
O357   O     0.16666   0.20488   0.57155   0.00000  Uiso   1.00
O358   O     0.16667   0.12845   0.42845   0.00000  Uiso   1.00
Zn359  Zn    0.16667   0.21771   0.50000   0.00000  Uiso   1.00
Zn360  Zn    0.16667   0.11563   0.50000   0.00000  Uiso   1.00
C361   C     0.42028   0.16667   0.50468   0.00000  Uiso   1.00
C362   C     0.35419   0.20773   0.50702   0.00000  Uiso   1.00
C363   C     0.62417   0.16667   0.49078   0.00000  Uiso   1.00
C364   C     0.37583   0.16667   0.50922   0.00000  Uiso   1.00
C365   C     0.52548   0.02392   0.53338   0.00000  Uiso   1.00
C366   C     0.47452   0.30942   0.46662   0.00000  Uiso   1.00
C367   C     0.47452   0.02392   0.46662   0.00000  Uiso   1.00
C368   C     0.52547   0.30942   0.53338   0.00000  Uiso   1.00
C369   C     0.57972   0.16667   0.49532   0.00000  Uiso   1.00
C370   C     0.49993   0.16667   0.40632   0.00000  Uiso   1.00
C371   C     0.50007   0.16667   0.59368   0.00000  Uiso   1.00
C372   C     0.49998   0.16667   0.35516   0.00000  Uiso   1.00
C373   C     0.50002   0.16667   0.64484   0.00000  Uiso   1.00
C374   C     0.35418   0.12561   0.50701   0.00000  Uiso   1.00
C375   C     0.64581   0.20773   0.49299   0.00000  Uiso   1.00
C376   C     0.64581   0.12561   0.49298   0.00000  Uiso   1.00
Cl377  Cl    0.37673   0.07391   0.52731   0.00000  Uiso   1.00
Cl378  Cl    0.62327   0.25942   0.47269   0.00000  Uiso   1.00
Cl379  Cl    0.62327   0.07391   0.47268   0.00000  Uiso   1.00
Cl380  Cl    0.37673   0.25942   0.52732   0.00000  Uiso   1.00
I381   I     0.56592   0.05839   0.58653   0.00000  Uiso   1.00
I382   I     0.43408   0.27494   0.41347   0.00000  Uiso   1.00
I383   I     0.43408   0.05839   0.41347   0.00000  Uiso   1.00
I384   I     0.56592   0.27494   0.58653   0.00000  Uiso   1.00
N385   N     0.50000   0.28573   0.50000   0.00000  Uiso   1.00
N386   N     0.50000   0.04760   0.50000   0.00000  Uiso   1.00
O387   O     0.43892   0.20487   0.50000   0.00000  Uiso   1.00
O388   O     0.56108   0.12846   0.50000   0.00000  Uiso   1.00
O389   O     0.56108   0.20487   0.50000   0.00000  Uiso   1.00
O390   O     0.43892   0.12846   0.50000   0.00000  Uiso   1.00
O391   O     0.50000   0.20488   0.42845   0.00000  Uiso   1.00
O392   O     0.50000   0.12845   0.57155   0.00000  Uiso   1.00
O393   O     0.50000   0.20488   0.57155   0.00000  Uiso   1.00
O394   O     0.50000   0.12845   0.42845   0.00000  Uiso   1.00
Zn395  Zn    0.50000   0.21771   0.50000   0.00000  Uiso   1.00
Zn396  Zn    0.50000   0.11563   0.50000   0.00000  Uiso   1.00
C397   C     0.75361   0.16667   0.50468   0.00000  Uiso   1.00
C398   C     0.68752   0.20773   0.50702   0.00000  Uiso   1.00
C399   C     0.95750   0.16667   0.49078   0.00000  Uiso   1.00
C400   C     0.70917   0.16667   0.50922   0.00000  Uiso   1.00
C401   C     0.85881   0.02392   0.53338   0.00000  Uiso   1.00
C402   C     0.80786   0.30942   0.46662   0.00000  Uiso   1.00
C403   C     0.80786   0.02392   0.46662   0.00000  Uiso   1.00
C404   C     0.85881   0.30942   0.53338   0.00000  Uiso   1.00
C405   C     0.91305   0.16667   0.49532   0.00000  Uiso   1.00
C406   C     0.83327   0.16667   0.40632   0.00000  Uiso   1.00
C407   C     0.83340   0.16667   0.59368   0.00000  Uiso   1.00
C408   C     0.83331   0.16667   0.35516   0.00000  Uiso   1.00
C409   C     0.83335   0.16667   0.64484   0.00000  Uiso   1.00
C410   C     0.68752   0.12561   0.50701   0.00000  Uiso   1.00
C411   C     0.97915   0.20773   0.49299   0.00000  Uiso   1.00
C412   C     0.97915   0.12561   0.49298   0.00000  Uiso   1.00
Cl413  Cl    0.71006   0.07391   0.52731   0.00000  Uiso   1.00
Cl414  Cl    0.95660   0.25942   0.47269   0.00000  Uiso   1.00
Cl415  Cl    0.95660   0.07391   0.47268   0.00000  Uiso   1.00
Cl416  Cl    0.71007   0.25942   0.52732   0.00000  Uiso   1.00
I417   I     0.89925   0.05839   0.58653   0.00000  Uiso   1.00
I418   I     0.76741   0.27494   0.41347   0.00000  Uiso   1.00
I419   I     0.76741   0.05839   0.41347   0.00000  Uiso   1.00
I420   I     0.89925   0.27494   0.58653   0.00000  Uiso   1.00
N421   N     0.83333   0.28573   0.50000   0.00000  Uiso   1.00
N422   N     0.83333   0.04760   0.50000   0.00000  Uiso   1.00
O423   O     0.77226   0.20487   0.50000   0.00000  Uiso   1.00
O424   O     0.89441   0.12846   0.50000   0.00000  Uiso   1.00
O425   O     0.89441   0.20487   0.50000   0.00000  Uiso   1.00
O426   O     0.77226   0.12846   0.50000   0.00000  Uiso   1.00
O427   O     0.83334   0.20488   0.42845   0.00000  Uiso   1.00
O428   O     0.83333   0.12845   0.57155   0.00000  Uiso   1.00
O429   O     0.83333   0.20488   0.57155   0.00000  Uiso   1.00
O430   O     0.83334   0.12845   0.42845   0.00000  Uiso   1.00
Zn431  Zn    0.83333   0.21771   0.50000   0.00000  Uiso   1.00
Zn432  Zn    0.83333   0.11563   0.50000   0.00000  Uiso   1.00
C433   C     0.08695   0.50000   0.50468   0.00000  Uiso   1.00
C434   C     0.02085   0.54106   0.50702   0.00000  Uiso   1.00
C435   C     0.29083   0.50000   0.49078   0.00000  Uiso   1.00
C436   C     0.04250   0.50000   0.50922   0.00000  Uiso   1.00
C437   C     0.19214   0.35725   0.53338   0.00000  Uiso   1.00
C438   C     0.14119   0.64275   0.46662   0.00000  Uiso   1.00
C439   C     0.14119   0.35725   0.46662   0.00000  Uiso   1.00
C440   C     0.19214   0.64275   0.53338   0.00000  Uiso   1.00
C441   C     0.24639   0.50000   0.49532   0.00000  Uiso   1.00
C442   C     0.16660   0.50000   0.40632   0.00000  Uiso   1.00
C443   C     0.16673   0.50000   0.59368   0.00000  Uiso   1.00
C444   C     0.16665   0.50000   0.35516   0.00000  Uiso   1.00
C445   C     0.16669   0.50000   0.64484   0.00000  Uiso   1.00
C446   C     0.02085   0.45894   0.50701   0.00000  Uiso   1.00
C447   C     0.31248   0.54106   0.49299   0.00000  Uiso   1.00
C448   C     0.31248   0.45894   0.49298   0.00000  Uiso   1.00
Cl449  Cl    0.04340   0.40724   0.52731   0.00000  Uiso   1.00
Cl450  Cl    0.28993   0.59276   0.47269   0.00000  Uiso   1.00
Cl451  Cl    0.28993   0.40725   0.47268   0.00000  Uiso   1.00
Cl452  Cl    0.04340   0.59275   0.52732   0.00000  Uiso   1.00
I453   I     0.23259   0.39172   0.58653   0.00000  Uiso   1.00
I454   I     0.10075   0.60828   0.41347   0.00000  Uiso   1.00
I455   I     0.10075   0.39172   0.41347   0.00000  Uiso   1.00
I456   I     0.23259   0.60828   0.58653   0.00000  Uiso   1.00
N457   N     0.16667   0.61907   0.50000   0.00000  Uiso   1.00
N458   N     0.16667   0.38093   0.50000   0.00000  Uiso   1.00
O459   O     0.10559   0.53821   0.50000   0.00000  Uiso   1.00
O460   O     0.22774   0.46179   0.50000   0.00000  Uiso   1.00
O461   O     0.22774   0.53821   0.50000   0.00000  Uiso   1.00
O462   O     0.10559   0.46179   0.50000   0.00000  Uiso   1.00
O463   O     0.16667   0.53821   0.42845   0.00000  Uiso   1.00
O464   O     0.16666   0.46179   0.57155   0.00000  Uiso   1.00
O465   O     0.16666   0.53821   0.57155   0.00000  Uiso   1.00
O466   O     0.16667   0.46179   0.42845   0.00000  Uiso   1.00
Zn467  Zn    0.16667   0.55104   0.50000   0.00000  Uiso   1.00
Zn468  Zn    0.16667   0.44896   0.50000   0.00000  Uiso   1.00
C469   C     0.42028   0.50000   0.50468   0.00000  Uiso   1.00
C470   C     0.35419   0.54106   0.50702   0.00000  Uiso   1.00
C471   C     0.62417   0.50000   0.49078   0.00000  Uiso   1.00
C472   C     0.37583   0.50000   0.50922   0.00000  Uiso   1.00
C473   C     0.52548   0.35725   0.53338   0.00000  Uiso   1.00
C474   C     0.47452   0.64275   0.46662   0.00000  Uiso   1.00
C475   C     0.47452   0.35725   0.46662   0.00000  Uiso   1.00
C476   C     0.52547   0.64275   0.53338   0.00000  Uiso   1.00
C477   C     0.57972   0.50000   0.49532   0.00000  Uiso   1.00
C478   C     0.49993   0.50000   0.40632   0.00000  Uiso   1.00
C479   C     0.50007   0.50000   0.59368   0.00000  Uiso   1.00
C480   C     0.49998   0.50000   0.35516   0.00000  Uiso   1.00
C481   C     0.50002   0.50000   0.64484   0.00000  Uiso   1.00
C482   C     0.35418   0.45894   0.50701   0.00000  Uiso   1.00
C483   C     0.64581   0.54106   0.49299   0.00000  Uiso   1.00
C484   C     0.64581   0.45894   0.49298   0.00000  Uiso   1.00
Cl485  Cl    0.37673   0.40724   0.52731   0.00000  Uiso   1.00
Cl486  Cl    0.62327   0.59276   0.47269   0.00000  Uiso   1.00
Cl487  Cl    0.62327   0.40725   0.47268   0.00000  Uiso   1.00
Cl488  Cl    0.37673   0.59275   0.52732   0.00000  Uiso   1.00
I489   I     0.56592   0.39172   0.58653   0.00000  Uiso   1.00
I490   I     0.43408   0.60828   0.41347   0.00000  Uiso   1.00
I491   I     0.43408   0.39172   0.41347   0.00000  Uiso   1.00
I492   I     0.56592   0.60828   0.58653   0.00000  Uiso   1.00
N493   N     0.50000   0.61907   0.50000   0.00000  Uiso   1.00
N494   N     0.50000   0.38093   0.50000   0.00000  Uiso   1.00
O495   O     0.43892   0.53821   0.50000   0.00000  Uiso   1.00
O496   O     0.56108   0.46179   0.50000   0.00000  Uiso   1.00
O497   O     0.56108   0.53821   0.50000   0.00000  Uiso   1.00
O498   O     0.43892   0.46179   0.50000   0.00000  Uiso   1.00
O499   O     0.50000   0.53821   0.42845   0.00000  Uiso   1.00
O500   O     0.50000   0.46179   0.57155   0.00000  Uiso   1.00
O501   O     0.50000   0.53821   0.57155   0.00000  Uiso   1.00
O502   O     0.50000   0.46179   0.42845   0.00000  Uiso   1.00
Zn503  Zn    0.50000   0.55104   0.50000   0.00000  Uiso   1.00
Zn504  Zn    0.50000   0.44896   0.50000   0.00000  Uiso   1.00
C505   C     0.75361   0.50000   0.50468   0.00000  Uiso   1.00
C506   C     0.68752   0.54106   0.50702   0.00000  Uiso   1.00
C507   C     0.95750   0.50000   0.49078   0.00000  Uiso   1.00
C508   C     0.70917   0.50000   0.50922   0.00000  Uiso   1.00
C509   C     0.85881   0.35725   0.53338   0.00000  Uiso   1.00
C510   C     0.80786   0.64275   0.46662   0.00000  Uiso   1.00
C511   C     0.80786   0.35725   0.46662   0.00000  Uiso   1.00
C512   C     0.85881   0.64275   0.53338   0.00000  Uiso   1.00
C513   C     0.91305   0.50000   0.49532   0.00000  Uiso   1.00
C514   C     0.83327   0.50000   0.40632   0.00000  Uiso   1.00
C515   C     0.83340   0.50000   0.59368   0.00000  Uiso   1.00
C516   C     0.83331   0.50000   0.35516   0.00000  Uiso   1.00
C517   C     0.83335   0.50000   0.64484   0.00000  Uiso   1.00
C518   C     0.68752   0.45894   0.50701   0.00000  Uiso   1.00
C519   C     0.97915   0.54106   0.49299   0.00000  Uiso   1.00
C520   C     0.97915   0.45894   0.49298   0.00000  Uiso   1.00
Cl521  Cl    0.71006   0.40724   0.52731   0.00000  Uiso   1.00
Cl522  Cl    0.95660   0.59276   0.47269   0.00000  Uiso   1.00
Cl523  Cl    0.95660   0.40725   0.47268   0.00000  Uiso   1.00
Cl524  Cl    0.71007   0.59275   0.52732   0.00000  Uiso   1.00
I525   I     0.89925   0.39172   0.58653   0.00000  Uiso   1.00
I526   I     0.76741   0.60828   0.41347   0.00000  Uiso   1.00
I527   I     0.76741   0.39172   0.41347   0.00000  Uiso   1.00
I528   I     0.89925   0.60828   0.58653   0.00000  Uiso   1.00
N529   N     0.83333   0.61907   0.50000   0.00000  Uiso   1.00
N530   N     0.83333   0.38093   0.50000   0.00000  Uiso   1.00
O531   O     0.77226   0.53821   0.50000   0.00000  Uiso   1.00
O532   O     0.89441   0.46179   0.50000   0.00000  Uiso   1.00
O533   O     0.89441   0.53821   0.50000   0.00000  Uiso   1.00
O534   O     0.77226   0.46179   0.50000   0.00000  Uiso   1.00
O535   O     0.83334   0.53821   0.42845   0.00000  Uiso   1.00
O536   O     0.83333   0.46179   0.57155   0.00000  Uiso   1.00
O537   O     0.83333   0.53821   0.57155   0.00000  Uiso   1.00
O538   O     0.83334   0.46179   0.42845   0.00000  Uiso   1.00
Zn539  Zn    0.83333   0.55104   0.50000   0.00000  Uiso   1.00
Zn540  Zn    0.83333   0.44896   0.50000   0.00000  Uiso   1.00
C541   C     0.08695   0.83333   0.50468   0.00000  Uiso   1.00
C542   C     0.02085   0.87439   0.50702   0.00000  Uiso   1.00
C543   C     0.29083   0.83333   0.49078   0.00000  Uiso   1.00
C544   C     0.04250   0.83333   0.50922   0.00000  Uiso   1.00
C545   C     0.19214   0.69058   0.53338   0.00000  Uiso   1.00
C546   C     0.14119   0.97608   0.46662   0.00000  Uiso   1.00
C547   C     0.14119   0.69058   0.46662   0.00000  Uiso   1.00
C548   C     0.19214   0.97608   0.53338   0.00000  Uiso   1.00
C549   C     0.24639   0.83333   0.49532   0.00000  Uiso   1.00
C550   C     0.16660   0.83333   0.40632   0.00000  Uiso   1.00
C551   C     0.16673   0.83333   0.59368   0.00000  Uiso   1.00
C552   C     0.16665   0.83333   0.35516   0.00000  Uiso   1.00
C553   C     0.16669   0.83333   0.64484   0.00000  Uiso   1.00
C554   C     0.02085   0.79227   0.50701   0.00000  Uiso   1.00
C555   C     0.31248   0.87439   0.49299   0.00000  Uiso   1.00
C556   C     0.31248   0.79227   0.49298   0.00000  Uiso   1.00
Cl557  Cl    0.04340   0.74057   0.52731   0.00000  Uiso   1.00
Cl558  Cl    0.28993   0.92609   0.47269   0.00000  Uiso   1.00
Cl559  Cl    0.28993   0.74058   0.47268   0.00000  Uiso   1.00
Cl560  Cl    0.04340   0.92609   0.52732   0.00000  Uiso   1.00
I561   I     0.23259   0.72506   0.58653   0.00000  Uiso   1.00
I562   I     0.10075   0.94161   0.41347   0.00000  Uiso   1.00
I563   I     0.10075   0.72506   0.41347   0.00000  Uiso   1.00
I564   I     0.23259   0.94161   0.58653   0.00000  Uiso   1.00
N565   N     0.16667   0.95240   0.50000   0.00000  Uiso   1.00
N566   N     0.16667   0.71427   0.50000   0.00000  Uiso   1.00
O567   O     0.10559   0.87154   0.50000   0.00000  Uiso   1.00
O568   O     0.22774   0.79513   0.50000   0.00000  Uiso   1.00
O569   O     0.22774   0.87154   0.50000   0.00000  Uiso   1.00
O570   O     0.10559   0.79513   0.50000   0.00000  Uiso   1.00
O571   O     0.16667   0.87155   0.42845   0.00000  Uiso   1.00
O572   O     0.16666   0.79512   0.57155   0.00000  Uiso   1.00
O573   O     0.16666   0.87155   0.57155   0.00000  Uiso   1.00
O574   O     0.16667   0.79512   0.42845   0.00000  Uiso   1.00
Zn575  Zn    0.16667   0.88437   0.50000   0.00000  Uiso   1.00
Zn576  Zn    0.16667   0.78229   0.50000   0.00000  Uiso   1.00
C577   C     0.42028   0.83333   0.50468   0.00000  Uiso   1.00
C578   C     0.35419   0.87439   0.50702   0.00000  Uiso   1.00
C579   C     0.62417   0.83333   0.49078   0.00000  Uiso   1.00
C580   C     0.37583   0.83333   0.50922   0.00000  Uiso   1.00
C581   C     0.52548   0.69058   0.53338   0.00000  Uiso   1.00
C582   C     0.47452   0.97608   0.46662   0.00000  Uiso   1.00
C583   C     0.47452   0.69058   0.46662   0.00000  Uiso   1.00
C584   C     0.52547   0.97608   0.53338   0.00000  Uiso   1.00
C585   C     0.57972   0.83333   0.49532   0.00000  Uiso   1.00
C586   C     0.49993   0.83333   0.40632   0.00000  Uiso   1.00
C587   C     0.50007   0.83333   0.59368   0.00000  Uiso   1.00
C588   C     0.49998   0.83333   0.35516   0.00000  Uiso   1.00
C589   C     0.50002   0.83333   0.64484   0.00000  Uiso   1.00
C590   C     0.35418   0.79227   0.50701   0.00000  Uiso   1.00
C591   C     0.64581   0.87439   0.49299   0.00000  Uiso   1.00
C592   C     0.64581   0.79227   0.49298   0.00000  Uiso   1.00
Cl593  Cl    0.37673   0.74057   0.52731   0.00000  Uiso   1.00
Cl594  Cl    0.62327   0.92609   0.47269   0.00000  Uiso   1.00
Cl595  Cl    0.62327   0.74058   0.47268   0.00000  Uiso   1.00
Cl596  Cl    0.37673   0.92609   0.52732   0.00000  Uiso   1.00
I597   I     0.56592   0.72506   0.58653   0.00000  Uiso   1.00
I598   I     0.43408   0.94161   0.41347   0.00000  Uiso   1.00
I599   I     0.43408   0.72506   0.41347   0.00000  Uiso   1.00
I600   I     0.56592   0.94161   0.58653   0.00000  Uiso   1.00
N601   N     0.50000   0.95240   0.50000   0.00000  Uiso   1.00
N602   N     0.50000   0.71427   0.50000   0.00000  Uiso   1.00
O603   O     0.43892   0.87154   0.50000   0.00000  Uiso   1.00
O604   O     0.56108   0.79513   0.50000   0.00000  Uiso   1.00
O605   O     0.56108   0.87154   0.50000   0.00000  Uiso   1.00
O606   O     0.43892   0.79513   0.50000   0.00000  Uiso   1.00
O607   O     0.50000   0.87155   0.42845   0.00000  Uiso   1.00
O608   O     0.50000   0.79512   0.57155   0.00000  Uiso   1.00
O609   O     0.50000   0.87155   0.57155   0.00000  Uiso   1.00
O610   O     0.50000   0.79512   0.42845   0.00000  Uiso   1.00
Zn611  Zn    0.50000   0.88437   0.50000   0.00000  Uiso   1.00
Zn612  Zn    0.50000   0.78229   0.50000   0.00000  Uiso   1.00
C613   C     0.75361   0.83333   0.50468   0.00000  Uiso   1.00
C614   C     0.68752   0.87439   0.50702   0.00000  Uiso   1.00
C615   C     0.95750   0.83333   0.49078   0.00000  Uiso   1.00
C616   C     0.70917   0.83333   0.50922   0.00000  Uiso   1.00
C617   C     0.85881   0.69058   0.53338   0.00000  Uiso   1.00
C618   C     0.80786   0.97608   0.46662   0.00000  Uiso   1.00
C619   C     0.80786   0.69058   0.46662   0.00000  Uiso   1.00
C620   C     0.85881   0.97608   0.53338   0.00000  Uiso   1.00
C621   C     0.91305   0.83333   0.49532   0.00000  Uiso   1.00
C622   C     0.83327   0.83333   0.40632   0.00000  Uiso   1.00
C623   C     0.83340   0.83333   0.59368   0.00000  Uiso   1.00
C624   C     0.83331   0.83333   0.35516   0.00000  Uiso   1.00
C625   C     0.83335   0.83333   0.64484   0.00000  Uiso   1.00
C626   C     0.68752   0.79227   0.50701   0.00000  Uiso   1.00
C627   C     0.97915   0.87439   0.49299   0.00000  Uiso   1.00
C628   C     0.97915   0.79227   0.49298   0.00000  Uiso   1.00
Cl629  Cl    0.71006   0.74057   0.52731   0.00000  Uiso   1.00
Cl630  Cl    0.95660   0.92609   0.47269   0.00000  Uiso   1.00
Cl631  Cl    0.95660   0.74058   0.47268   0.00000  Uiso   1.00
Cl632  Cl    0.71007   0.92609   0.52732   0.00000  Uiso   1.00
I633   I     0.89925   0.72506   0.58653   0.00000  Uiso   1.00
I634   I     0.76741   0.94161   0.41347   0.00000  Uiso   1.00
I635   I     0.76741   0.72506   0.41347   0.00000  Uiso   1.00
I636   I     0.89925   0.94161   0.58653   0.00000  Uiso   1.00
N637   N     0.83333   0.95240   0.50000   0.00000  Uiso   1.00
N638   N     0.83333   0.71427   0.50000   0.00000  Uiso   1.00
O639   O     0.77226   0.87154   0.50000   0.00000  Uiso   1.00
O640   O     0.89441   0.79513   0.50000   0.00000  Uiso   1.00
O641   O     0.89441   0.87154   0.50000   0.00000  Uiso   1.00
O642   O     0.77226   0.79513   0.50000   0.00000  Uiso   1.00
O643   O     0.83334   0.87155   0.42845   0.00000  Uiso   1.00
O644   O     0.83333   0.79512   0.57155   0.00000  Uiso   1.00
O645   O     0.83333   0.87155   0.57155   0.00000  Uiso   1.00
O646   O     0.83334   0.79512   0.42845   0.00000  Uiso   1.00
Zn647  Zn    0.83333   0.88437   0.50000   0.00000  Uiso   1.00
Zn648  Zn    0.83333   0.78229   0.50000   0.00000  Uiso   1.00
C649   C     0.08695   0.16667   0.83802   0.00000  Uiso   1.00
C650   C     0.02085   0.20773   0.84035   0.00000  Uiso   1.00
C651   C     0.29083   0.16667   0.82412   0.00000  Uiso   1.00
C652   C     0.04250   0.16667   0.84255   0.00000  Uiso   1.00
C653   C     0.19214   0.02392   0.86672   0.00000  Uiso   1.00
C654   C     0.14119   0.30942   0.79995   0.00000  Uiso   1.00
C655   C     0.14119   0.02392   0.79995   0.00000  Uiso   1.00
C656   C     0.19214   0.30942   0.86672   0.00000  Uiso   1.00
C657   C     0.24639   0.16667   0.82865   0.00000  Uiso   1.00
C658   C     0.16660   0.16667   0.73965   0.00000  Uiso   1.00
C659   C     0.16673   0.16667   0.92701   0.00000  Uiso   1.00
C660   C     0.16665   0.16667   0.68850   0.00000  Uiso   1.00
C661   C     0.16669   0.16667   0.97817   0.00000  Uiso   1.00
C662   C     0.02085   0.12561   0.84035   0.00000  Uiso   1.00
C663   C     0.31248   0.20773   0.82632   0.00000  Uiso   1.00
C664   C     0.31248   0.12561   0.82631   0.00000  Uiso   1.00
Cl665  Cl    0.04340   0.07391   0.86064   0.00000  Uiso   1.00
Cl666  Cl    0.28993   0.25942   0.80602   0.00000  Uiso   1.00
Cl667  Cl    0.28993   0.07391   0.80601   0.00000  Uiso   1.00
Cl668  Cl    0.04340   0.25942   0.86066   0.00000  Uiso   1.00
I669   I     0.23259   0.05839   0.91986   0.00000  Uiso   1.00
I670   I     0.10075   0.27494   0.74681   0.00000  Uiso   1.00
I671   I     0.10075   0.05839   0.74680   0.00000  Uiso   1.00
I672   I     0.23259   0.27494   0.91986   0.00000  Uiso   1.00
N673   N     0.16667   0.28573   0.83333   0.00000  Uiso   1.00
N674   N     0.16667   0.04760   0.83333   0.00000  Uiso   1.00
O675   O     0.10559   0.20487   0.83333   0.00000  Uiso   1.00
O676   O     0.22774   0.12846   0.83334   0.00000  Uiso   1.00
O677   O     0.22774   0.20487   0.83334   0.00000  Uiso   1.00
O678   O     0.10559   0.12846   0.83333   0.00000  Uiso   1.00
O679   O     0.16667   0.20488   0.76178   0.00000  Uiso   1.00
O680   O     0.16666   0.12845   0.90489   0.00000  Uiso   1.00
O681   O     0.16666   0.20488   0.90489   0.00000  Uiso   1.00
O682   O     0.16667   0.12845   0.76178   0.00000  Uiso   1.00
Zn683  Zn    0.16667   0.21771   0.83333   0.00000  Uiso   1.00
Zn684  Zn    0.16667   0.11563   0.83333   0.00000  Uiso   1.00
C685   C     0.42028   0.16667   0.83802   0.00000  Uiso   1.00
C686   C     0.35419   0.20773   0.84035   0.00000  Uiso   1.00
C687   C     0.62417   0.16667   0.82412   0.00000  Uiso   1.00
C688   C     0.37583   0.16667   0.84255   0.00000  Uiso   1.00
C689   C     0.52548   0.02392   0.86672   0.00000  Uiso   1.00
C690   C     0.47452   0.30942   0.79995   0.00000  Uiso   1.00
C691   C     0.47452   0.02392   0.79995   0.00000  Uiso   1.00
C692   C     0.52547   0.30942   0.86672   0.00000  Uiso   1.00
C693   C     0.57972   0.16667   0.82865   0.00000  Uiso   1.00
C694   C     0.49993   0.16667   0.73965   0.00000  Uiso   1.00
C695   C     0.50007   0.16667   0.92701   0.00000  Uiso   1.00
C696   C     0.49998   0.16667   0.68850   0.00000  Uiso   1.00
C697   C     0.50002   0.16667   0.97817   0.00000  Uiso   1.00
C698   C     0.35418   0.12561   0.84035   0.00000  Uiso   1.00
C699   C     0.64581   0.20773   0.82632   0.00000  Uiso   1.00
C700   C     0.64581   0.12561   0.82631   0.00000  Uiso   1.00
Cl701  Cl    0.37673   0.07391   0.86064   0.00000  Uiso   1.00
Cl702  Cl    0.62327   0.25942   0.80602   0.00000  Uiso   1.00
Cl703  Cl    0.62327   0.07391   0.80601   0.00000  Uiso   1.00
Cl704  Cl    0.37673   0.25942   0.86066   0.00000  Uiso   1.00
I705   I     0.56592   0.05839   0.91986   0.00000  Uiso   1.00
I706   I     0.43408   0.27494   0.74681   0.00000  Uiso   1.00
I707   I     0.43408   0.05839   0.74680   0.00000  Uiso   1.00
I708   I     0.56592   0.27494   0.91986   0.00000  Uiso   1.00
N709   N     0.50000   0.28573   0.83333   0.00000  Uiso   1.00
N710   N     0.50000   0.04760   0.83333   0.00000  Uiso   1.00
O711   O     0.43892   0.20487   0.83333   0.00000  Uiso   1.00
O712   O     0.56108   0.12846   0.83334   0.00000  Uiso   1.00
O713   O     0.56108   0.20487   0.83334   0.00000  Uiso   1.00
O714   O     0.43892   0.12846   0.83333   0.00000  Uiso   1.00
O715   O     0.50000   0.20488   0.76178   0.00000  Uiso   1.00
O716   O     0.50000   0.12845   0.90489   0.00000  Uiso   1.00
O717   O     0.50000   0.20488   0.90489   0.00000  Uiso   1.00
O718   O     0.50000   0.12845   0.76178   0.00000  Uiso   1.00
Zn719  Zn    0.50000   0.21771   0.83333   0.00000  Uiso   1.00
Zn720  Zn    0.50000   0.11563   0.83333   0.00000  Uiso   1.00
C721   C     0.75361   0.16667   0.83802   0.00000  Uiso   1.00
C722   C     0.68752   0.20773   0.84035   0.00000  Uiso   1.00
C723   C     0.95750   0.16667   0.82412   0.00000  Uiso   1.00
C724   C     0.70917   0.16667   0.84255   0.00000  Uiso   1.00
C725   C     0.85881   0.02392   0.86672   0.00000  Uiso   1.00
C726   C     0.80786   0.30942   0.79995   0.00000  Uiso   1.00
C727   C     0.80786   0.02392   0.79995   0.00000  Uiso   1.00
C728   C     0.85881   0.30942   0.86672   0.00000  Uiso   1.00
C729   C     0.91305   0.16667   0.82865   0.00000  Uiso   1.00
C730   C     0.83327   0.16667   0.73965   0.00000  Uiso   1.00
C731   C     0.83340   0.16667   0.92701   0.00000  Uiso   1.00
C732   C     0.83331   0.16667   0.68850   0.00000  Uiso   1.00
C733   C     0.83335   0.16667   0.97817   0.00000  Uiso   1.00
C734   C     0.68752   0.12561   0.84035   0.00000  Uiso   1.00
C735   C     0.97915   0.20773   0.82632   0.00000  Uiso   1.00
C736   C     0.97915   0.12561   0.82631   0.00000  Uiso   1.00
Cl737  Cl    0.71006   0.07391   0.86064   0.00000  Uiso   1.00
Cl738  Cl    0.95660   0.25942   0.80602   0.00000  Uiso   1.00
Cl739  Cl    0.95660   0.07391   0.80601   0.00000  Uiso   1.00
Cl740  Cl    0.71007   0.25942   0.86066   0.00000  Uiso   1.00
I741   I     0.89925   0.05839   0.91986   0.00000  Uiso   1.00
I742   I     0.76741   0.27494   0.74681   0.00000  Uiso   1.00
I743   I     0.76741   0.05839   0.74680   0.00000  Uiso   1.00
I744   I     0.89925   0.27494   0.91986   0.00000  Uiso   1.00
N745   N     0.83333   0.28573   0.83333   0.00000  Uiso   1.00
N746   N     0.83333   0.04760   0.83333   0.00000  Uiso   1.00
O747   O     0.77226   0.20487   0.83333   0.00000  Uiso   1.00
O748   O     0.89441   0.12846   0.83334   0.00000  Uiso   1.00
O749   O     0.89441   0.20487   0.83334   0.00000  Uiso   1.00
O750   O     0.77226   0.12846   0.83333   0.00000  Uiso   1.00
O751   O     0.83334   0.20488   0.76178   0.00000  Uiso   1.00
O752   O     0.83333   0.12845   0.90489   0.00000  Uiso   1.00
O753   O     0.83333   0.20488   0.90489   0.00000  Uiso   1.00
O754   O     0.83334   0.12845   0.76178   0.00000  Uiso   1.00
Zn755  Zn    0.83333   0.21771   0.83333   0.00000  Uiso   1.00
Zn756  Zn    0.83333   0.11563   0.83333   0.00000  Uiso   1.00
C757   C     0.08695   0.50000   0.83802   0.00000  Uiso   1.00
C758   C     0.02085   0.54106   0.84035   0.00000  Uiso   1.00
C759   C     0.29083   0.50000   0.82412   0.00000  Uiso   1.00
C760   C     0.04250   0.50000   0.84255   0.00000  Uiso   1.00
C761   C     0.19214   0.35725   0.86672   0.00000  Uiso   1.00
C762   C     0.14119   0.64275   0.79995   0.00000  Uiso   1.00
C763   C     0.14119   0.35725   0.79995   0.00000  Uiso   1.00
C764   C     0.19214   0.64275   0.86672   0.00000  Uiso   1.00
C765   C     0.24639   0.50000   0.82865   0.00000  Uiso   1.00
C766   C     0.16660   0.50000   0.73965   0.00000  Uiso   1.00
C767   C     0.16673   0.50000   0.92701   0.00000  Uiso   1.00
C768   C     0.16665   0.50000   0.68850   0.00000  Uiso   1.00
C769   C     0.16669   0.50000   0.97817   0.00000  Uiso   1.00
C770   C     0.02085   0.45894   0.84035   0.00000  Uiso   1.00
C771   C     0.31248   0.54106   0.82632   0.00000  Uiso   1.00
C772   C     0.31248   0.45894   0.82631   0.00000  Uiso   1.00
Cl773  Cl    0.04340   0.40724   0.86064   0.00000  Uiso   1.00
Cl774  Cl    0.28993   0.59276   0.80602   0.00000  Uiso   1.00
Cl775  Cl    0.28993   0.40725   0.80601   0.00000  Uiso   1.00
Cl776  Cl    0.04340   0.59275   0.86066   0.00000  Uiso   1.00
I777   I     0.23259   0.39172   0.91986   0.00000  Uiso   1.00
I778   I     0.10075   0.60828   0.74681   0.00000  Uiso   1.00
I779   I     0.10075   0.39172   0.74680   0.00000  Uiso   1.00
I780   I     0.23259   0.60828   0.91986   0.00000  Uiso   1.00
N781   N     0.16667   0.61907   0.83333   0.00000  Uiso   1.00
N782   N     0.16667   0.38093   0.83333   0.00000  Uiso   1.00
O783   O     0.10559   0.53821   0.83333   0.00000  Uiso   1.00
O784   O     0.22774   0.46179   0.83334   0.00000  Uiso   1.00
O785   O     0.22774   0.53821   0.83334   0.00000  Uiso   1.00
O786   O     0.10559   0.46179   0.83333   0.00000  Uiso   1.00
O787   O     0.16667   0.53821   0.76178   0.00000  Uiso   1.00
O788   O     0.16666   0.46179   0.90489   0.00000  Uiso   1.00
O789   O     0.16666   0.53821   0.90489   0.00000  Uiso   1.00
O790   O     0.16667   0.46179   0.76178   0.00000  Uiso   1.00
Zn791  Zn    0.16667   0.55104   0.83333   0.00000  Uiso   1.00
Zn792  Zn    0.16667   0.44896   0.83333   0.00000  Uiso   1.00
C793   C     0.42028   0.50000   0.83802   0.00000  Uiso   1.00
C794   C     0.35419   0.54106   0.84035   0.00000  Uiso   1.00
C795   C     0.62417   0.50000   0.82412   0.00000  Uiso   1.00
C796   C     0.37583   0.50000   0.84255   0.00000  Uiso   1.00
C797   C     0.52548   0.35725   0.86672   0.00000  Uiso   1.00
C798   C     0.47452   0.64275   0.79995   0.00000  Uiso   1.00
C799   C     0.47452   0.35725   0.79995   0.00000  Uiso   1.00
C800   C     0.52547   0.64275   0.86672   0.00000  Uiso   1.00
C801   C     0.57972   0.50000   0.82865   0.00000  Uiso   1.00
C802   C     0.49993   0.50000   0.73965   0.00000  Uiso   1.00
C803   C     0.50007   0.50000   0.92701   0.00000  Uiso   1.00
C804   C     0.49998   0.50000   0.68850   0.00000  Uiso   1.00
C805   C     0.50002   0.50000   0.97817   0.00000  Uiso   1.00
C806   C     0.35418   0.45894   0.84035   0.00000  Uiso   1.00
C807   C     0.64581   0.54106   0.82632   0.00000  Uiso   1.00
C808   C     0.64581   0.45894   0.82631   0.00000  Uiso   1.00
Cl809  Cl    0.37673   0.40724   0.86064   0.00000  Uiso   1.00
Cl810  Cl    0.62327   0.59276   0.80602   0.00000  Uiso   1.00
Cl811  Cl    0.62327   0.40725   0.80601   0.00000  Uiso   1.00
Cl812  Cl    0.37673   0.59275   0.86066   0.00000  Uiso   1.00
I813   I     0.56592   0.39172   0.91986   0.00000  Uiso   1.00
I814   I     0.43408   0.60828   0.74681   0.00000  Uiso   1.00
I815   I     0.43408   0.39172   0.74680   0.00000  Uiso   1.00
I816   I     0.56592   0.60828   0.91986   0.00000  Uiso   1.00
N817   N     0.50000   0.61907   0.83333   0.00000  Uiso   1.00
N818   N     0.50000   0.38093   0.83333   0.00000  Uiso   1.00
O819   O     0.43892   0.53821   0.83333   0.00000  Uiso   1.00
O820   O     0.56108   0.46179   0.83334   0.00000  Uiso   1.00
O821   O     0.56108   0.53821   0.83334   0.00000  Uiso   1.00
O822   O     0.43892   0.46179   0.83333   0.00000  Uiso   1.00
O823   O     0.50000   0.53821   0.76178   0.00000  Uiso   1.00
O824   O     0.50000   0.46179   0.90489   0.00000  Uiso   1.00
O825   O     0.50000   0.53821   0.90489   0.00000  Uiso   1.00
O826   O     0.50000   0.46179   0.76178   0.00000  Uiso   1.00
Zn827  Zn    0.50000   0.55104   0.83333   0.00000  Uiso   1.00
Zn828  Zn    0.50000   0.44896   0.83333   0.00000  Uiso   1.00
C829   C     0.75361   0.50000   0.83802   0.00000  Uiso   1.00
C830   C     0.68752   0.54106   0.84035   0.00000  Uiso   1.00
C831   C     0.95750   0.50000   0.82412   0.00000  Uiso   1.00
C832   C     0.70917   0.50000   0.84255   0.00000  Uiso   1.00
C833   C     0.85881   0.35725   0.86672   0.00000  Uiso   1.00
C834   C     0.80786   0.64275   0.79995   0.00000  Uiso   1.00
C835   C     0.80786   0.35725   0.79995   0.00000  Uiso   1.00
C836   C     0.85881   0.64275   0.86672   0.00000  Uiso   1.00
C837   C     0.91305   0.50000   0.82865   0.00000  Uiso   1.00
C838   C     0.83327   0.50000   0.73965   0.00000  Uiso   1.00
C839   C     0.83340   0.50000   0.92701   0.00000  Uiso   1.00
C840   C     0.83331   0.50000   0.68850   0.00000  Uiso   1.00
C841   C     0.83335   0.50000   0.97817   0.00000  Uiso   1.00
C842   C     0.68752   0.45894   0.84035   0.00000  Uiso   1.00
C843   C     0.97915   0.54106   0.82632   0.00000  Uiso   1.00
C844   C     0.97915   0.45894   0.82631   0.00000  Uiso   1.00
Cl845  Cl    0.71006   0.40724   0.86064   0.00000  Uiso   1.00
Cl846  Cl    0.95660   0.59276   0.80602   0.00000  Uiso   1.00
Cl847  Cl    0.95660   0.40725   0.80601   0.00000  Uiso   1.00
Cl848  Cl    0.71007   0.59275   0.86066   0.00000  Uiso   1.00
I849   I     0.89925   0.39172   0.91986   0.00000  Uiso   1.00
I850   I     0.76741   0.60828   0.74681   0.00000  Uiso   1.00
I851   I     0.76741   0.39172   0.74680   0.00000  Uiso   1.00
I852   I     0.89925   0.60828   0.91986   0.00000  Uiso   1.00
N853   N     0.83333   0.61907   0.83333   0.00000  Uiso   1.00
N854   N     0.83333   0.38093   0.83333   0.00000  Uiso   1.00
O855   O     0.77226   0.53821   0.83333   0.00000  Uiso   1.00
O856   O     0.89441   0.46179   0.83334   0.00000  Uiso   1.00
O857   O     0.89441   0.53821   0.83334   0.00000  Uiso   1.00
O858   O     0.77226   0.46179   0.83333   0.00000  Uiso   1.00
O859   O     0.83334   0.53821   0.76178   0.00000  Uiso   1.00
O860   O     0.83333   0.46179   0.90489   0.00000  Uiso   1.00
O861   O     0.83333   0.53821   0.90489   0.00000  Uiso   1.00
O862   O     0.83334   0.46179   0.76178   0.00000  Uiso   1.00
Zn863  Zn    0.83333   0.55104   0.83333   0.00000  Uiso   1.00
Zn864  Zn    0.83333   0.44896   0.83333   0.00000  Uiso   1.00
C865   C     0.08695   0.83333   0.83802   0.00000  Uiso   1.00
C866   C     0.02085   0.87439   0.84035   0.00000  Uiso   1.00
C867   C     0.29083   0.83333   0.82412   0.00000  Uiso   1.00
C868   C     0.04250   0.83333   0.84255   0.00000  Uiso   1.00
C869   C     0.19214   0.69058   0.86672   0.00000  Uiso   1.00
C870   C     0.14119   0.97608   0.79995   0.00000  Uiso   1.00
C871   C     0.14119   0.69058   0.79995   0.00000  Uiso   1.00
C872   C     0.19214   0.97608   0.86672   0.00000  Uiso   1.00
C873   C     0.24639   0.83333   0.82865   0.00000  Uiso   1.00
C874   C     0.16660   0.83333   0.73965   0.00000  Uiso   1.00
C875   C     0.16673   0.83333   0.92701   0.00000  Uiso   1.00
C876   C     0.16665   0.83333   0.68850   0.00000  Uiso   1.00
C877   C     0.16669   0.83333   0.97817   0.00000  Uiso   1.00
C878   C     0.02085   0.79227   0.84035   0.00000  Uiso   1.00
C879   C     0.31248   0.87439   0.82632   0.00000  Uiso   1.00
C880   C     0.31248   0.79227   0.82631   0.00000  Uiso   1.00
Cl881  Cl    0.04340   0.74057   0.86064   0.00000  Uiso   1.00
Cl882  Cl    0.28993   0.92609   0.80602   0.00000  Uiso   1.00
Cl883  Cl    0.28993   0.74058   0.80601   0.00000  Uiso   1.00
Cl884  Cl    0.04340   0.92609   0.86066   0.00000  Uiso   1.00
I885   I     0.23259   0.72506   0.91986   0.00000  Uiso   1.00
I886   I     0.10075   0.94161   0.74681   0.00000  Uiso   1.00
I887   I     0.10075   0.72506   0.74680   0.00000  Uiso   1.00
I888   I     0.23259   0.94161   0.91986   0.00000  Uiso   1.00
N889   N     0.16667   0.95240   0.83333   0.00000  Uiso   1.00
N890   N     0.16667   0.71427   0.83333   0.00000  Uiso   1.00
O891   O     0.10559   0.87154   0.83333   0.00000  Uiso   1.00
O892   O     0.22774   0.79513   0.83334   0.00000  Uiso   1.00
O893   O     0.22774   0.87154   0.83334   0.00000  Uiso   1.00
O894   O     0.10559   0.79513   0.83333   0.00000  Uiso   1.00
O895   O     0.16667   0.87155   0.76178   0.00000  Uiso   1.00
O896   O     0.16666   0.79512   0.90489   0.00000  Uiso   1.00
O897   O     0.16666   0.87155   0.90489   0.00000  Uiso   1.00
O898   O     0.16667   0.79512   0.76178   0.00000  Uiso   1.00
Zn899  Zn    0.16667   0.88437   0.83333   0.00000  Uiso   1.00
Zn900  Zn    0.16667   0.78229   0.83333   0.00000  Uiso   1.00
C901   C     0.42028   0.83333   0.83802   0.00000  Uiso   1.00
C902   C     0.35419   0.87439   0.84035   0.00000  Uiso   1.00
C903   C     0.62417   0.83333   0.82412   0.00000  Uiso   1.00
C904   C     0.37583   0.83333   0.84255   0.00000  Uiso   1.00
C905   C     0.52548   0.69058   0.86672   0.00000  Uiso   1.00
C906   C     0.47452   0.97608   0.79995   0.00000  Uiso   1.00
C907   C     0.47452   0.69058   0.79995   0.00000  Uiso   1.00
C908   C     0.52547   0.97608   0.86672   0.00000  Uiso   1.00
C909   C     0.57972   0.83333   0.82865   0.00000  Uiso   1.00
C910   C     0.49993   0.83333   0.73965   0.00000  Uiso   1.00
C911   C     0.50007   0.83333   0.92701   0.00000  Uiso   1.00
C912   C     0.49998   0.83333   0.68850   0.00000  Uiso   1.00
C913   C     0.50002   0.83333   0.97817   0.00000  Uiso   1.00
C914   C     0.35418   0.79227   0.84035   0.00000  Uiso   1.00
C915   C     0.64581   0.87439   0.82632   0.00000  Uiso   1.00
C916   C     0.64581   0.79227   0.82631   0.00000  Uiso   1.00
Cl917  Cl    0.37673   0.74057   0.86064   0.00000  Uiso   1.00
Cl918  Cl    0.62327   0.92609   0.80602   0.00000  Uiso   1.00
Cl919  Cl    0.62327   0.74058   0.80601   0.00000  Uiso   1.00
Cl920  Cl    0.37673   0.92609   0.86066   0.00000  Uiso   1.00
I921   I     0.56592   0.72506   0.91986   0.00000  Uiso   1.00
I922   I     0.43408   0.94161   0.74681   0.00000  Uiso   1.00
I923   I     0.43408   0.72506   0.74680   0.00000  Uiso   1.00
I924   I     0.56592   0.94161   0.91986   0.00000  Uiso   1.00
N925   N     0.50000   0.95240   0.83333   0.00000  Uiso   1.00
N926   N     0.50000   0.71427   0.83333   0.00000  Uiso   1.00
O927   O     0.43892   0.87154   0.83333   0.00000  Uiso   1.00
O928   O     0.56108   0.79513   0.83334   0.00000  Uiso   1.00
O929   O     0.56108   0.87154   0.83334   0.00000  Uiso   1.00
O930   O     0.43892   0.79513   0.83333   0.00000  Uiso   1.00
O931   O     0.50000   0.87155   0.76178   0.00000  Uiso   1.00
O932   O     0.50000   0.79512   0.90489   0.00000  Uiso   1.00
O933   O     0.50000   0.87155   0.90489   0.00000  Uiso   1.00
O934   O     0.50000   0.79512   0.76178   0.00000  Uiso   1.00
Zn935  Zn    0.50000   0.88437   0.83333   0.00000  Uiso   1.00
Zn936  Zn    0.50000   0.78229   0.83333   0.00000  Uiso   1.00
C937   C     0.75361   0.83333   0.83802   0.00000  Uiso   1.00
C938   C     0.68752   0.87439   0.84035   0.00000  Uiso   1.00
C939   C     0.95750   0.83333   0.82412   0.00000  Uiso   1.00
C940   C     0.70917   0.83333   0.84255   0.00000  Uiso   1.00
C941   C     0.85881   0.69058   0.86672   0.00000  Uiso   1.00
C942   C     0.80786   0.97608   0.79995   0.00000  Uiso   1.00
C943   C     0.80786   0.69058   0.79995   0.00000  Uiso   1.00
C944   C     0.85881   0.97608   0.86672   0.00000  Uiso   1.00
C945   C     0.91305   0.83333   0.82865   0.00000  Uiso   1.00
C946   C     0.83327   0.83333   0.73965   0.00000  Uiso   1.00
C947   C     0.83340   0.83333   0.92701   0.00000  Uiso   1.00
C948   C     0.83331   0.83333   0.68850   0.00000  Uiso   1.00
C949   C     0.83335   0.83333   0.97817   0.00000  Uiso   1.00
C950   C     0.68752   0.79227   0.84035   0.00000  Uiso   1.00
C951   C     0.97915   0.87439   0.82632   0.00000  Uiso   1.00
C952   C     0.97915   0.79227   0.82631   0.00000  Uiso   1.00
Cl953  Cl    0.71006   0.74057   0.86064   0.00000  Uiso   1.00
Cl954  Cl    0.95660   0.92609   0.80602   0.00000  Uiso   1.00
Cl955  Cl    0.95660   0.74058   0.80601   0.00000  Uiso   1.00
Cl956  Cl    0.71007   0.92609   0.86066   0.00000  Uiso   1.00
I957   I     0.89925   0.72506   0.91986   0.00000  Uiso   1.00
I958   I     0.76741   0.94161   0.74681   0.00000  Uiso   1.00
I959   I     0.76741   0.72506   0.74680   0.00000  Uiso   1.00
I960   I     0.89925   0.94161   0.91986   0.00000  Uiso   1.00
N961   N     0.83333   0.95240   0.83333   0.00000  Uiso   1.00
N962   N     0.83333   0.71427   0.83333   0.00000  Uiso   1.00
O963   O     0.77226   0.87154   0.83333   0.00000  Uiso   1.00
O964   O     0.89441   0.79513   0.83334   0.00000  Uiso   1.00
O965   O     0.89441   0.87154   0.83334   0.00000  Uiso   1.00
O966   O     0.77226   0.79513   0.83333   0.00000  Uiso   1.00
O967   O     0.83334   0.87155   0.76178   0.00000  Uiso   1.00
O968   O     0.83333   0.79512   0.90489   0.00000  Uiso   1.00
O969   O     0.83333   0.87155   0.90489   0.00000  Uiso   1.00
O970   O     0.83334   0.79512   0.76178   0.00000  Uiso   1.00
Zn971  Zn    0.83333   0.88437   0.83333   0.00000  Uiso   1.00
Zn972  Zn    0.83333   0.78229   0.83333   0.00000  Uiso   1.00
loop_
_geom_bond_atom_site_label_1
_geom_bond_atom_site_label_2
_geom_bond_distance
_geom_bond_site_symmetry_2
_ccdc_geom_bond_type
C1     C4      1.445   .     S
C1     O30     1.298   .     A
C1     O27     1.298   .     A
C2     C4      1.410   .     A
C2     Cl20    1.778   .     S
C2     C87     1.378   1_455 S
C3     C15     1.410   .     A
C3     C9      1.445   .     S
C3     C16     1.410   .     A
C4     C14     1.410   .     A
C5     N26     1.376   .     A
C5     I21     2.141   .     S
C5     C224    1.427   1_545 S
C6     N25     1.376   .     A
C6     I22     2.141   .     S
C6     C115    1.427   .     S
C7     N26     1.376   .     A
C7     I23     2.141   .     S
C7     C222    1.427   1_545 S
C8     N25     1.376   .     A
C8     I24     2.141   .     S
C8     C113    1.427   .     S
C9     O29     1.298   .     A
C9     O28     1.298   .     A
C10    O34     1.283   .     A
C10    C12     1.364   .     S
C10    O31     1.283   .     A
C11    C13     1.364   .     S
C11    O32     1.283   .     A
C11    O33     1.283   .     A
C12    C661    1.164   1_554 S
C13    C336    1.164   .     S
C14    Cl17    1.778   .     S
C14    C88     1.378   1_455 S
C15    Cl18    1.778   .     S
C15    C38     1.378   .     S
C16    Cl19    1.778   .     S
C16    C50     1.378   .     S
N25    Zn35    2.029   .     S
N26    Zn36    2.029   .     S
O27    Zn35    2.007   .     S
O28    Zn36    2.007   .     S
O29    Zn35    2.007   .     S
O30    Zn36    2.007   .     S
O31    Zn35    1.946   .     S
O32    Zn36    1.946   .     S
O33    Zn35    1.946   .     S
O34    Zn36    1.946   .     S
C37    C40     1.445   .     S
C37    O66     1.298   .     A
C37    O63     1.298   .     A
C38    C40     1.410   .     A
C38    Cl56    1.778   .     S
C39    C51     1.410   .     A
C39    C45     1.445   .     S
C39    C52     1.410   .     A
C40    C50     1.410   .     A
C41    N62     1.376   .     A
C41    I57     2.141   .     S
C41    C260    1.427   1_545 S
C42    N61     1.376   .     A
C42    I58     2.141   .     S
C42    C151    1.427   .     S
C43    N62     1.376   .     A
C43    I59     2.141   .     S
C43    C258    1.427   1_545 S
C44    N61     1.376   .     A
C44    I60     2.141   .     S
C44    C149    1.427   .     S
C45    O65     1.298   .     A
C45    O64     1.298   .     A
C46    O70     1.283   .     A
C46    C48     1.364   .     S
C46    O67     1.283   .     A
C47    C49     1.364   .     S
C47    O68     1.283   .     A
C47    O69     1.283   .     A
C48    C697    1.164   1_554 S
C49    C372    1.164   .     S
C50    Cl53    1.778   .     S
C51    Cl54    1.778   .     S
C51    C74     1.378   .     S
C52    Cl55    1.778   .     S
C52    C86     1.378   .     S
N61    Zn71    2.029   .     S
N62    Zn72    2.029   .     S
O63    Zn71    2.007   .     S
O64    Zn72    2.007   .     S
O65    Zn71    2.007   .     S
O66    Zn72    2.007   .     S
O67    Zn71    1.946   .     S
O68    Zn72    1.946   .     S
O69    Zn71    1.946   .     S
O70    Zn72    1.946   .     S
C73    C76     1.445   .     S
C73    O102    1.298   .     A
C73    O99     1.298   .     A
C74    C76     1.410   .     A
C74    Cl92    1.778   .     S
C75    C87     1.410   .     A
C75    C81     1.445   .     S
C75    C88     1.410   .     A
C76    C86     1.410   .     A
C77    N98     1.376   .     A
C77    I93     2.141   .     S
C77    C296    1.427   1_545 S
C78    N97     1.376   .     A
C78    I94     2.141   .     S
C78    C187    1.427   .     S
C79    N98     1.376   .     A
C79    I95     2.141   .     S
C79    C294    1.427   1_545 S
C80    N97     1.376   .     A
C80    I96     2.141   .     S
C80    C185    1.427   .     S
C81    O101    1.298   .     A
C81    O100    1.298   .     A
C82    O106    1.283   .     A
C82    C84     1.364   .     S
C82    O103    1.283   .     A
C83    C85     1.364   .     S
C83    O104    1.283   .     A
C83    O105    1.283   .     A
C84    C733    1.164   1_554 S
C85    C408    1.164   .     S
C86    Cl89    1.778   .     S
C87    Cl90    1.778   .     S
C87    C2      1.378   1_655 S
C88    Cl91    1.778   .     S
C88    C14     1.378   1_655 S
N97    Zn107   2.029   .     S
N98    Zn108   2.029   .     S
O99    Zn107   2.007   .     S
O100   Zn108   2.007   .     S
O101   Zn107   2.007   .     S
O102   Zn108   2.007   .     S
O103   Zn107   1.946   .     S
O104   Zn108   1.946   .     S
O105   Zn107   1.946   .     S
O106   Zn108   1.946   .     S
C109   C112    1.445   .     S
C109   O138    1.298   .     A
C109   O135    1.298   .     A
C110   C112    1.410   .     A
C110   Cl128   1.778   .     S
C110   C195    1.378   1_455 S
C111   C123    1.410   .     A
C111   C117    1.445   .     S
C111   C124    1.410   .     A
C112   C122    1.410   .     A
C113   N134    1.376   .     A
C113   I129    2.141   .     S
C114   N133    1.376   .     A
C114   I130    2.141   .     S
C114   C223    1.427   .     S
C115   N134    1.376   .     A
C115   I131    2.141   .     S
C116   N133    1.376   .     A
C116   I132    2.141   .     S
C116   C221    1.427   .     S
C117   O137    1.298   .     A
C117   O136    1.298   .     A
C118   O142    1.283   .     A
C118   C120    1.364   .     S
C118   O139    1.283   .     A
C119   C121    1.364   .     S
C119   O140    1.283   .     A
C119   O141    1.283   .     A
C120   C769    1.164   1_554 S
C121   C444    1.164   .     S
C122   Cl125   1.778   .     S
C122   C196    1.378   1_455 S
C123   Cl126   1.778   .     S
C123   C146    1.378   .     S
C124   Cl127   1.778   .     S
C124   C158    1.378   .     S
N133   Zn143   2.029   .     S
N134   Zn144   2.029   .     S
O135   Zn143   2.007   .     S
O136   Zn144   2.007   .     S
O137   Zn143   2.007   .     S
O138   Zn144   2.007   .     S
O139   Zn143   1.946   .     S
O140   Zn144   1.946   .     S
O141   Zn143   1.946   .     S
O142   Zn144   1.946   .     S
C145   C148    1.445   .     S
C145   O174    1.298   .     A
C145   O171    1.298   .     A
C146   C148    1.410   .     A
C146   Cl164   1.778   .     S
C147   C159    1.410   .     A
C147   C153    1.445   .     S
C147   C160    1.410   .     A
C148   C158    1.410   .     A
C149   N170    1.376   .     A
C149   I165    2.141   .     S
C150   N169    1.376   .     A
C150   I166    2.141   .     S
C150   C259    1.427   .     S
C151   N170    1.376   .     A
C151   I167    2.141   .     S
C152   N169    1.376   .     A
C152   I168    2.141   .     S
C152   C257    1.427   .     S
C153   O173    1.298   .     A
C153   O172    1.298   .     A
C154   O178    1.283   .     A
C154   C156    1.364   .     S
C154   O175    1.283   .     A
C155   C157    1.364   .     S
C155   O176    1.283   .     A
C155   O177    1.283   .     A
C156   C805    1.164   1_554 S
C157   C480    1.164   .     S
C158   Cl161   1.778   .     S
C159   Cl162   1.778   .     S
C159   C182    1.378   .     S
C160   Cl163   1.778   .     S
C160   C194    1.378   .     S
N169   Zn179   2.029   .     S
N170   Zn180   2.029   .     S
O171   Zn179   2.007   .     S
O172   Zn180   2.007   .     S
O173   Zn179   2.007   .     S
O174   Zn180   2.007   .     S
O175   Zn179   1.946   .     S
O176   Zn180   1.946   .     S
O177   Zn179   1.946   .     S
O178   Zn180   1.946   .     S
C181   C184    1.445   .     S
C181   O210    1.298   .     A
C181   O207    1.298   .     A
C182   C184    1.410   .     A
C182   Cl200   1.778   .     S
C183   C195    1.410   .     A
C183   C189    1.445   .     S
C183   C196    1.410   .     A
C184   C194    1.410   .     A
C185   N206    1.376   .     A
C185   I201    2.141   .     S
C186   N205    1.376   .     A
C186   I202    2.141   .     S
C186   C295    1.427   .     S
C187   N206    1.376   .     A
C187   I203    2.141   .     S
C188   N205    1.376   .     A
C188   I204    2.141   .     S
C188   C293    1.427   .     S
C189   O209    1.298   .     A
C189   O208    1.298   .     A
C190   O214    1.283   .     A
C190   C192    1.364   .     S
C190   O211    1.283   .     A
C191   C193    1.364   .     S
C191   O212    1.283   .     A
C191   O213    1.283   .     A
C192   C841    1.164   1_554 S
C193   C516    1.164   .     S
C194   Cl197   1.778   .     S
C195   Cl198   1.778   .     S
C195   C110    1.378   1_655 S
C196   Cl199   1.778   .     S
C196   C122    1.378   1_655 S
N205   Zn215   2.029   .     S
N206   Zn216   2.029   .     S
O207   Zn215   2.007   .     S
O208   Zn216   2.007   .     S
O209   Zn215   2.007   .     S
O210   Zn216   2.007   .     S
O211   Zn215   1.946   .     S
O212   Zn216   1.946   .     S
O213   Zn215   1.946   .     S
O214   Zn216   1.946   .     S
C217   C220    1.445   .     S
C217   O246    1.298   .     A
C217   O243    1.298   .     A
C218   C220    1.410   .     A
C218   Cl236   1.778   .     S
C218   C303    1.378   1_455 S
C219   C231    1.410   .     A
C219   C225    1.445   .     S
C219   C232    1.410   .     A
C220   C230    1.410   .     A
C221   N242    1.376   .     A
C221   I237    2.141   .     S
C222   N241    1.376   .     A
C222   I238    2.141   .     S
C222   C7      1.427   1_565 S
C223   N242    1.376   .     A
C223   I239    2.141   .     S
C224   N241    1.376   .     A
C224   I240    2.141   .     S
C224   C5      1.427   1_565 S
C225   O245    1.298   .     A
C225   O244    1.298   .     A
C226   O250    1.283   .     A
C226   C228    1.364   .     S
C226   O247    1.283   .     A
C227   C229    1.364   .     S
C227   O248    1.283   .     A
C227   O249    1.283   .     A
C228   C877    1.164   1_554 S
C229   C552    1.164   .     S
C230   Cl233   1.778   .     S
C230   C304    1.378   1_455 S
C231   Cl234   1.778   .     S
C231   C254    1.378   .     S
C232   Cl235   1.778   .     S
C232   C266    1.378   .     S
N241   Zn251   2.029   .     S
N242   Zn252   2.029   .     S
O243   Zn251   2.007   .     S
O244   Zn252   2.007   .     S
O245   Zn251   2.007   .     S
O246   Zn252   2.007   .     S
O247   Zn251   1.946   .     S
O248   Zn252   1.946   .     S
O249   Zn251   1.946   .     S
O250   Zn252   1.946   .     S
C253   C256    1.445   .     S
C253   O282    1.298   .     A
C253   O279    1.298   .     A
C254   C256    1.410   .     A
C254   Cl272   1.778   .     S
C255   C267    1.410   .     A
C255   C261    1.445   .     S
C255   C268    1.410   .     A
C256   C266    1.410   .     A
C257   N278    1.376   .     A
C257   I273    2.141   .     S
C258   N277    1.376   .     A
C258   I274    2.141   .     S
C258   C43     1.427   1_565 S
C259   N278    1.376   .     A
C259   I275    2.141   .     S
C260   N277    1.376   .     A
C260   I276    2.141   .     S
C260   C41     1.427   1_565 S
C261   O281    1.298   .     A
C261   O280    1.298   .     A
C262   O286    1.283   .     A
C262   C264    1.364   .     S
C262   O283    1.283   .     A
C263   C265    1.364   .     S
C263   O284    1.283   .     A
C263   O285    1.283   .     A
C264   C913    1.164   1_554 S
C265   C588    1.164   .     S
C266   Cl269   1.778   .     S
C267   Cl270   1.778   .     S
C267   C290    1.378   .     S
C268   Cl271   1.778   .     S
C268   C302    1.378   .     S
N277   Zn287   2.029   .     S
N278   Zn288   2.029   .     S
O279   Zn287   2.007   .     S
O280   Zn288   2.007   .     S
O281   Zn287   2.007   .     S
O282   Zn288   2.007   .     S
O283   Zn287   1.946   .     S
O284   Zn288   1.946   .     S
O285   Zn287   1.946   .     S
O286   Zn288   1.946   .     S
C289   C292    1.445   .     S
C289   O318    1.298   .     A
C289   O315    1.298   .     A
C290   C292    1.410   .     A
C290   Cl308   1.778   .     S
C291   C303    1.410   .     A
C291   C297    1.445   .     S
C291   C304    1.410   .     A
C292   C302    1.410   .     A
C293   N314    1.376   .     A
C293   I309    2.141   .     S
C294   N313    1.376   .     A
C294   I310    2.141   .     S
C294   C79     1.427   1_565 S
C295   N314    1.376   .     A
C295   I311    2.141   .     S
C296   N313    1.376   .     A
C296   I312    2.141   .     S
C296   C77     1.427   1_565 S
C297   O317    1.298   .     A
C297   O316    1.298   .     A
C298   O322    1.283   .     A
C298   C300    1.364   .     S
C298   O319    1.283   .     A
C299   C301    1.364   .     S
C299   O320    1.283   .     A
C299   O321    1.283   .     A
C300   C949    1.164   1_554 S
C301   C624    1.164   .     S
C302   Cl305   1.778   .     S
C303   Cl306   1.778   .     S
C303   C218    1.378   1_655 S
C304   Cl307   1.778   .     S
C304   C230    1.378   1_655 S
N313   Zn323   2.029   .     S
N314   Zn324   2.029   .     S
O315   Zn323   2.007   .     S
O316   Zn324   2.007   .     S
O317   Zn323   2.007   .     S
O318   Zn324   2.007   .     S
O319   Zn323   1.946   .     S
O320   Zn324   1.946   .     S
O321   Zn323   1.946   .     S
O322   Zn324   1.946   .     S
C325   C328    1.445   .     S
C325   O354    1.298   .     A
C325   O351    1.298   .     A
C326   C328    1.410   .     A
C326   Cl344   1.778   .     S
C326   C411    1.378   1_455 S
C327   C339    1.410   .     A
C327   C333    1.445   .     S
C327   C340    1.410   .     A
C328   C338    1.410   .     A
C329   N350    1.376   .     A
C329   I345    2.141   .     S
C329   C548    1.427   1_545 S
C330   N349    1.376   .     A
C330   I346    2.141   .     S
C330   C439    1.427   .     S
C331   N350    1.376   .     A
C331   I347    2.141   .     S
C331   C546    1.427   1_545 S
C332   N349    1.376   .     A
C332   I348    2.141   .     S
C332   C437    1.427   .     S
C333   O353    1.298   .     A
C333   O352    1.298   .     A
C334   O358    1.283   .     A
C334   C336    1.364   .     S
C334   O355    1.283   .     A
C335   C337    1.364   .     S
C335   O356    1.283   .     A
C335   O357    1.283   .     A
C337   C660    1.164   .     S
C338   Cl341   1.778   .     S
C338   C412    1.378   1_455 S
C339   Cl342   1.778   .     S
C339   C362    1.378   .     S
C340   Cl343   1.778   .     S
C340   C374    1.378   .     S
N349   Zn359   2.029   .     S
N350   Zn360   2.029   .     S
O351   Zn359   2.007   .     S
O352   Zn360   2.007   .     S
O353   Zn359   2.007   .     S
O354   Zn360   2.007   .     S
O355   Zn359   1.946   .     S
O356   Zn360   1.946   .     S
O357   Zn359   1.946   .     S
O358   Zn360   1.946   .     S
C361   C364    1.445   .     S
C361   O390    1.298   .     A
C361   O387    1.298   .     A
C362   C364    1.410   .     A
C362   Cl380   1.778   .     S
C363   C375    1.410   .     A
C363   C369    1.445   .     S
C363   C376    1.410   .     A
C364   C374    1.410   .     A
C365   N386    1.376   .     A
C365   I381    2.141   .     S
C365   C584    1.427   1_545 S
C366   N385    1.376   .     A
C366   I382    2.141   .     S
C366   C475    1.427   .     S
C367   N386    1.376   .     A
C367   I383    2.141   .     S
C367   C582    1.427   1_545 S
C368   N385    1.376   .     A
C368   I384    2.141   .     S
C368   C473    1.427   .     S
C369   O389    1.298   .     A
C369   O388    1.298   .     A
C370   O394    1.283   .     A
C370   C372    1.364   .     S
C370   O391    1.283   .     A
C371   C373    1.364   .     S
C371   O392    1.283   .     A
C371   O393    1.283   .     A
C373   C696    1.164   .     S
C374   Cl377   1.778   .     S
C375   Cl378   1.778   .     S
C375   C398    1.378   .     S
C376   Cl379   1.778   .     S
C376   C410    1.378   .     S
N385   Zn395   2.029   .     S
N386   Zn396   2.029   .     S
O387   Zn395   2.007   .     S
O388   Zn396   2.007   .     S
O389   Zn395   2.007   .     S
O390   Zn396   2.007   .     S
O391   Zn395   1.946   .     S
O392   Zn396   1.946   .     S
O393   Zn395   1.946   .     S
O394   Zn396   1.946   .     S
C397   C400    1.445   .     S
C397   O426    1.298   .     A
C397   O423    1.298   .     A
C398   C400    1.410   .     A
C398   Cl416   1.778   .     S
C399   C411    1.410   .     A
C399   C405    1.445   .     S
C399   C412    1.410   .     A
C400   C410    1.410   .     A
C401   N422    1.376   .     A
C401   I417    2.141   .     S
C401   C620    1.427   1_545 S
C402   N421    1.376   .     A
C402   I418    2.141   .     S
C402   C511    1.427   .     S
C403   N422    1.376   .     A
C403   I419    2.141   .     S
C403   C618    1.427   1_545 S
C404   N421    1.376   .     A
C404   I420    2.141   .     S
C404   C509    1.427   .     S
C405   O425    1.298   .     A
C405   O424    1.298   .     A
C406   O430    1.283   .     A
C406   C408    1.364   .     S
C406   O427    1.283   .     A
C407   C409    1.364   .     S
C407   O428    1.283   .     A
C407   O429    1.283   .     A
C409   C732    1.164   .     S
C410   Cl413   1.778   .     S
C411   Cl414   1.778   .     S
C411   C326    1.378   1_655 S
C412   Cl415   1.778   .     S
C412   C338    1.378   1_655 S
N421   Zn431   2.029   .     S
N422   Zn432   2.029   .     S
O423   Zn431   2.007   .     S
O424   Zn432   2.007   .     S
O425   Zn431   2.007   .     S
O426   Zn432   2.007   .     S
O427   Zn431   1.946   .     S
O428   Zn432   1.946   .     S
O429   Zn431   1.946   .     S
O430   Zn432   1.946   .     S
C433   C436    1.445   .     S
C433   O462    1.298   .     A
C433   O459    1.298   .     A
C434   C436    1.410   .     A
C434   Cl452   1.778   .     S
C434   C519    1.378   1_455 S
C435   C447    1.410   .     A
C435   C441    1.445   .     S
C435   C448    1.410   .     A
C436   C446    1.410   .     A
C437   N458    1.376   .     A
C437   I453    2.141   .     S
C438   N457    1.376   .     A
C438   I454    2.141   .     S
C438   C547    1.427   .     S
C439   N458    1.376   .     A
C439   I455    2.141   .     S
C440   N457    1.376   .     A
C440   I456    2.141   .     S
C440   C545    1.427   .     S
C441   O461    1.298   .     A
C441   O460    1.298   .     A
C442   O466    1.283   .     A
C442   C444    1.364   .     S
C442   O463    1.283   .     A
C443   C445    1.364   .     S
C443   O464    1.283   .     A
C443   O465    1.283   .     A
C445   C768    1.164   .     S
C446   Cl449   1.778   .     S
C446   C520    1.378   1_455 S
C447   Cl450   1.778   .     S
C447   C470    1.378   .     S
C448   Cl451   1.778   .     S
C448   C482    1.378   .     S
N457   Zn467   2.029   .     S
N458   Zn468   2.029   .     S
O459   Zn467   2.007   .     S
O460   Zn468   2.007   .     S
O461   Zn467   2.007   .     S
O462   Zn468   2.007   .     S
O463   Zn467   1.946   .     S
O464   Zn468   1.946   .     S
O465   Zn467   1.946   .     S
O466   Zn468   1.946   .     S
C469   C472    1.445   .     S
C469   O498    1.298   .     A
C469   O495    1.298   .     A
C470   C472    1.410   .     A
C470   Cl488   1.778   .     S
C471   C483    1.410   .     A
C471   C477    1.445   .     S
C471   C484    1.410   .     A
C472   C482    1.410   .     A
C473   N494    1.376   .     A
C473   I489    2.141   .     S
C474   N493    1.376   .     A
C474   I490    2.141   .     S
C474   C583    1.427   .     S
C475   N494    1.376   .     A
C475   I491    2.141   .     S
C476   N493    1.376   .     A
C476   I492    2.141   .     S
C476   C581    1.427   .     S
C477   O497    1.298   .     A
C477   O496    1.298   .     A
C478   O502    1.283   .     A
C478   C480    1.364   .     S
C478   O499    1.283   .     A
C479   C481    1.364   .     S
C479   O500    1.283   .     A
C479   O501    1.283   .     A
C481   C804    1.164   .     S
C482   Cl485   1.778   .     S
C483   Cl486   1.778   .     S
C483   C506    1.378   .     S
C484   Cl487   1.778   .     S
C484   C518    1.378   .     S
N493   Zn503   2.029   .     S
N494   Zn504   2.029   .     S
O495   Zn503   2.007   .     S
O496   Zn504   2.007   .     S
O497   Zn503   2.007   .     S
O498   Zn504   2.007   .     S
O499   Zn503   1.946   .     S
O500   Zn504   1.946   .     S
O501   Zn503   1.946   .     S
O502   Zn504   1.946   .     S
C505   C508    1.445   .     S
C505   O534    1.298   .     A
C505   O531    1.298   .     A
C506   C508    1.410   .     A
C506   Cl524   1.778   .     S
C507   C519    1.410   .     A
C507   C513    1.445   .     S
C507   C520    1.410   .     A
C508   C518    1.410   .     A
C509   N530    1.376   .     A
C509   I525    2.141   .     S
C510   N529    1.376   .     A
C510   I526    2.141   .     S
C510   C619    1.427   .     S
C511   N530    1.376   .     A
C511   I527    2.141   .     S
C512   N529    1.376   .     A
C512   I528    2.141   .     S
C512   C617    1.427   .     S
C513   O533    1.298   .     A
C513   O532    1.298   .     A
C514   O538    1.283   .     A
C514   C516    1.364   .     S
C514   O535    1.283   .     A
C515   C517    1.364   .     S
C515   O536    1.283   .     A
C515   O537    1.283   .     A
C517   C840    1.164   .     S
C518   Cl521   1.778   .     S
C519   Cl522   1.778   .     S
C519   C434    1.378   1_655 S
C520   Cl523   1.778   .     S
C520   C446    1.378   1_655 S
N529   Zn539   2.029   .     S
N530   Zn540   2.029   .     S
O531   Zn539   2.007   .     S
O532   Zn540   2.007   .     S
O533   Zn539   2.007   .     S
O534   Zn540   2.007   .     S
O535   Zn539   1.946   .     S
O536   Zn540   1.946   .     S
O537   Zn539   1.946   .     S
O538   Zn540   1.946   .     S
C541   C544    1.445   .     S
C541   O570    1.298   .     A
C541   O567    1.298   .     A
C542   C544    1.410   .     A
C542   Cl560   1.778   .     S
C542   C627    1.378   1_455 S
C543   C555    1.410   .     A
C543   C549    1.445   .     S
C543   C556    1.410   .     A
C544   C554    1.410   .     A
C545   N566    1.376   .     A
C545   I561    2.141   .     S
C546   N565    1.376   .     A
C546   I562    2.141   .     S
C546   C331    1.427   1_565 S
C547   N566    1.376   .     A
C547   I563    2.141   .     S
C548   N565    1.376   .     A
C548   I564    2.141   .     S
C548   C329    1.427   1_565 S
C549   O569    1.298   .     A
C549   O568    1.298   .     A
C550   O574    1.283   .     A
C550   C552    1.364   .     S
C550   O571    1.283   .     A
C551   C553    1.364   .     S
C551   O572    1.283   .     A
C551   O573    1.283   .     A
C553   C876    1.164   .     S
C554   Cl557   1.778   .     S
C554   C628    1.378   1_455 S
C555   Cl558   1.778   .     S
C555   C578    1.378   .     S
C556   Cl559   1.778   .     S
C556   C590    1.378   .     S
N565   Zn575   2.029   .     S
N566   Zn576   2.029   .     S
O567   Zn575   2.007   .     S
O568   Zn576   2.007   .     S
O569   Zn575   2.007   .     S
O570   Zn576   2.007   .     S
O571   Zn575   1.946   .     S
O572   Zn576   1.946   .     S
O573   Zn575   1.946   .     S
O574   Zn576   1.946   .     S
C577   C580    1.445   .     S
C577   O606    1.298   .     A
C577   O603    1.298   .     A
C578   C580    1.410   .     A
C578   Cl596   1.778   .     S
C579   C591    1.410   .     A
C579   C585    1.445   .     S
C579   C592    1.410   .     A
C580   C590    1.410   .     A
C581   N602    1.376   .     A
C581   I597    2.141   .     S
C582   N601    1.376   .     A
C582   I598    2.141   .     S
C582   C367    1.427   1_565 S
C583   N602    1.376   .     A
C583   I599    2.141   .     S
C584   N601    1.376   .     A
C584   I600    2.141   .     S
C584   C365    1.427   1_565 S
C585   O605    1.298   .     A
C585   O604    1.298   .     A
C586   O610    1.283   .     A
C586   C588    1.364   .     S
C586   O607    1.283   .     A
C587   C589    1.364   .     S
C587   O608    1.283   .     A
C587   O609    1.283   .     A
C589   C912    1.164   .     S
C590   Cl593   1.778   .     S
C591   Cl594   1.778   .     S
C591   C614    1.378   .     S
C592   Cl595   1.778   .     S
C592   C626    1.378   .     S
N601   Zn611   2.029   .     S
N602   Zn612   2.029   .     S
O603   Zn611   2.007   .     S
O604   Zn612   2.007   .     S
O605   Zn611   2.007   .     S
O606   Zn612   2.007   .     S
O607   Zn611   1.946   .     S
O608   Zn612   1.946   .     S
O609   Zn611   1.946   .     S
O610   Zn612   1.946   .     S
C613   C616    1.445   .     S
C613   O642    1.298   .     A
C613   O639    1.298   .     A
C614   C616    1.410   .     A
C614   Cl632   1.778   .     S
C615   C627    1.410   .     A
C615   C621    1.445   .     S
C615   C628    1.410   .     A
C616   C626    1.410   .     A
C617   N638    1.376   .     A
C617   I633    2.141   .     S
C618   N637    1.376   .     A
C618   I634    2.141   .     S
C618   C403    1.427   1_565 S
C619   N638    1.376   .     A
C619   I635    2.141   .     S
C620   N637    1.376   .     A
C620   I636    2.141   .     S
C620   C401    1.427   1_565 S
C621   O641    1.298   .     A
C621   O640    1.298   .     A
C622   O646    1.283   .     A
C622   C624    1.364   .     S
C622   O643    1.283   .     A
C623   C625    1.364   .     S
C623   O644    1.283   .     A
C623   O645    1.283   .     A
C625   C948    1.164   .     S
C626   Cl629   1.778   .     S
C627   Cl630   1.778   .     S
C627   C542    1.378   1_655 S
C628   Cl631   1.778   .     S
C628   C554    1.378   1_655 S
N637   Zn647   2.029   .     S
N638   Zn648   2.029   .     S
O639   Zn647   2.007   .     S
O640   Zn648   2.007   .     S
O641   Zn647   2.007   .     S
O642   Zn648   2.007   .     S
O643   Zn647   1.946   .     S
O644   Zn648   1.946   .     S
O645   Zn647   1.946   .     S
O646   Zn648   1.946   .     S
C649   C652    1.445   .     S
C649   O678    1.298   .     A
C649   O675    1.298   .     A
C650   C652    1.410   .     A
C650   Cl668   1.778   .     S
C650   C735    1.378   1_455 S
C651   C663    1.410   .     A
C651   C657    1.445   .     S
C651   C664    1.410   .     A
C652   C662    1.410   .     A
C653   N674    1.376   .     A
C653   I669    2.141   .     S
C653   C872    1.427   1_545 S
C654   N673    1.376   .     A
C654   I670    2.141   .     S
C654   C763    1.427   .     S
C655   N674    1.376   .     A
C655   I671    2.141   .     S
C655   C870    1.427   1_545 S
C656   N673    1.376   .     A
C656   I672    2.141   .     S
C656   C761    1.427   .     S
C657   O677    1.298   .     A
C657   O676    1.298   .     A
C658   O682    1.283   .     A
C658   C660    1.364   .     S
C658   O679    1.283   .     A
C659   C661    1.364   .     S
C659   O680    1.283   .     A
C659   O681    1.283   .     A
C661   C12     1.164   1_556 S
C662   Cl665   1.778   .     S
C662   C736    1.378   1_455 S
C663   Cl666   1.778   .     S
C663   C686    1.378   .     S
C664   Cl667   1.778   .     S
C664   C698    1.378   .     S
N673   Zn683   2.029   .     S
N674   Zn684   2.029   .     S
O675   Zn683   2.007   .     S
O676   Zn684   2.007   .     S
O677   Zn683   2.007   .     S
O678   Zn684   2.007   .     S
O679   Zn683   1.946   .     S
O680   Zn684   1.946   .     S
O681   Zn683   1.946   .     S
O682   Zn684   1.946   .     S
C685   C688    1.445   .     S
C685   O714    1.298   .     A
C685   O711    1.298   .     A
C686   C688    1.410   .     A
C686   Cl704   1.778   .     S
C687   C699    1.410   .     A
C687   C693    1.445   .     S
C687   C700    1.410   .     A
C688   C698    1.410   .     A
C689   N710    1.376   .     A
C689   I705    2.141   .     S
C689   C908    1.427   1_545 S
C690   N709    1.376   .     A
C690   I706    2.141   .     S
C690   C799    1.427   .     S
C691   N710    1.376   .     A
C691   I707    2.141   .     S
C691   C906    1.427   1_545 S
C692   N709    1.376   .     A
C692   I708    2.141   .     S
C692   C797    1.427   .     S
C693   O713    1.298   .     A
C693   O712    1.298   .     A
C694   O718    1.283   .     A
C694   C696    1.364   .     S
C694   O715    1.283   .     A
C695   C697    1.364   .     S
C695   O716    1.283   .     A
C695   O717    1.283   .     A
C697   C48     1.164   1_556 S
C698   Cl701   1.778   .     S
C699   Cl702   1.778   .     S
C699   C722    1.378   .     S
C700   Cl703   1.778   .     S
C700   C734    1.378   .     S
N709   Zn719   2.029   .     S
N710   Zn720   2.029   .     S
O711   Zn719   2.007   .     S
O712   Zn720   2.007   .     S
O713   Zn719   2.007   .     S
O714   Zn720   2.007   .     S
O715   Zn719   1.946   .     S
O716   Zn720   1.946   .     S
O717   Zn719   1.946   .     S
O718   Zn720   1.946   .     S
C721   C724    1.445   .     S
C721   O750    1.298   .     A
C721   O747    1.298   .     A
C722   C724    1.410   .     A
C722   Cl740   1.778   .     S
C723   C735    1.410   .     A
C723   C729    1.445   .     S
C723   C736    1.410   .     A
C724   C734    1.410   .     A
C725   N746    1.376   .     A
C725   I741    2.141   .     S
C725   C944    1.427   1_545 S
C726   N745    1.376   .     A
C726   I742    2.141   .     S
C726   C835    1.427   .     S
C727   N746    1.376   .     A
C727   I743    2.141   .     S
C727   C942    1.427   1_545 S
C728   N745    1.376   .     A
C728   I744    2.141   .     S
C728   C833    1.427   .     S
C729   O749    1.298   .     A
C729   O748    1.298   .     A
C730   O754    1.283   .     A
C730   C732    1.364   .     S
C730   O751    1.283   .     A
C731   C733    1.364   .     S
C731   O752    1.283   .     A
C731   O753    1.283   .     A
C733   C84     1.164   1_556 S
C734   Cl737   1.778   .     S
C735   Cl738   1.778   .     S
C735   C650    1.378   1_655 S
C736   Cl739   1.778   .     S
C736   C662    1.378   1_655 S
N745   Zn755   2.029   .     S
N746   Zn756   2.029   .     S
O747   Zn755   2.007   .     S
O748   Zn756   2.007   .     S
O749   Zn755   2.007   .     S
O750   Zn756   2.007   .     S
O751   Zn755   1.946   .     S
O752   Zn756   1.946   .     S
O753   Zn755   1.946   .     S
O754   Zn756   1.946   .     S
C757   C760    1.445   .     S
C757   O786    1.298   .     A
C757   O783    1.298   .     A
C758   C760    1.410   .     A
C758   Cl776   1.778   .     S
C758   C843    1.378   1_455 S
C759   C771    1.410   .     A
C759   C765    1.445   .     S
C759   C772    1.410   .     A
C760   C770    1.410   .     A
C761   N782    1.376   .     A
C761   I777    2.141   .     S
C762   N781    1.376   .     A
C762   I778    2.141   .     S
C762   C871    1.427   .     S
C763   N782    1.376   .     A
C763   I779    2.141   .     S
C764   N781    1.376   .     A
C764   I780    2.141   .     S
C764   C869    1.427   .     S
C765   O785    1.298   .     A
C765   O784    1.298   .     A
C766   O790    1.283   .     A
C766   C768    1.364   .     S
C766   O787    1.283   .     A
C767   C769    1.364   .     S
C767   O788    1.283   .     A
C767   O789    1.283   .     A
C769   C120    1.164   1_556 S
C770   Cl773   1.778   .     S
C770   C844    1.378   1_455 S
C771   Cl774   1.778   .     S
C771   C794    1.378   .     S
C772   Cl775   1.778   .     S
C772   C806    1.378   .     S
N781   Zn791   2.029   .     S
N782   Zn792   2.029   .     S
O783   Zn791   2.007   .     S
O784   Zn792   2.007   .     S
O785   Zn791   2.007   .     S
O786   Zn792   2.007   .     S
O787   Zn791   1.946   .     S
O788   Zn792   1.946   .     S
O789   Zn791   1.946   .     S
O790   Zn792   1.946   .     S
C793   C796    1.445   .     S
C793   O822    1.298   .     A
C793   O819    1.298   .     A
C794   C796    1.410   .     A
C794   Cl812   1.778   .     S
C795   C807    1.410   .     A
C795   C801    1.445   .     S
C795   C808    1.410   .     A
C796   C806    1.410   .     A
C797   N818    1.376   .     A
C797   I813    2.141   .     S
C798   N817    1.376   .     A
C798   I814    2.141   .     S
C798   C907    1.427   .     S
C799   N818    1.376   .     A
C799   I815    2.141   .     S
C800   N817    1.376   .     A
C800   I816    2.141   .     S
C800   C905    1.427   .     S
C801   O821    1.298   .     A
C801   O820    1.298   .     A
C802   O826    1.283   .     A
C802   C804    1.364   .     S
C802   O823    1.283   .     A
C803   C805    1.364   .     S
C803   O824    1.283   .     A
C803   O825    1.283   .     A
C805   C156    1.164   1_556 S
C806   Cl809   1.778   .     S
C807   Cl810   1.778   .     S
C807   C830    1.378   .     S
C808   Cl811   1.778   .     S
C808   C842    1.378   .     S
N817   Zn827   2.029   .     S
N818   Zn828   2.029   .     S
O819   Zn827   2.007   .     S
O820   Zn828   2.007   .     S
O821   Zn827   2.007   .     S
O822   Zn828   2.007   .     S
O823   Zn827   1.946   .     S
O824   Zn828   1.946   .     S
O825   Zn827   1.946   .     S
O826   Zn828   1.946   .     S
C829   C832    1.445   .     S
C829   O858    1.298   .     A
C829   O855    1.298   .     A
C830   C832    1.410   .     A
C830   Cl848   1.778   .     S
C831   C843    1.410   .     A
C831   C837    1.445   .     S
C831   C844    1.410   .     A
C832   C842    1.410   .     A
C833   N854    1.376   .     A
C833   I849    2.141   .     S
C834   N853    1.376   .     A
C834   I850    2.141   .     S
C834   C943    1.427   .     S
C835   N854    1.376   .     A
C835   I851    2.141   .     S
C836   N853    1.376   .     A
C836   I852    2.141   .     S
C836   C941    1.427   .     S
C837   O857    1.298   .     A
C837   O856    1.298   .     A
C838   O862    1.283   .     A
C838   C840    1.364   .     S
C838   O859    1.283   .     A
C839   C841    1.364   .     S
C839   O860    1.283   .     A
C839   O861    1.283   .     A
C841   C192    1.164   1_556 S
C842   Cl845   1.778   .     S
C843   Cl846   1.778   .     S
C843   C758    1.378   1_655 S
C844   Cl847   1.778   .     S
C844   C770    1.378   1_655 S
N853   Zn863   2.029   .     S
N854   Zn864   2.029   .     S
O855   Zn863   2.007   .     S
O856   Zn864   2.007   .     S
O857   Zn863   2.007   .     S
O858   Zn864   2.007   .     S
O859   Zn863   1.946   .     S
O860   Zn864   1.946   .     S
O861   Zn863   1.946   .     S
O862   Zn864   1.946   .     S
C865   C868    1.445   .     S
C865   O894    1.298   .     A
C865   O891    1.298   .     A
C866   C868    1.410   .     A
C866   Cl884   1.778   .     S
C866   C951    1.378   1_455 S
C867   C879    1.410   .     A
C867   C873    1.445   .     S
C867   C880    1.410   .     A
C868   C878    1.410   .     A
C869   N890    1.376   .     A
C869   I885    2.141   .     S
C870   N889    1.376   .     A
C870   I886    2.141   .     S
C870   C655    1.427   1_565 S
C871   N890    1.376   .     A
C871   I887    2.141   .     S
C872   N889    1.376   .     A
C872   I888    2.141   .     S
C872   C653    1.427   1_565 S
C873   O893    1.298   .     A
C873   O892    1.298   .     A
C874   O898    1.283   .     A
C874   C876    1.364   .     S
C874   O895    1.283   .     A
C875   C877    1.364   .     S
C875   O896    1.283   .     A
C875   O897    1.283   .     A
C877   C228    1.164   1_556 S
C878   Cl881   1.778   .     S
C878   C952    1.378   1_455 S
C879   Cl882   1.778   .     S
C879   C902    1.378   .     S
C880   Cl883   1.778   .     S
C880   C914    1.378   .     S
N889   Zn899   2.029   .     S
N890   Zn900   2.029   .     S
O891   Zn899   2.007   .     S
O892   Zn900   2.007   .     S
O893   Zn899   2.007   .     S
O894   Zn900   2.007   .     S
O895   Zn899   1.946   .     S
O896   Zn900   1.946   .     S
O897   Zn899   1.946   .     S
O898   Zn900   1.946   .     S
C901   C904    1.445   .     S
C901   O930    1.298   .     A
C901   O927    1.298   .     A
C902   C904    1.410   .     A
C902   Cl920   1.778   .     S
C903   C915    1.410   .     A
C903   C909    1.445   .     S
C903   C916    1.410   .     A
C904   C914    1.410   .     A
C905   N926    1.376   .     A
C905   I921    2.141   .     S
C906   N925    1.376   .     A
C906   I922    2.141   .     S
C906   C691    1.427   1_565 S
C907   N926    1.376   .     A
C907   I923    2.141   .     S
C908   N925    1.376   .     A
C908   I924    2.141   .     S
C908   C689    1.427   1_565 S
C909   O929    1.298   .     A
C909   O928    1.298   .     A
C910   O934    1.283   .     A
C910   C912    1.364   .     S
C910   O931    1.283   .     A
C911   C913    1.364   .     S
C911   O932    1.283   .     A
C911   O933    1.283   .     A
C913   C264    1.164   1_556 S
C914   Cl917   1.778   .     S
C915   Cl918   1.778   .     S
C915   C938    1.378   .     S
C916   Cl919   1.778   .     S
C916   C950    1.378   .     S
N925   Zn935   2.029   .     S
N926   Zn936   2.029   .     S
O927   Zn935   2.007   .     S
O928   Zn936   2.007   .     S
O929   Zn935   2.007   .     S
O930   Zn936   2.007   .     S
O931   Zn935   1.946   .     S
O932   Zn936   1.946   .     S
O933   Zn935   1.946   .     S
O934   Zn936   1.946   .     S
C937   C940    1.445   .     S
C937   O966    1.298   .     A
C937   O963    1.298   .     A
C938   C940    1.410   .     A
C938   Cl956   1.778   .     S
C939   C951    1.410   .     A
C939   C945    1.445   .     S
C939   C952    1.410   .     A
C940   C950    1.410   .     A
C941   N962    1.376   .     A
C941   I957    2.141   .     S
C942   N961    1.376   .     A
C942   I958    2.141   .     S
C942   C727    1.427   1_565 S
C943   N962    1.376   .     A
C943   I959    2.141   .     S
C944   N961    1.376   .     A
C944   I960    2.141   .     S
C944   C725    1.427   1_565 S
C945   O965    1.298   .     A
C945   O964    1.298   .     A
C946   O970    1.283   .     A
C946   C948    1.364   .     S
C946   O967    1.283   .     A
C947   C949    1.364   .     S
C947   O968    1.283   .     A
C947   O969    1.283   .     A
C949   C300    1.164   1_556 S
C950   Cl953   1.778   .     S
C951   Cl954   1.778   .     S
C951   C866    1.378   1_655 S
C952   Cl955   1.778   .     S
C952   C878    1.378   1_655 S
N961   Zn971   2.029   .     S
N962   Zn972   2.029   .     S
O963   Zn971   2.007   .     S
O964   Zn972   2.007   .     S
O965   Zn971   2.007   .     S
O966   Zn972   2.007   .     S
O967   Zn971   1.946   .     S
O968   Zn972   1.946   .     S
O969   Zn971   1.946   .     S
O970   Zn972   1.946   .     S
