data_str_m3_o1_o18_pcu_sym.56
_audit_creation_date              2020-01-03
_audit_creation_method            'Materials Studio'
_symmetry_space_group_name_H-M    'P1'
_symmetry_Int_Tables_number       1
_symmetry_cell_setting            triclinic
loop_
_symmetry_equiv_pos_as_xyz
  x,y,z
_cell_length_a                    30.2916
_cell_length_b                    31.7358
_cell_length_c                    29.9375
_cell_angle_alpha                 91.2332
_cell_angle_beta                  68.9043
_cell_angle_gamma                 90.1535
loop_
_atom_site_label
_atom_site_type_symbol
_atom_site_fract_x
_atom_site_fract_y
_atom_site_fract_z
_atom_site_U_iso_or_equiv
_atom_site_adp_type
_atom_site_occupancy
C1     C     0.16666   0.24635   0.25020   0.00000  Uiso   1.00
C2     C     0.12919   0.31237   0.28412   0.00000  Uiso   1.00
C3     C     0.16664   0.04277   0.24997   0.00000  Uiso   1.00
C4     C     0.16672   0.29060   0.25025   0.00000  Uiso   1.00
C5     C     0.31844   0.13598   0.22562   0.00000  Uiso   1.00
C6     C     0.01480   0.19722   0.27466   0.00000  Uiso   1.00
C7     C     0.03202   0.13503   0.22761   0.00000  Uiso   1.00
C8     C     0.30103   0.19802   0.27305   0.00000  Uiso   1.00
C9     C     0.13707   0.16538   0.33836   0.00000  Uiso   1.00
C10    C     0.19630   0.16467   0.16153   0.00000  Uiso   1.00
C11    C     0.12044   0.15574   0.38950   0.00000  Uiso   1.00
C12    C     0.16667   0.08699   0.24987   0.00000  Uiso   1.00
C13    C     0.21291   0.15222   0.11039   0.00000  Uiso   1.00
C14    C     0.05931   0.15069   0.46769   0.00000  Uiso   1.00
C15    C     0.27320   0.12416   0.03843   0.00000  Uiso   1.00
C16    C     0.07357   0.16218   0.41984   0.00000  Uiso   1.00
C17    C     0.26031   0.14252   0.08434   0.00000  Uiso   1.00
C18    C     0.15280   0.13841   0.40768   0.00000  Uiso   1.00
C19    C     0.17923   0.14328   0.08965   0.00000  Uiso   1.00
C20    C     0.13860   0.12442   0.45475   0.00000  Uiso   1.00
C21    C     0.19193   0.12304   0.04463   0.00000  Uiso   1.00
C22    C     0.09055   0.12969   0.48501   0.00000  Uiso   1.00
C23    C     0.10986   0.10746   0.05274   0.00000  Uiso   1.00
C24    C     0.23986   0.11590   0.01739   0.00000  Uiso   1.00
C25    C     0.17199   0.11072   0.47453   0.00000  Uiso   1.00
C26    C     0.15793   0.11307   0.02465   0.00000  Uiso   1.00
C27    C     0.01839   0.06624   0.06066   0.00000  Uiso   1.00
C28    C     0.31125   0.05085   0.44643   0.00000  Uiso   1.00
C29    C     0.11555   0.05562   0.10296   0.00000  Uiso   1.00
C30    C     0.21247   0.04662   0.39691   0.00000  Uiso   1.00
C31    C     0.30560   0.10286   0.19576   0.00000  Uiso   1.00
C32    C     0.02748   0.22988   0.30514   0.00000  Uiso   1.00
C33    C     0.04898   0.06661   0.23636   0.00000  Uiso   1.00
C34    C     0.21969   0.09886   0.44753   0.00000  Uiso   1.00
C35    C     0.28177   0.26683   0.26875   0.00000  Uiso   1.00
C36    C     0.07595   0.11511   0.03239   0.00000  Uiso   1.00
C37    C     0.25345   0.10073   0.46965   0.00000  Uiso   1.00
C38    C     0.20430   0.31110   0.21633   0.00000  Uiso   1.00
C39    C     0.12919   0.02229   0.28403   0.00000  Uiso   1.00
C40    C     0.20422   0.02101   0.21615   0.00000  Uiso   1.00
H41    H     0.14281   0.15245   0.10870   0.00000  Uiso   1.00
H42    H     0.10069   0.29598   0.31080   0.00000  Uiso   1.00
H43    H     0.03583   0.04832   0.08111   0.00000  Uiso   1.00
H44    H     0.02797   0.05243   0.02385   0.00000  Uiso   1.00
H45    H     0.31311   0.06208   0.07937   0.00000  Uiso   1.00
H46    H     0.29425   0.02994   0.42718   0.00000  Uiso   1.00
H47    H     0.30073   0.04137   0.48445   0.00000  Uiso   1.00
H48    H     0.01675   0.04628   0.42939   0.00000  Uiso   1.00
H49    H     0.12067   0.03437   0.07130   0.00000  Uiso   1.00
H50    H     0.09151   0.03908   0.13465   0.00000  Uiso   1.00
H51    H     0.14971   0.06023   0.10817   0.00000  Uiso   1.00
H52    H     0.18960   0.13745   0.38508   0.00000  Uiso   1.00
H53    H     0.21580   0.02332   0.42284   0.00000  Uiso   1.00
H54    H     0.23014   0.03287   0.36040   0.00000  Uiso   1.00
H55    H     0.17461   0.05138   0.40217   0.00000  Uiso   1.00
H56    H     0.00407   0.08817   0.16857   0.00000  Uiso   1.00
H57    H     0.28501   0.07766   0.21911   0.00000  Uiso   1.00
H58    H     0.28564   0.11643   0.17528   0.00000  Uiso   1.00
H59    H     0.32895   0.24401   0.33284   0.00000  Uiso   1.00
H60    H     0.04755   0.21600   0.32534   0.00000  Uiso   1.00
H61    H     0.04782   0.25548   0.28229   0.00000  Uiso   1.00
H62    H     0.01706   0.05118   0.23392   0.00000  Uiso   1.00
H63    H     0.28690   0.14832   0.09993   0.00000  Uiso   1.00
H64    H     0.04302   0.07473   0.27451   0.00000  Uiso   1.00
H65    H     0.07788   0.04290   0.22383   0.00000  Uiso   1.00
H66    H     0.28842   0.26044   0.23011   0.00000  Uiso   1.00
H67    H     0.31284   0.28282   0.27248   0.00000  Uiso   1.00
H68    H     0.25179   0.28942   0.28250   0.00000  Uiso   1.00
H69    H     0.04852   0.17739   0.40707   0.00000  Uiso   1.00
H70    H     0.02516   0.16133   0.49153   0.00000  Uiso   1.00
H71    H     0.30877   0.11474   0.01914   0.00000  Uiso   1.00
H72    H     0.23300   0.29366   0.18998   0.00000  Uiso   1.00
H73    H     0.10055   0.03974   0.31047   0.00000  Uiso   1.00
H74    H     0.23270   0.03740   0.18942   0.00000  Uiso   1.00
N75    N     0.04759   0.16668   0.25001   0.00000  Uiso   1.00
N76    N     0.28574   0.16666   0.24999   0.00000  Uiso   1.00
O77    O     0.12846   0.22775   0.25001   0.00000  Uiso   1.00
O78    O     0.30063   0.09350   0.44242   0.00000  Uiso   1.00
O79    O     0.09489   0.09496   0.10003   0.00000  Uiso   1.00
O80    O     0.23460   0.08521   0.40010   0.00000  Uiso   1.00
O81    O     0.06251   0.10199   0.20653   0.00000  Uiso   1.00
O82    O     0.26966   0.22996   0.29626   0.00000  Uiso   1.00
O83    O     0.20488   0.10558   0.25000   0.00000  Uiso   1.00
O84    O     0.20490   0.22774   0.25000   0.00000  Uiso   1.00
O85    O     0.12843   0.10559   0.25000   0.00000  Uiso   1.00
O86    O     0.10661   0.16667   0.31613   0.00000  Uiso   1.00
O87    O     0.22672   0.16666   0.18388   0.00000  Uiso   1.00
O88    O     0.18305   0.16666   0.31612   0.00000  Uiso   1.00
O89    O     0.15028   0.16667   0.18388   0.00000  Uiso   1.00
O90    O     0.02889   0.10979   0.05974   0.00000  Uiso   1.00
Zn91   Zn    0.11562   0.16667   0.25000   0.00000  Uiso   1.00
Zn92   Zn    0.21771   0.16666   0.25000   0.00000  Uiso   1.00
C93    C     0.49999   0.24635   0.25020   0.00000  Uiso   1.00
C94    C     0.46253   0.31237   0.28412   0.00000  Uiso   1.00
C95    C     0.49998   0.04277   0.24997   0.00000  Uiso   1.00
C96    C     0.50006   0.29060   0.25025   0.00000  Uiso   1.00
C97    C     0.65178   0.13598   0.22562   0.00000  Uiso   1.00
C98    C     0.34813   0.19722   0.27466   0.00000  Uiso   1.00
C99    C     0.36535   0.13503   0.22761   0.00000  Uiso   1.00
C100   C     0.63436   0.19802   0.27305   0.00000  Uiso   1.00
C101   C     0.47040   0.16538   0.33836   0.00000  Uiso   1.00
C102   C     0.52964   0.16467   0.16153   0.00000  Uiso   1.00
C103   C     0.45377   0.15574   0.38950   0.00000  Uiso   1.00
C104   C     0.50000   0.08699   0.24987   0.00000  Uiso   1.00
C105   C     0.54624   0.15222   0.11039   0.00000  Uiso   1.00
C106   C     0.39264   0.15069   0.46769   0.00000  Uiso   1.00
C107   C     0.60653   0.12416   0.03843   0.00000  Uiso   1.00
C108   C     0.40690   0.16218   0.41984   0.00000  Uiso   1.00
C109   C     0.59364   0.14252   0.08434   0.00000  Uiso   1.00
C110   C     0.48614   0.13841   0.40768   0.00000  Uiso   1.00
C111   C     0.51256   0.14328   0.08965   0.00000  Uiso   1.00
C112   C     0.47193   0.12442   0.45475   0.00000  Uiso   1.00
C113   C     0.52527   0.12304   0.04463   0.00000  Uiso   1.00
C114   C     0.42388   0.12969   0.48501   0.00000  Uiso   1.00
C115   C     0.44319   0.10746   0.05274   0.00000  Uiso   1.00
C116   C     0.57319   0.11590   0.01739   0.00000  Uiso   1.00
C117   C     0.50532   0.11072   0.47453   0.00000  Uiso   1.00
C118   C     0.49126   0.11307   0.02465   0.00000  Uiso   1.00
C119   C     0.35172   0.06624   0.06066   0.00000  Uiso   1.00
C120   C     0.64458   0.05085   0.44643   0.00000  Uiso   1.00
C121   C     0.44888   0.05562   0.10296   0.00000  Uiso   1.00
C122   C     0.54580   0.04662   0.39691   0.00000  Uiso   1.00
C123   C     0.63893   0.10286   0.19576   0.00000  Uiso   1.00
C124   C     0.36082   0.22988   0.30514   0.00000  Uiso   1.00
C125   C     0.38231   0.06661   0.23636   0.00000  Uiso   1.00
C126   C     0.55302   0.09886   0.44753   0.00000  Uiso   1.00
C127   C     0.61510   0.26683   0.26875   0.00000  Uiso   1.00
C128   C     0.40928   0.11511   0.03239   0.00000  Uiso   1.00
C129   C     0.58679   0.10073   0.46965   0.00000  Uiso   1.00
C130   C     0.53763   0.31110   0.21633   0.00000  Uiso   1.00
C131   C     0.46252   0.02229   0.28403   0.00000  Uiso   1.00
C132   C     0.53755   0.02101   0.21615   0.00000  Uiso   1.00
H133   H     0.47615   0.15245   0.10870   0.00000  Uiso   1.00
H134   H     0.43402   0.29598   0.31080   0.00000  Uiso   1.00
H135   H     0.36916   0.04832   0.08111   0.00000  Uiso   1.00
H136   H     0.36130   0.05243   0.02385   0.00000  Uiso   1.00
H137   H     0.64645   0.06208   0.07937   0.00000  Uiso   1.00
H138   H     0.62758   0.02994   0.42718   0.00000  Uiso   1.00
H139   H     0.63407   0.04137   0.48445   0.00000  Uiso   1.00
H140   H     0.35009   0.04628   0.42939   0.00000  Uiso   1.00
H141   H     0.45401   0.03437   0.07130   0.00000  Uiso   1.00
H142   H     0.42485   0.03908   0.13465   0.00000  Uiso   1.00
H143   H     0.48304   0.06023   0.10817   0.00000  Uiso   1.00
H144   H     0.52294   0.13745   0.38508   0.00000  Uiso   1.00
H145   H     0.54913   0.02332   0.42284   0.00000  Uiso   1.00
H146   H     0.56348   0.03287   0.36040   0.00000  Uiso   1.00
H147   H     0.50794   0.05138   0.40217   0.00000  Uiso   1.00
H148   H     0.33741   0.08817   0.16857   0.00000  Uiso   1.00
H149   H     0.61834   0.07766   0.21911   0.00000  Uiso   1.00
H150   H     0.61897   0.11643   0.17528   0.00000  Uiso   1.00
H151   H     0.66228   0.24401   0.33284   0.00000  Uiso   1.00
H152   H     0.38088   0.21600   0.32534   0.00000  Uiso   1.00
H153   H     0.38115   0.25548   0.28229   0.00000  Uiso   1.00
H154   H     0.35040   0.05118   0.23392   0.00000  Uiso   1.00
H155   H     0.62024   0.14832   0.09993   0.00000  Uiso   1.00
H156   H     0.37636   0.07473   0.27451   0.00000  Uiso   1.00
H157   H     0.41121   0.04290   0.22383   0.00000  Uiso   1.00
H158   H     0.62176   0.26044   0.23011   0.00000  Uiso   1.00
H159   H     0.64617   0.28282   0.27248   0.00000  Uiso   1.00
H160   H     0.58513   0.28942   0.28250   0.00000  Uiso   1.00
H161   H     0.38185   0.17739   0.40707   0.00000  Uiso   1.00
H162   H     0.35850   0.16133   0.49153   0.00000  Uiso   1.00
H163   H     0.64211   0.11474   0.01914   0.00000  Uiso   1.00
H164   H     0.56634   0.29366   0.18998   0.00000  Uiso   1.00
H165   H     0.43388   0.03974   0.31047   0.00000  Uiso   1.00
H166   H     0.56604   0.03740   0.18942   0.00000  Uiso   1.00
N167   N     0.38093   0.16668   0.25001   0.00000  Uiso   1.00
N168   N     0.61907   0.16666   0.24999   0.00000  Uiso   1.00
O169   O     0.46179   0.22775   0.25001   0.00000  Uiso   1.00
O170   O     0.63396   0.09350   0.44242   0.00000  Uiso   1.00
O171   O     0.42823   0.09496   0.10003   0.00000  Uiso   1.00
O172   O     0.56793   0.08521   0.40010   0.00000  Uiso   1.00
O173   O     0.39584   0.10199   0.20653   0.00000  Uiso   1.00
O174   O     0.60299   0.22996   0.29626   0.00000  Uiso   1.00
O175   O     0.53821   0.10558   0.25000   0.00000  Uiso   1.00
O176   O     0.53823   0.22774   0.25000   0.00000  Uiso   1.00
O177   O     0.46177   0.10559   0.25000   0.00000  Uiso   1.00
O178   O     0.43994   0.16667   0.31613   0.00000  Uiso   1.00
O179   O     0.56006   0.16666   0.18388   0.00000  Uiso   1.00
O180   O     0.51639   0.16666   0.31612   0.00000  Uiso   1.00
O181   O     0.48361   0.16667   0.18388   0.00000  Uiso   1.00
O182   O     0.36223   0.10979   0.05974   0.00000  Uiso   1.00
Zn183  Zn    0.44896   0.16667   0.25000   0.00000  Uiso   1.00
Zn184  Zn    0.55104   0.16666   0.25000   0.00000  Uiso   1.00
C185   C     0.83332   0.24635   0.25020   0.00000  Uiso   1.00
C186   C     0.79586   0.31237   0.28412   0.00000  Uiso   1.00
C187   C     0.83331   0.04277   0.24997   0.00000  Uiso   1.00
C188   C     0.83339   0.29060   0.25025   0.00000  Uiso   1.00
C189   C     0.98511   0.13598   0.22562   0.00000  Uiso   1.00
C190   C     0.68147   0.19722   0.27466   0.00000  Uiso   1.00
C191   C     0.69869   0.13503   0.22761   0.00000  Uiso   1.00
C192   C     0.96770   0.19802   0.27305   0.00000  Uiso   1.00
C193   C     0.80374   0.16538   0.33836   0.00000  Uiso   1.00
C194   C     0.86297   0.16467   0.16153   0.00000  Uiso   1.00
C195   C     0.78711   0.15574   0.38950   0.00000  Uiso   1.00
C196   C     0.83333   0.08699   0.24987   0.00000  Uiso   1.00
C197   C     0.87957   0.15222   0.11039   0.00000  Uiso   1.00
C198   C     0.72597   0.15069   0.46769   0.00000  Uiso   1.00
C199   C     0.93986   0.12416   0.03843   0.00000  Uiso   1.00
C200   C     0.74023   0.16218   0.41984   0.00000  Uiso   1.00
C201   C     0.92698   0.14252   0.08434   0.00000  Uiso   1.00
C202   C     0.81947   0.13841   0.40768   0.00000  Uiso   1.00
C203   C     0.84589   0.14328   0.08965   0.00000  Uiso   1.00
C204   C     0.80527   0.12442   0.45475   0.00000  Uiso   1.00
C205   C     0.85860   0.12304   0.04463   0.00000  Uiso   1.00
C206   C     0.75722   0.12969   0.48501   0.00000  Uiso   1.00
C207   C     0.77652   0.10746   0.05274   0.00000  Uiso   1.00
C208   C     0.90653   0.11590   0.01739   0.00000  Uiso   1.00
C209   C     0.83866   0.11072   0.47453   0.00000  Uiso   1.00
C210   C     0.82459   0.11307   0.02465   0.00000  Uiso   1.00
C211   C     0.68505   0.06624   0.06066   0.00000  Uiso   1.00
C212   C     0.97792   0.05085   0.44643   0.00000  Uiso   1.00
C213   C     0.78221   0.05562   0.10296   0.00000  Uiso   1.00
C214   C     0.87914   0.04662   0.39691   0.00000  Uiso   1.00
C215   C     0.97227   0.10286   0.19576   0.00000  Uiso   1.00
C216   C     0.69415   0.22988   0.30514   0.00000  Uiso   1.00
C217   C     0.71565   0.06661   0.23636   0.00000  Uiso   1.00
C218   C     0.88636   0.09886   0.44753   0.00000  Uiso   1.00
C219   C     0.94844   0.26683   0.26875   0.00000  Uiso   1.00
C220   C     0.74262   0.11511   0.03239   0.00000  Uiso   1.00
C221   C     0.92012   0.10073   0.46965   0.00000  Uiso   1.00
C222   C     0.87096   0.31110   0.21633   0.00000  Uiso   1.00
C223   C     0.79586   0.02229   0.28403   0.00000  Uiso   1.00
C224   C     0.87089   0.02101   0.21615   0.00000  Uiso   1.00
H225   H     0.80948   0.15245   0.10870   0.00000  Uiso   1.00
H226   H     0.76735   0.29598   0.31080   0.00000  Uiso   1.00
H227   H     0.70249   0.04832   0.08111   0.00000  Uiso   1.00
H228   H     0.69464   0.05243   0.02385   0.00000  Uiso   1.00
H229   H     0.97978   0.06208   0.07937   0.00000  Uiso   1.00
H230   H     0.96091   0.02994   0.42718   0.00000  Uiso   1.00
H231   H     0.96740   0.04137   0.48445   0.00000  Uiso   1.00
H232   H     0.68342   0.04628   0.42939   0.00000  Uiso   1.00
H233   H     0.78734   0.03437   0.07130   0.00000  Uiso   1.00
H234   H     0.75818   0.03908   0.13465   0.00000  Uiso   1.00
H235   H     0.81637   0.06023   0.10817   0.00000  Uiso   1.00
H236   H     0.85627   0.13745   0.38508   0.00000  Uiso   1.00
H237   H     0.88247   0.02332   0.42284   0.00000  Uiso   1.00
H238   H     0.89681   0.03287   0.36040   0.00000  Uiso   1.00
H239   H     0.84127   0.05138   0.40217   0.00000  Uiso   1.00
H240   H     0.67074   0.08817   0.16857   0.00000  Uiso   1.00
H241   H     0.95168   0.07766   0.21911   0.00000  Uiso   1.00
H242   H     0.95230   0.11643   0.17528   0.00000  Uiso   1.00
H243   H     0.99562   0.24401   0.33284   0.00000  Uiso   1.00
H244   H     0.71422   0.21600   0.32534   0.00000  Uiso   1.00
H245   H     0.71449   0.25548   0.28229   0.00000  Uiso   1.00
H246   H     0.68373   0.05118   0.23392   0.00000  Uiso   1.00
H247   H     0.95357   0.14832   0.09993   0.00000  Uiso   1.00
H248   H     0.70969   0.07473   0.27451   0.00000  Uiso   1.00
H249   H     0.74455   0.04290   0.22383   0.00000  Uiso   1.00
H250   H     0.95509   0.26044   0.23011   0.00000  Uiso   1.00
H251   H     0.97951   0.28282   0.27248   0.00000  Uiso   1.00
H252   H     0.91846   0.28942   0.28250   0.00000  Uiso   1.00
H253   H     0.71519   0.17739   0.40707   0.00000  Uiso   1.00
H254   H     0.69183   0.16133   0.49153   0.00000  Uiso   1.00
H255   H     0.97544   0.11474   0.01914   0.00000  Uiso   1.00
H256   H     0.89967   0.29366   0.18998   0.00000  Uiso   1.00
H257   H     0.76721   0.03974   0.31047   0.00000  Uiso   1.00
H258   H     0.89937   0.03740   0.18942   0.00000  Uiso   1.00
N259   N     0.71426   0.16668   0.25001   0.00000  Uiso   1.00
N260   N     0.95241   0.16666   0.24999   0.00000  Uiso   1.00
O261   O     0.79512   0.22775   0.25001   0.00000  Uiso   1.00
O262   O     0.96729   0.09350   0.44242   0.00000  Uiso   1.00
O263   O     0.76156   0.09496   0.10003   0.00000  Uiso   1.00
O264   O     0.90126   0.08521   0.40010   0.00000  Uiso   1.00
O265   O     0.72917   0.10199   0.20653   0.00000  Uiso   1.00
O266   O     0.93632   0.22996   0.29626   0.00000  Uiso   1.00
O267   O     0.87154   0.10558   0.25000   0.00000  Uiso   1.00
O268   O     0.87157   0.22774   0.25000   0.00000  Uiso   1.00
O269   O     0.79510   0.10559   0.25000   0.00000  Uiso   1.00
O270   O     0.77328   0.16667   0.31613   0.00000  Uiso   1.00
O271   O     0.89339   0.16666   0.18388   0.00000  Uiso   1.00
O272   O     0.84972   0.16666   0.31612   0.00000  Uiso   1.00
O273   O     0.81695   0.16667   0.18388   0.00000  Uiso   1.00
O274   O     0.69556   0.10979   0.05974   0.00000  Uiso   1.00
Zn275  Zn    0.78229   0.16667   0.25000   0.00000  Uiso   1.00
Zn276  Zn    0.88438   0.16666   0.25000   0.00000  Uiso   1.00
C277   C     0.16666   0.57969   0.25020   0.00000  Uiso   1.00
C278   C     0.12919   0.64571   0.28412   0.00000  Uiso   1.00
C279   C     0.16664   0.37610   0.24997   0.00000  Uiso   1.00
C280   C     0.16672   0.62394   0.25025   0.00000  Uiso   1.00
C281   C     0.31844   0.46931   0.22562   0.00000  Uiso   1.00
C282   C     0.01480   0.53055   0.27466   0.00000  Uiso   1.00
C283   C     0.03202   0.46837   0.22761   0.00000  Uiso   1.00
C284   C     0.30103   0.53135   0.27305   0.00000  Uiso   1.00
C285   C     0.13707   0.49872   0.33836   0.00000  Uiso   1.00
C286   C     0.19630   0.49800   0.16153   0.00000  Uiso   1.00
C287   C     0.12044   0.48908   0.38950   0.00000  Uiso   1.00
C288   C     0.16667   0.42032   0.24987   0.00000  Uiso   1.00
C289   C     0.21291   0.48555   0.11039   0.00000  Uiso   1.00
C290   C     0.05931   0.48403   0.46769   0.00000  Uiso   1.00
C291   C     0.27320   0.45749   0.03843   0.00000  Uiso   1.00
C292   C     0.07357   0.49552   0.41984   0.00000  Uiso   1.00
C293   C     0.26031   0.47585   0.08434   0.00000  Uiso   1.00
C294   C     0.15280   0.47175   0.40768   0.00000  Uiso   1.00
C295   C     0.17923   0.47661   0.08965   0.00000  Uiso   1.00
C296   C     0.13860   0.45775   0.45475   0.00000  Uiso   1.00
C297   C     0.19193   0.45637   0.04463   0.00000  Uiso   1.00
C298   C     0.09055   0.46303   0.48501   0.00000  Uiso   1.00
C299   C     0.10986   0.44079   0.05274   0.00000  Uiso   1.00
C300   C     0.23986   0.44924   0.01739   0.00000  Uiso   1.00
C301   C     0.17199   0.44406   0.47453   0.00000  Uiso   1.00
C302   C     0.15793   0.44640   0.02465   0.00000  Uiso   1.00
C303   C     0.01839   0.39958   0.06066   0.00000  Uiso   1.00
C304   C     0.31125   0.38418   0.44643   0.00000  Uiso   1.00
C305   C     0.11555   0.38896   0.10296   0.00000  Uiso   1.00
C306   C     0.21247   0.37995   0.39691   0.00000  Uiso   1.00
C307   C     0.30560   0.43619   0.19576   0.00000  Uiso   1.00
C308   C     0.02748   0.56321   0.30514   0.00000  Uiso   1.00
C309   C     0.04898   0.39995   0.23636   0.00000  Uiso   1.00
C310   C     0.21969   0.43219   0.44753   0.00000  Uiso   1.00
C311   C     0.28177   0.60016   0.26875   0.00000  Uiso   1.00
C312   C     0.07595   0.44844   0.03239   0.00000  Uiso   1.00
C313   C     0.25345   0.43406   0.46965   0.00000  Uiso   1.00
C314   C     0.20430   0.64443   0.21633   0.00000  Uiso   1.00
C315   C     0.12919   0.35562   0.28403   0.00000  Uiso   1.00
C316   C     0.20422   0.35434   0.21615   0.00000  Uiso   1.00
H317   H     0.14281   0.48578   0.10870   0.00000  Uiso   1.00
H318   H     0.10069   0.62932   0.31080   0.00000  Uiso   1.00
H319   H     0.03583   0.38166   0.08111   0.00000  Uiso   1.00
H320   H     0.02797   0.38576   0.02385   0.00000  Uiso   1.00
H321   H     0.31311   0.39541   0.07937   0.00000  Uiso   1.00
H322   H     0.29425   0.36328   0.42718   0.00000  Uiso   1.00
H323   H     0.30073   0.37470   0.48445   0.00000  Uiso   1.00
H324   H     0.01675   0.37962   0.42939   0.00000  Uiso   1.00
H325   H     0.12067   0.36770   0.07130   0.00000  Uiso   1.00
H326   H     0.09151   0.37242   0.13465   0.00000  Uiso   1.00
H327   H     0.14971   0.39356   0.10817   0.00000  Uiso   1.00
H328   H     0.18960   0.47078   0.38508   0.00000  Uiso   1.00
H329   H     0.21580   0.35666   0.42284   0.00000  Uiso   1.00
H330   H     0.23014   0.36620   0.36040   0.00000  Uiso   1.00
H331   H     0.17461   0.38471   0.40217   0.00000  Uiso   1.00
H332   H     0.00407   0.42150   0.16857   0.00000  Uiso   1.00
H333   H     0.28501   0.41099   0.21911   0.00000  Uiso   1.00
H334   H     0.28564   0.44977   0.17528   0.00000  Uiso   1.00
H335   H     0.32895   0.57734   0.33284   0.00000  Uiso   1.00
H336   H     0.04755   0.54933   0.32534   0.00000  Uiso   1.00
H337   H     0.04782   0.58881   0.28229   0.00000  Uiso   1.00
H338   H     0.01706   0.38451   0.23392   0.00000  Uiso   1.00
H339   H     0.28690   0.48166   0.09993   0.00000  Uiso   1.00
H340   H     0.04302   0.40806   0.27451   0.00000  Uiso   1.00
H341   H     0.07788   0.37623   0.22383   0.00000  Uiso   1.00
H342   H     0.28842   0.59377   0.23011   0.00000  Uiso   1.00
H343   H     0.31284   0.61615   0.27248   0.00000  Uiso   1.00
H344   H     0.25179   0.62276   0.28250   0.00000  Uiso   1.00
H345   H     0.04852   0.51072   0.40707   0.00000  Uiso   1.00
H346   H     0.02516   0.49466   0.49153   0.00000  Uiso   1.00
H347   H     0.30877   0.44807   0.01914   0.00000  Uiso   1.00
H348   H     0.23300   0.62699   0.18998   0.00000  Uiso   1.00
H349   H     0.10055   0.37308   0.31047   0.00000  Uiso   1.00
H350   H     0.23270   0.37073   0.18942   0.00000  Uiso   1.00
N351   N     0.04759   0.50001   0.25001   0.00000  Uiso   1.00
N352   N     0.28574   0.49999   0.24999   0.00000  Uiso   1.00
O353   O     0.12846   0.56108   0.25001   0.00000  Uiso   1.00
O354   O     0.30063   0.42683   0.44242   0.00000  Uiso   1.00
O355   O     0.09489   0.42829   0.10003   0.00000  Uiso   1.00
O356   O     0.23460   0.41854   0.40010   0.00000  Uiso   1.00
O357   O     0.06251   0.43532   0.20653   0.00000  Uiso   1.00
O358   O     0.26966   0.56330   0.29626   0.00000  Uiso   1.00
O359   O     0.20488   0.43892   0.25000   0.00000  Uiso   1.00
O360   O     0.20490   0.56107   0.25000   0.00000  Uiso   1.00
O361   O     0.12843   0.43893   0.25000   0.00000  Uiso   1.00
O362   O     0.10661   0.50001   0.31613   0.00000  Uiso   1.00
O363   O     0.22672   0.49999   0.18388   0.00000  Uiso   1.00
O364   O     0.18305   0.50000   0.31612   0.00000  Uiso   1.00
O365   O     0.15028   0.50000   0.18388   0.00000  Uiso   1.00
O366   O     0.02889   0.44313   0.05974   0.00000  Uiso   1.00
Zn367  Zn    0.11562   0.50001   0.25000   0.00000  Uiso   1.00
Zn368  Zn    0.21771   0.49999   0.25000   0.00000  Uiso   1.00
C369   C     0.49999   0.57969   0.25020   0.00000  Uiso   1.00
C370   C     0.46253   0.64571   0.28412   0.00000  Uiso   1.00
C371   C     0.49998   0.37610   0.24997   0.00000  Uiso   1.00
C372   C     0.50006   0.62394   0.25025   0.00000  Uiso   1.00
C373   C     0.65178   0.46931   0.22562   0.00000  Uiso   1.00
C374   C     0.34813   0.53055   0.27466   0.00000  Uiso   1.00
C375   C     0.36535   0.46837   0.22761   0.00000  Uiso   1.00
C376   C     0.63436   0.53135   0.27305   0.00000  Uiso   1.00
C377   C     0.47040   0.49872   0.33836   0.00000  Uiso   1.00
C378   C     0.52964   0.49800   0.16153   0.00000  Uiso   1.00
C379   C     0.45377   0.48908   0.38950   0.00000  Uiso   1.00
C380   C     0.50000   0.42032   0.24987   0.00000  Uiso   1.00
C381   C     0.54624   0.48555   0.11039   0.00000  Uiso   1.00
C382   C     0.39264   0.48403   0.46769   0.00000  Uiso   1.00
C383   C     0.60653   0.45749   0.03843   0.00000  Uiso   1.00
C384   C     0.40690   0.49552   0.41984   0.00000  Uiso   1.00
C385   C     0.59364   0.47585   0.08434   0.00000  Uiso   1.00
C386   C     0.48614   0.47175   0.40768   0.00000  Uiso   1.00
C387   C     0.51256   0.47661   0.08965   0.00000  Uiso   1.00
C388   C     0.47193   0.45775   0.45475   0.00000  Uiso   1.00
C389   C     0.52527   0.45637   0.04463   0.00000  Uiso   1.00
C390   C     0.42388   0.46303   0.48501   0.00000  Uiso   1.00
C391   C     0.44319   0.44079   0.05274   0.00000  Uiso   1.00
C392   C     0.57319   0.44924   0.01739   0.00000  Uiso   1.00
C393   C     0.50532   0.44406   0.47453   0.00000  Uiso   1.00
C394   C     0.49126   0.44640   0.02465   0.00000  Uiso   1.00
C395   C     0.35172   0.39958   0.06066   0.00000  Uiso   1.00
C396   C     0.64458   0.38418   0.44643   0.00000  Uiso   1.00
C397   C     0.44888   0.38896   0.10296   0.00000  Uiso   1.00
C398   C     0.54580   0.37995   0.39691   0.00000  Uiso   1.00
C399   C     0.63893   0.43619   0.19576   0.00000  Uiso   1.00
C400   C     0.36082   0.56321   0.30514   0.00000  Uiso   1.00
C401   C     0.38231   0.39995   0.23636   0.00000  Uiso   1.00
C402   C     0.55302   0.43219   0.44753   0.00000  Uiso   1.00
C403   C     0.61510   0.60016   0.26875   0.00000  Uiso   1.00
C404   C     0.40928   0.44844   0.03239   0.00000  Uiso   1.00
C405   C     0.58679   0.43406   0.46965   0.00000  Uiso   1.00
C406   C     0.53763   0.64443   0.21633   0.00000  Uiso   1.00
C407   C     0.46252   0.35562   0.28403   0.00000  Uiso   1.00
C408   C     0.53755   0.35434   0.21615   0.00000  Uiso   1.00
H409   H     0.47615   0.48578   0.10870   0.00000  Uiso   1.00
H410   H     0.43402   0.62932   0.31080   0.00000  Uiso   1.00
H411   H     0.36916   0.38166   0.08111   0.00000  Uiso   1.00
H412   H     0.36130   0.38576   0.02385   0.00000  Uiso   1.00
H413   H     0.64645   0.39541   0.07937   0.00000  Uiso   1.00
H414   H     0.62758   0.36328   0.42718   0.00000  Uiso   1.00
H415   H     0.63407   0.37470   0.48445   0.00000  Uiso   1.00
H416   H     0.35009   0.37962   0.42939   0.00000  Uiso   1.00
H417   H     0.45401   0.36770   0.07130   0.00000  Uiso   1.00
H418   H     0.42485   0.37242   0.13465   0.00000  Uiso   1.00
H419   H     0.48304   0.39356   0.10817   0.00000  Uiso   1.00
H420   H     0.52294   0.47078   0.38508   0.00000  Uiso   1.00
H421   H     0.54913   0.35666   0.42284   0.00000  Uiso   1.00
H422   H     0.56348   0.36620   0.36040   0.00000  Uiso   1.00
H423   H     0.50794   0.38471   0.40217   0.00000  Uiso   1.00
H424   H     0.33741   0.42150   0.16857   0.00000  Uiso   1.00
H425   H     0.61834   0.41099   0.21911   0.00000  Uiso   1.00
H426   H     0.61897   0.44977   0.17528   0.00000  Uiso   1.00
H427   H     0.66228   0.57734   0.33284   0.00000  Uiso   1.00
H428   H     0.38088   0.54933   0.32534   0.00000  Uiso   1.00
H429   H     0.38115   0.58881   0.28229   0.00000  Uiso   1.00
H430   H     0.35040   0.38451   0.23392   0.00000  Uiso   1.00
H431   H     0.62024   0.48166   0.09993   0.00000  Uiso   1.00
H432   H     0.37636   0.40806   0.27451   0.00000  Uiso   1.00
H433   H     0.41121   0.37623   0.22383   0.00000  Uiso   1.00
H434   H     0.62176   0.59377   0.23011   0.00000  Uiso   1.00
H435   H     0.64617   0.61615   0.27248   0.00000  Uiso   1.00
H436   H     0.58513   0.62276   0.28250   0.00000  Uiso   1.00
H437   H     0.38185   0.51072   0.40707   0.00000  Uiso   1.00
H438   H     0.35850   0.49466   0.49153   0.00000  Uiso   1.00
H439   H     0.64211   0.44807   0.01914   0.00000  Uiso   1.00
H440   H     0.56634   0.62699   0.18998   0.00000  Uiso   1.00
H441   H     0.43388   0.37308   0.31047   0.00000  Uiso   1.00
H442   H     0.56604   0.37073   0.18942   0.00000  Uiso   1.00
N443   N     0.38093   0.50001   0.25001   0.00000  Uiso   1.00
N444   N     0.61907   0.49999   0.24999   0.00000  Uiso   1.00
O445   O     0.46179   0.56108   0.25001   0.00000  Uiso   1.00
O446   O     0.63396   0.42683   0.44242   0.00000  Uiso   1.00
O447   O     0.42823   0.42829   0.10003   0.00000  Uiso   1.00
O448   O     0.56793   0.41854   0.40010   0.00000  Uiso   1.00
O449   O     0.39584   0.43532   0.20653   0.00000  Uiso   1.00
O450   O     0.60299   0.56330   0.29626   0.00000  Uiso   1.00
O451   O     0.53821   0.43892   0.25000   0.00000  Uiso   1.00
O452   O     0.53823   0.56107   0.25000   0.00000  Uiso   1.00
O453   O     0.46177   0.43893   0.25000   0.00000  Uiso   1.00
O454   O     0.43994   0.50001   0.31613   0.00000  Uiso   1.00
O455   O     0.56006   0.49999   0.18388   0.00000  Uiso   1.00
O456   O     0.51639   0.50000   0.31612   0.00000  Uiso   1.00
O457   O     0.48361   0.50000   0.18388   0.00000  Uiso   1.00
O458   O     0.36223   0.44313   0.05974   0.00000  Uiso   1.00
Zn459  Zn    0.44896   0.50001   0.25000   0.00000  Uiso   1.00
Zn460  Zn    0.55104   0.49999   0.25000   0.00000  Uiso   1.00
C461   C     0.83332   0.57969   0.25020   0.00000  Uiso   1.00
C462   C     0.79586   0.64571   0.28412   0.00000  Uiso   1.00
C463   C     0.83331   0.37610   0.24997   0.00000  Uiso   1.00
C464   C     0.83339   0.62394   0.25025   0.00000  Uiso   1.00
C465   C     0.98511   0.46931   0.22562   0.00000  Uiso   1.00
C466   C     0.68147   0.53055   0.27466   0.00000  Uiso   1.00
C467   C     0.69869   0.46837   0.22761   0.00000  Uiso   1.00
C468   C     0.96770   0.53135   0.27305   0.00000  Uiso   1.00
C469   C     0.80374   0.49872   0.33836   0.00000  Uiso   1.00
C470   C     0.86297   0.49800   0.16153   0.00000  Uiso   1.00
C471   C     0.78711   0.48908   0.38950   0.00000  Uiso   1.00
C472   C     0.83333   0.42032   0.24987   0.00000  Uiso   1.00
C473   C     0.87957   0.48555   0.11039   0.00000  Uiso   1.00
C474   C     0.72597   0.48403   0.46769   0.00000  Uiso   1.00
C475   C     0.93986   0.45749   0.03843   0.00000  Uiso   1.00
C476   C     0.74023   0.49552   0.41984   0.00000  Uiso   1.00
C477   C     0.92698   0.47585   0.08434   0.00000  Uiso   1.00
C478   C     0.81947   0.47175   0.40768   0.00000  Uiso   1.00
C479   C     0.84589   0.47661   0.08965   0.00000  Uiso   1.00
C480   C     0.80527   0.45775   0.45475   0.00000  Uiso   1.00
C481   C     0.85860   0.45637   0.04463   0.00000  Uiso   1.00
C482   C     0.75722   0.46303   0.48501   0.00000  Uiso   1.00
C483   C     0.77652   0.44079   0.05274   0.00000  Uiso   1.00
C484   C     0.90653   0.44924   0.01739   0.00000  Uiso   1.00
C485   C     0.83866   0.44406   0.47453   0.00000  Uiso   1.00
C486   C     0.82459   0.44640   0.02465   0.00000  Uiso   1.00
C487   C     0.68505   0.39958   0.06066   0.00000  Uiso   1.00
C488   C     0.97792   0.38418   0.44643   0.00000  Uiso   1.00
C489   C     0.78221   0.38896   0.10296   0.00000  Uiso   1.00
C490   C     0.87914   0.37995   0.39691   0.00000  Uiso   1.00
C491   C     0.97227   0.43619   0.19576   0.00000  Uiso   1.00
C492   C     0.69415   0.56321   0.30514   0.00000  Uiso   1.00
C493   C     0.71565   0.39995   0.23636   0.00000  Uiso   1.00
C494   C     0.88636   0.43219   0.44753   0.00000  Uiso   1.00
C495   C     0.94844   0.60016   0.26875   0.00000  Uiso   1.00
C496   C     0.74262   0.44844   0.03239   0.00000  Uiso   1.00
C497   C     0.92012   0.43406   0.46965   0.00000  Uiso   1.00
C498   C     0.87096   0.64443   0.21633   0.00000  Uiso   1.00
C499   C     0.79586   0.35562   0.28403   0.00000  Uiso   1.00
C500   C     0.87089   0.35434   0.21615   0.00000  Uiso   1.00
H501   H     0.80948   0.48578   0.10870   0.00000  Uiso   1.00
H502   H     0.76735   0.62932   0.31080   0.00000  Uiso   1.00
H503   H     0.70249   0.38166   0.08111   0.00000  Uiso   1.00
H504   H     0.69464   0.38576   0.02385   0.00000  Uiso   1.00
H505   H     0.97978   0.39541   0.07937   0.00000  Uiso   1.00
H506   H     0.96091   0.36328   0.42718   0.00000  Uiso   1.00
H507   H     0.96740   0.37470   0.48445   0.00000  Uiso   1.00
H508   H     0.68342   0.37962   0.42939   0.00000  Uiso   1.00
H509   H     0.78734   0.36770   0.07130   0.00000  Uiso   1.00
H510   H     0.75818   0.37242   0.13465   0.00000  Uiso   1.00
H511   H     0.81637   0.39356   0.10817   0.00000  Uiso   1.00
H512   H     0.85627   0.47078   0.38508   0.00000  Uiso   1.00
H513   H     0.88247   0.35666   0.42284   0.00000  Uiso   1.00
H514   H     0.89681   0.36620   0.36040   0.00000  Uiso   1.00
H515   H     0.84127   0.38471   0.40217   0.00000  Uiso   1.00
H516   H     0.67074   0.42150   0.16857   0.00000  Uiso   1.00
H517   H     0.95168   0.41099   0.21911   0.00000  Uiso   1.00
H518   H     0.95230   0.44977   0.17528   0.00000  Uiso   1.00
H519   H     0.99562   0.57734   0.33284   0.00000  Uiso   1.00
H520   H     0.71422   0.54933   0.32534   0.00000  Uiso   1.00
H521   H     0.71449   0.58881   0.28229   0.00000  Uiso   1.00
H522   H     0.68373   0.38451   0.23392   0.00000  Uiso   1.00
H523   H     0.95357   0.48166   0.09993   0.00000  Uiso   1.00
H524   H     0.70969   0.40806   0.27451   0.00000  Uiso   1.00
H525   H     0.74455   0.37623   0.22383   0.00000  Uiso   1.00
H526   H     0.95509   0.59377   0.23011   0.00000  Uiso   1.00
H527   H     0.97951   0.61615   0.27248   0.00000  Uiso   1.00
H528   H     0.91846   0.62276   0.28250   0.00000  Uiso   1.00
H529   H     0.71519   0.51072   0.40707   0.00000  Uiso   1.00
H530   H     0.69183   0.49466   0.49153   0.00000  Uiso   1.00
H531   H     0.97544   0.44807   0.01914   0.00000  Uiso   1.00
H532   H     0.89967   0.62699   0.18998   0.00000  Uiso   1.00
H533   H     0.76721   0.37308   0.31047   0.00000  Uiso   1.00
H534   H     0.89937   0.37073   0.18942   0.00000  Uiso   1.00
N535   N     0.71426   0.50001   0.25001   0.00000  Uiso   1.00
N536   N     0.95241   0.49999   0.24999   0.00000  Uiso   1.00
O537   O     0.79512   0.56108   0.25001   0.00000  Uiso   1.00
O538   O     0.96729   0.42683   0.44242   0.00000  Uiso   1.00
O539   O     0.76156   0.42829   0.10003   0.00000  Uiso   1.00
O540   O     0.90126   0.41854   0.40010   0.00000  Uiso   1.00
O541   O     0.72917   0.43532   0.20653   0.00000  Uiso   1.00
O542   O     0.93632   0.56330   0.29626   0.00000  Uiso   1.00
O543   O     0.87154   0.43892   0.25000   0.00000  Uiso   1.00
O544   O     0.87157   0.56107   0.25000   0.00000  Uiso   1.00
O545   O     0.79510   0.43893   0.25000   0.00000  Uiso   1.00
O546   O     0.77328   0.50001   0.31613   0.00000  Uiso   1.00
O547   O     0.89339   0.49999   0.18388   0.00000  Uiso   1.00
O548   O     0.84972   0.50000   0.31612   0.00000  Uiso   1.00
O549   O     0.81695   0.50000   0.18388   0.00000  Uiso   1.00
O550   O     0.69556   0.44313   0.05974   0.00000  Uiso   1.00
Zn551  Zn    0.78229   0.50001   0.25000   0.00000  Uiso   1.00
Zn552  Zn    0.88438   0.49999   0.25000   0.00000  Uiso   1.00
C553   C     0.16666   0.91302   0.25020   0.00000  Uiso   1.00
C554   C     0.12919   0.97904   0.28412   0.00000  Uiso   1.00
C555   C     0.16664   0.70943   0.24997   0.00000  Uiso   1.00
C556   C     0.16672   0.95727   0.25025   0.00000  Uiso   1.00
C557   C     0.31844   0.80265   0.22562   0.00000  Uiso   1.00
C558   C     0.01480   0.86389   0.27466   0.00000  Uiso   1.00
C559   C     0.03202   0.80170   0.22761   0.00000  Uiso   1.00
C560   C     0.30103   0.86468   0.27305   0.00000  Uiso   1.00
C561   C     0.13707   0.83205   0.33836   0.00000  Uiso   1.00
C562   C     0.19630   0.83134   0.16153   0.00000  Uiso   1.00
C563   C     0.12044   0.82241   0.38950   0.00000  Uiso   1.00
C564   C     0.16667   0.75365   0.24987   0.00000  Uiso   1.00
C565   C     0.21291   0.81889   0.11039   0.00000  Uiso   1.00
C566   C     0.05931   0.81736   0.46769   0.00000  Uiso   1.00
C567   C     0.27320   0.79082   0.03843   0.00000  Uiso   1.00
C568   C     0.07357   0.82885   0.41984   0.00000  Uiso   1.00
C569   C     0.26031   0.80918   0.08434   0.00000  Uiso   1.00
C570   C     0.15280   0.80508   0.40768   0.00000  Uiso   1.00
C571   C     0.17923   0.80994   0.08965   0.00000  Uiso   1.00
C572   C     0.13860   0.79108   0.45475   0.00000  Uiso   1.00
C573   C     0.19193   0.78971   0.04463   0.00000  Uiso   1.00
C574   C     0.09055   0.79636   0.48501   0.00000  Uiso   1.00
C575   C     0.10986   0.77413   0.05274   0.00000  Uiso   1.00
C576   C     0.23986   0.78257   0.01739   0.00000  Uiso   1.00
C577   C     0.17199   0.77739   0.47453   0.00000  Uiso   1.00
C578   C     0.15793   0.77973   0.02465   0.00000  Uiso   1.00
C579   C     0.01839   0.73291   0.06066   0.00000  Uiso   1.00
C580   C     0.31125   0.71752   0.44643   0.00000  Uiso   1.00
C581   C     0.11555   0.72229   0.10296   0.00000  Uiso   1.00
C582   C     0.21247   0.71328   0.39691   0.00000  Uiso   1.00
C583   C     0.30560   0.76952   0.19576   0.00000  Uiso   1.00
C584   C     0.02748   0.89654   0.30514   0.00000  Uiso   1.00
C585   C     0.04898   0.73328   0.23636   0.00000  Uiso   1.00
C586   C     0.21969   0.76553   0.44753   0.00000  Uiso   1.00
C587   C     0.28177   0.93349   0.26875   0.00000  Uiso   1.00
C588   C     0.07595   0.78178   0.03239   0.00000  Uiso   1.00
C589   C     0.25345   0.76740   0.46965   0.00000  Uiso   1.00
C590   C     0.20430   0.97776   0.21633   0.00000  Uiso   1.00
C591   C     0.12919   0.68896   0.28403   0.00000  Uiso   1.00
C592   C     0.20422   0.68767   0.21615   0.00000  Uiso   1.00
H593   H     0.14281   0.81911   0.10870   0.00000  Uiso   1.00
H594   H     0.10069   0.96265   0.31080   0.00000  Uiso   1.00
H595   H     0.03583   0.71499   0.08111   0.00000  Uiso   1.00
H596   H     0.02797   0.71909   0.02385   0.00000  Uiso   1.00
H597   H     0.31311   0.72874   0.07937   0.00000  Uiso   1.00
H598   H     0.29425   0.69661   0.42718   0.00000  Uiso   1.00
H599   H     0.30073   0.70803   0.48445   0.00000  Uiso   1.00
H600   H     0.01675   0.71295   0.42939   0.00000  Uiso   1.00
H601   H     0.12067   0.70103   0.07130   0.00000  Uiso   1.00
H602   H     0.09151   0.70575   0.13465   0.00000  Uiso   1.00
H603   H     0.14971   0.72689   0.10817   0.00000  Uiso   1.00
H604   H     0.18960   0.80412   0.38508   0.00000  Uiso   1.00
H605   H     0.21580   0.68999   0.42284   0.00000  Uiso   1.00
H606   H     0.23014   0.69953   0.36040   0.00000  Uiso   1.00
H607   H     0.17461   0.71804   0.40217   0.00000  Uiso   1.00
H608   H     0.00407   0.75484   0.16857   0.00000  Uiso   1.00
H609   H     0.28501   0.74432   0.21911   0.00000  Uiso   1.00
H610   H     0.28564   0.78310   0.17528   0.00000  Uiso   1.00
H611   H     0.32895   0.91068   0.33284   0.00000  Uiso   1.00
H612   H     0.04755   0.88266   0.32534   0.00000  Uiso   1.00
H613   H     0.04782   0.92215   0.28229   0.00000  Uiso   1.00
H614   H     0.01706   0.71785   0.23392   0.00000  Uiso   1.00
H615   H     0.28690   0.81499   0.09993   0.00000  Uiso   1.00
H616   H     0.04302   0.74140   0.27451   0.00000  Uiso   1.00
H617   H     0.07788   0.70956   0.22383   0.00000  Uiso   1.00
H618   H     0.28842   0.92711   0.23011   0.00000  Uiso   1.00
H619   H     0.31284   0.94949   0.27248   0.00000  Uiso   1.00
H620   H     0.25179   0.95609   0.28250   0.00000  Uiso   1.00
H621   H     0.04852   0.84405   0.40707   0.00000  Uiso   1.00
H622   H     0.02516   0.82800   0.49153   0.00000  Uiso   1.00
H623   H     0.30877   0.78140   0.01914   0.00000  Uiso   1.00
H624   H     0.23300   0.96032   0.18998   0.00000  Uiso   1.00
H625   H     0.10055   0.70641   0.31047   0.00000  Uiso   1.00
H626   H     0.23270   0.70407   0.18942   0.00000  Uiso   1.00
N627   N     0.04759   0.83334   0.25001   0.00000  Uiso   1.00
N628   N     0.28574   0.83332   0.24999   0.00000  Uiso   1.00
O629   O     0.12846   0.89442   0.25001   0.00000  Uiso   1.00
O630   O     0.30063   0.76016   0.44242   0.00000  Uiso   1.00
O631   O     0.09489   0.76163   0.10003   0.00000  Uiso   1.00
O632   O     0.23460   0.75188   0.40010   0.00000  Uiso   1.00
O633   O     0.06251   0.76865   0.20653   0.00000  Uiso   1.00
O634   O     0.26966   0.89663   0.29626   0.00000  Uiso   1.00
O635   O     0.20488   0.77225   0.25000   0.00000  Uiso   1.00
O636   O     0.20490   0.89441   0.25000   0.00000  Uiso   1.00
O637   O     0.12843   0.77226   0.25000   0.00000  Uiso   1.00
O638   O     0.10661   0.83334   0.31613   0.00000  Uiso   1.00
O639   O     0.22672   0.83333   0.18388   0.00000  Uiso   1.00
O640   O     0.18305   0.83333   0.31612   0.00000  Uiso   1.00
O641   O     0.15028   0.83334   0.18388   0.00000  Uiso   1.00
O642   O     0.02889   0.77646   0.05974   0.00000  Uiso   1.00
Zn643  Zn    0.11562   0.83334   0.25000   0.00000  Uiso   1.00
Zn644  Zn    0.21771   0.83333   0.25000   0.00000  Uiso   1.00
C645   C     0.49999   0.91302   0.25020   0.00000  Uiso   1.00
C646   C     0.46253   0.97904   0.28412   0.00000  Uiso   1.00
C647   C     0.49998   0.70943   0.24997   0.00000  Uiso   1.00
C648   C     0.50006   0.95727   0.25025   0.00000  Uiso   1.00
C649   C     0.65178   0.80265   0.22562   0.00000  Uiso   1.00
C650   C     0.34813   0.86389   0.27466   0.00000  Uiso   1.00
C651   C     0.36535   0.80170   0.22761   0.00000  Uiso   1.00
C652   C     0.63436   0.86468   0.27305   0.00000  Uiso   1.00
C653   C     0.47040   0.83205   0.33836   0.00000  Uiso   1.00
C654   C     0.52964   0.83134   0.16153   0.00000  Uiso   1.00
C655   C     0.45377   0.82241   0.38950   0.00000  Uiso   1.00
C656   C     0.50000   0.75365   0.24987   0.00000  Uiso   1.00
C657   C     0.54624   0.81889   0.11039   0.00000  Uiso   1.00
C658   C     0.39264   0.81736   0.46769   0.00000  Uiso   1.00
C659   C     0.60653   0.79082   0.03843   0.00000  Uiso   1.00
C660   C     0.40690   0.82885   0.41984   0.00000  Uiso   1.00
C661   C     0.59364   0.80918   0.08434   0.00000  Uiso   1.00
C662   C     0.48614   0.80508   0.40768   0.00000  Uiso   1.00
C663   C     0.51256   0.80994   0.08965   0.00000  Uiso   1.00
C664   C     0.47193   0.79108   0.45475   0.00000  Uiso   1.00
C665   C     0.52527   0.78971   0.04463   0.00000  Uiso   1.00
C666   C     0.42388   0.79636   0.48501   0.00000  Uiso   1.00
C667   C     0.44319   0.77413   0.05274   0.00000  Uiso   1.00
C668   C     0.57319   0.78257   0.01739   0.00000  Uiso   1.00
C669   C     0.50532   0.77739   0.47453   0.00000  Uiso   1.00
C670   C     0.49126   0.77973   0.02465   0.00000  Uiso   1.00
C671   C     0.35172   0.73291   0.06066   0.00000  Uiso   1.00
C672   C     0.64458   0.71752   0.44643   0.00000  Uiso   1.00
C673   C     0.44888   0.72229   0.10296   0.00000  Uiso   1.00
C674   C     0.54580   0.71328   0.39691   0.00000  Uiso   1.00
C675   C     0.63893   0.76952   0.19576   0.00000  Uiso   1.00
C676   C     0.36082   0.89654   0.30514   0.00000  Uiso   1.00
C677   C     0.38231   0.73328   0.23636   0.00000  Uiso   1.00
C678   C     0.55302   0.76553   0.44753   0.00000  Uiso   1.00
C679   C     0.61510   0.93349   0.26875   0.00000  Uiso   1.00
C680   C     0.40928   0.78178   0.03239   0.00000  Uiso   1.00
C681   C     0.58679   0.76740   0.46965   0.00000  Uiso   1.00
C682   C     0.53763   0.97776   0.21633   0.00000  Uiso   1.00
C683   C     0.46252   0.68896   0.28403   0.00000  Uiso   1.00
C684   C     0.53755   0.68767   0.21615   0.00000  Uiso   1.00
H685   H     0.47615   0.81911   0.10870   0.00000  Uiso   1.00
H686   H     0.43402   0.96265   0.31080   0.00000  Uiso   1.00
H687   H     0.36916   0.71499   0.08111   0.00000  Uiso   1.00
H688   H     0.36130   0.71909   0.02385   0.00000  Uiso   1.00
H689   H     0.64645   0.72874   0.07937   0.00000  Uiso   1.00
H690   H     0.62758   0.69661   0.42718   0.00000  Uiso   1.00
H691   H     0.63407   0.70803   0.48445   0.00000  Uiso   1.00
H692   H     0.35009   0.71295   0.42939   0.00000  Uiso   1.00
H693   H     0.45401   0.70103   0.07130   0.00000  Uiso   1.00
H694   H     0.42485   0.70575   0.13465   0.00000  Uiso   1.00
H695   H     0.48304   0.72689   0.10817   0.00000  Uiso   1.00
H696   H     0.52294   0.80412   0.38508   0.00000  Uiso   1.00
H697   H     0.54913   0.68999   0.42284   0.00000  Uiso   1.00
H698   H     0.56348   0.69953   0.36040   0.00000  Uiso   1.00
H699   H     0.50794   0.71804   0.40217   0.00000  Uiso   1.00
H700   H     0.33741   0.75484   0.16857   0.00000  Uiso   1.00
H701   H     0.61834   0.74432   0.21911   0.00000  Uiso   1.00
H702   H     0.61897   0.78310   0.17528   0.00000  Uiso   1.00
H703   H     0.66228   0.91068   0.33284   0.00000  Uiso   1.00
H704   H     0.38088   0.88266   0.32534   0.00000  Uiso   1.00
H705   H     0.38115   0.92215   0.28229   0.00000  Uiso   1.00
H706   H     0.35040   0.71785   0.23392   0.00000  Uiso   1.00
H707   H     0.62024   0.81499   0.09993   0.00000  Uiso   1.00
H708   H     0.37636   0.74140   0.27451   0.00000  Uiso   1.00
H709   H     0.41121   0.70956   0.22383   0.00000  Uiso   1.00
H710   H     0.62176   0.92711   0.23011   0.00000  Uiso   1.00
H711   H     0.64617   0.94949   0.27248   0.00000  Uiso   1.00
H712   H     0.58513   0.95609   0.28250   0.00000  Uiso   1.00
H713   H     0.38185   0.84405   0.40707   0.00000  Uiso   1.00
H714   H     0.35850   0.82800   0.49153   0.00000  Uiso   1.00
H715   H     0.64211   0.78140   0.01914   0.00000  Uiso   1.00
H716   H     0.56634   0.96032   0.18998   0.00000  Uiso   1.00
H717   H     0.43388   0.70641   0.31047   0.00000  Uiso   1.00
H718   H     0.56604   0.70407   0.18942   0.00000  Uiso   1.00
N719   N     0.38093   0.83334   0.25001   0.00000  Uiso   1.00
N720   N     0.61907   0.83332   0.24999   0.00000  Uiso   1.00
O721   O     0.46179   0.89442   0.25001   0.00000  Uiso   1.00
O722   O     0.63396   0.76016   0.44242   0.00000  Uiso   1.00
O723   O     0.42823   0.76163   0.10003   0.00000  Uiso   1.00
O724   O     0.56793   0.75188   0.40010   0.00000  Uiso   1.00
O725   O     0.39584   0.76865   0.20653   0.00000  Uiso   1.00
O726   O     0.60299   0.89663   0.29626   0.00000  Uiso   1.00
O727   O     0.53821   0.77225   0.25000   0.00000  Uiso   1.00
O728   O     0.53823   0.89441   0.25000   0.00000  Uiso   1.00
O729   O     0.46177   0.77226   0.25000   0.00000  Uiso   1.00
O730   O     0.43994   0.83334   0.31613   0.00000  Uiso   1.00
O731   O     0.56006   0.83333   0.18388   0.00000  Uiso   1.00
O732   O     0.51639   0.83333   0.31612   0.00000  Uiso   1.00
O733   O     0.48361   0.83334   0.18388   0.00000  Uiso   1.00
O734   O     0.36223   0.77646   0.05974   0.00000  Uiso   1.00
Zn735  Zn    0.44896   0.83334   0.25000   0.00000  Uiso   1.00
Zn736  Zn    0.55104   0.83333   0.25000   0.00000  Uiso   1.00
C737   C     0.83332   0.91302   0.25020   0.00000  Uiso   1.00
C738   C     0.79586   0.97904   0.28412   0.00000  Uiso   1.00
C739   C     0.83331   0.70943   0.24997   0.00000  Uiso   1.00
C740   C     0.83339   0.95727   0.25025   0.00000  Uiso   1.00
C741   C     0.98511   0.80265   0.22562   0.00000  Uiso   1.00
C742   C     0.68147   0.86389   0.27466   0.00000  Uiso   1.00
C743   C     0.69869   0.80170   0.22761   0.00000  Uiso   1.00
C744   C     0.96770   0.86468   0.27305   0.00000  Uiso   1.00
C745   C     0.80374   0.83205   0.33836   0.00000  Uiso   1.00
C746   C     0.86297   0.83134   0.16153   0.00000  Uiso   1.00
C747   C     0.78711   0.82241   0.38950   0.00000  Uiso   1.00
C748   C     0.83333   0.75365   0.24987   0.00000  Uiso   1.00
C749   C     0.87957   0.81889   0.11039   0.00000  Uiso   1.00
C750   C     0.72597   0.81736   0.46769   0.00000  Uiso   1.00
C751   C     0.93986   0.79082   0.03843   0.00000  Uiso   1.00
C752   C     0.74023   0.82885   0.41984   0.00000  Uiso   1.00
C753   C     0.92698   0.80918   0.08434   0.00000  Uiso   1.00
C754   C     0.81947   0.80508   0.40768   0.00000  Uiso   1.00
C755   C     0.84589   0.80994   0.08965   0.00000  Uiso   1.00
C756   C     0.80527   0.79108   0.45475   0.00000  Uiso   1.00
C757   C     0.85860   0.78971   0.04463   0.00000  Uiso   1.00
C758   C     0.75722   0.79636   0.48501   0.00000  Uiso   1.00
C759   C     0.77652   0.77413   0.05274   0.00000  Uiso   1.00
C760   C     0.90653   0.78257   0.01739   0.00000  Uiso   1.00
C761   C     0.83866   0.77739   0.47453   0.00000  Uiso   1.00
C762   C     0.82459   0.77973   0.02465   0.00000  Uiso   1.00
C763   C     0.68505   0.73291   0.06066   0.00000  Uiso   1.00
C764   C     0.97792   0.71752   0.44643   0.00000  Uiso   1.00
C765   C     0.78221   0.72229   0.10296   0.00000  Uiso   1.00
C766   C     0.87914   0.71328   0.39691   0.00000  Uiso   1.00
C767   C     0.97227   0.76952   0.19576   0.00000  Uiso   1.00
C768   C     0.69415   0.89654   0.30514   0.00000  Uiso   1.00
C769   C     0.71565   0.73328   0.23636   0.00000  Uiso   1.00
C770   C     0.88636   0.76553   0.44753   0.00000  Uiso   1.00
C771   C     0.94844   0.93349   0.26875   0.00000  Uiso   1.00
C772   C     0.74262   0.78178   0.03239   0.00000  Uiso   1.00
C773   C     0.92012   0.76740   0.46965   0.00000  Uiso   1.00
C774   C     0.87096   0.97776   0.21633   0.00000  Uiso   1.00
C775   C     0.79586   0.68896   0.28403   0.00000  Uiso   1.00
C776   C     0.87089   0.68767   0.21615   0.00000  Uiso   1.00
H777   H     0.80948   0.81911   0.10870   0.00000  Uiso   1.00
H778   H     0.76735   0.96265   0.31080   0.00000  Uiso   1.00
H779   H     0.70249   0.71499   0.08111   0.00000  Uiso   1.00
H780   H     0.69464   0.71909   0.02385   0.00000  Uiso   1.00
H781   H     0.97978   0.72874   0.07937   0.00000  Uiso   1.00
H782   H     0.96091   0.69661   0.42718   0.00000  Uiso   1.00
H783   H     0.96740   0.70803   0.48445   0.00000  Uiso   1.00
H784   H     0.68342   0.71295   0.42939   0.00000  Uiso   1.00
H785   H     0.78734   0.70103   0.07130   0.00000  Uiso   1.00
H786   H     0.75818   0.70575   0.13465   0.00000  Uiso   1.00
H787   H     0.81637   0.72689   0.10817   0.00000  Uiso   1.00
H788   H     0.85627   0.80412   0.38508   0.00000  Uiso   1.00
H789   H     0.88247   0.68999   0.42284   0.00000  Uiso   1.00
H790   H     0.89681   0.69953   0.36040   0.00000  Uiso   1.00
H791   H     0.84127   0.71804   0.40217   0.00000  Uiso   1.00
H792   H     0.67074   0.75484   0.16857   0.00000  Uiso   1.00
H793   H     0.95168   0.74432   0.21911   0.00000  Uiso   1.00
H794   H     0.95230   0.78310   0.17528   0.00000  Uiso   1.00
H795   H     0.99562   0.91068   0.33284   0.00000  Uiso   1.00
H796   H     0.71422   0.88266   0.32534   0.00000  Uiso   1.00
H797   H     0.71449   0.92215   0.28229   0.00000  Uiso   1.00
H798   H     0.68373   0.71785   0.23392   0.00000  Uiso   1.00
H799   H     0.95357   0.81499   0.09993   0.00000  Uiso   1.00
H800   H     0.70969   0.74140   0.27451   0.00000  Uiso   1.00
H801   H     0.74455   0.70956   0.22383   0.00000  Uiso   1.00
H802   H     0.95509   0.92711   0.23011   0.00000  Uiso   1.00
H803   H     0.97951   0.94949   0.27248   0.00000  Uiso   1.00
H804   H     0.91846   0.95609   0.28250   0.00000  Uiso   1.00
H805   H     0.71519   0.84405   0.40707   0.00000  Uiso   1.00
H806   H     0.69183   0.82800   0.49153   0.00000  Uiso   1.00
H807   H     0.97544   0.78140   0.01914   0.00000  Uiso   1.00
H808   H     0.89967   0.96032   0.18998   0.00000  Uiso   1.00
H809   H     0.76721   0.70641   0.31047   0.00000  Uiso   1.00
H810   H     0.89937   0.70407   0.18942   0.00000  Uiso   1.00
N811   N     0.71426   0.83334   0.25001   0.00000  Uiso   1.00
N812   N     0.95241   0.83332   0.24999   0.00000  Uiso   1.00
O813   O     0.79512   0.89442   0.25001   0.00000  Uiso   1.00
O814   O     0.96729   0.76016   0.44242   0.00000  Uiso   1.00
O815   O     0.76156   0.76163   0.10003   0.00000  Uiso   1.00
O816   O     0.90126   0.75188   0.40010   0.00000  Uiso   1.00
O817   O     0.72917   0.76865   0.20653   0.00000  Uiso   1.00
O818   O     0.93632   0.89663   0.29626   0.00000  Uiso   1.00
O819   O     0.87154   0.77225   0.25000   0.00000  Uiso   1.00
O820   O     0.87157   0.89441   0.25000   0.00000  Uiso   1.00
O821   O     0.79510   0.77226   0.25000   0.00000  Uiso   1.00
O822   O     0.77328   0.83334   0.31613   0.00000  Uiso   1.00
O823   O     0.89339   0.83333   0.18388   0.00000  Uiso   1.00
O824   O     0.84972   0.83333   0.31612   0.00000  Uiso   1.00
O825   O     0.81695   0.83334   0.18388   0.00000  Uiso   1.00
O826   O     0.69556   0.77646   0.05974   0.00000  Uiso   1.00
Zn827  Zn    0.78229   0.83334   0.25000   0.00000  Uiso   1.00
Zn828  Zn    0.88438   0.83333   0.25000   0.00000  Uiso   1.00
C829   C     0.16666   0.24635   0.75020   0.00000  Uiso   1.00
C830   C     0.12919   0.31237   0.78412   0.00000  Uiso   1.00
C831   C     0.16664   0.04277   0.74997   0.00000  Uiso   1.00
C832   C     0.16672   0.29060   0.75025   0.00000  Uiso   1.00
C833   C     0.31844   0.13598   0.72562   0.00000  Uiso   1.00
C834   C     0.01480   0.19722   0.77466   0.00000  Uiso   1.00
C835   C     0.03202   0.13503   0.72761   0.00000  Uiso   1.00
C836   C     0.30103   0.19802   0.77305   0.00000  Uiso   1.00
C837   C     0.13707   0.16538   0.83836   0.00000  Uiso   1.00
C838   C     0.19630   0.16467   0.66153   0.00000  Uiso   1.00
C839   C     0.12044   0.15574   0.88950   0.00000  Uiso   1.00
C840   C     0.16667   0.08699   0.74987   0.00000  Uiso   1.00
C841   C     0.21291   0.15222   0.61039   0.00000  Uiso   1.00
C842   C     0.05931   0.15069   0.96769   0.00000  Uiso   1.00
C843   C     0.27320   0.12416   0.53843   0.00000  Uiso   1.00
C844   C     0.07357   0.16218   0.91984   0.00000  Uiso   1.00
C845   C     0.26031   0.14252   0.58434   0.00000  Uiso   1.00
C846   C     0.15280   0.13841   0.90768   0.00000  Uiso   1.00
C847   C     0.17923   0.14328   0.58965   0.00000  Uiso   1.00
C848   C     0.13860   0.12442   0.95475   0.00000  Uiso   1.00
C849   C     0.19193   0.12304   0.54463   0.00000  Uiso   1.00
C850   C     0.09055   0.12969   0.98501   0.00000  Uiso   1.00
C851   C     0.10986   0.10746   0.55274   0.00000  Uiso   1.00
C852   C     0.23986   0.11590   0.51739   0.00000  Uiso   1.00
C853   C     0.17199   0.11072   0.97453   0.00000  Uiso   1.00
C854   C     0.15793   0.11307   0.52465   0.00000  Uiso   1.00
C855   C     0.01839   0.06624   0.56066   0.00000  Uiso   1.00
C856   C     0.31125   0.05085   0.94643   0.00000  Uiso   1.00
C857   C     0.11555   0.05562   0.60296   0.00000  Uiso   1.00
C858   C     0.21247   0.04662   0.89691   0.00000  Uiso   1.00
C859   C     0.30560   0.10286   0.69576   0.00000  Uiso   1.00
C860   C     0.02748   0.22988   0.80514   0.00000  Uiso   1.00
C861   C     0.04898   0.06661   0.73636   0.00000  Uiso   1.00
C862   C     0.21969   0.09886   0.94753   0.00000  Uiso   1.00
C863   C     0.28177   0.26683   0.76875   0.00000  Uiso   1.00
C864   C     0.07595   0.11511   0.53239   0.00000  Uiso   1.00
C865   C     0.25345   0.10073   0.96965   0.00000  Uiso   1.00
C866   C     0.20430   0.31110   0.71633   0.00000  Uiso   1.00
C867   C     0.12919   0.02229   0.78403   0.00000  Uiso   1.00
C868   C     0.20422   0.02101   0.71615   0.00000  Uiso   1.00
H869   H     0.14281   0.15245   0.60870   0.00000  Uiso   1.00
H870   H     0.10069   0.29598   0.81080   0.00000  Uiso   1.00
H871   H     0.03583   0.04832   0.58111   0.00000  Uiso   1.00
H872   H     0.02797   0.05243   0.52385   0.00000  Uiso   1.00
H873   H     0.31311   0.06208   0.57937   0.00000  Uiso   1.00
H874   H     0.29425   0.02994   0.92718   0.00000  Uiso   1.00
H875   H     0.30073   0.04137   0.98445   0.00000  Uiso   1.00
H876   H     0.01675   0.04628   0.92939   0.00000  Uiso   1.00
H877   H     0.12067   0.03437   0.57130   0.00000  Uiso   1.00
H878   H     0.09151   0.03908   0.63465   0.00000  Uiso   1.00
H879   H     0.14971   0.06023   0.60817   0.00000  Uiso   1.00
H880   H     0.18960   0.13745   0.88508   0.00000  Uiso   1.00
H881   H     0.21580   0.02332   0.92284   0.00000  Uiso   1.00
H882   H     0.23014   0.03287   0.86040   0.00000  Uiso   1.00
H883   H     0.17461   0.05138   0.90217   0.00000  Uiso   1.00
H884   H     0.00407   0.08817   0.66857   0.00000  Uiso   1.00
H885   H     0.28501   0.07766   0.71911   0.00000  Uiso   1.00
H886   H     0.28564   0.11643   0.67528   0.00000  Uiso   1.00
H887   H     0.32895   0.24401   0.83284   0.00000  Uiso   1.00
H888   H     0.04755   0.21600   0.82534   0.00000  Uiso   1.00
H889   H     0.04782   0.25548   0.78229   0.00000  Uiso   1.00
H890   H     0.01706   0.05118   0.73392   0.00000  Uiso   1.00
H891   H     0.28690   0.14832   0.59993   0.00000  Uiso   1.00
H892   H     0.04302   0.07473   0.77451   0.00000  Uiso   1.00
H893   H     0.07788   0.04290   0.72383   0.00000  Uiso   1.00
H894   H     0.28842   0.26044   0.73011   0.00000  Uiso   1.00
H895   H     0.31284   0.28282   0.77248   0.00000  Uiso   1.00
H896   H     0.25179   0.28942   0.78250   0.00000  Uiso   1.00
H897   H     0.04852   0.17739   0.90707   0.00000  Uiso   1.00
H898   H     0.02516   0.16133   0.99153   0.00000  Uiso   1.00
H899   H     0.30877   0.11474   0.51914   0.00000  Uiso   1.00
H900   H     0.23300   0.29366   0.68998   0.00000  Uiso   1.00
H901   H     0.10055   0.03974   0.81047   0.00000  Uiso   1.00
H902   H     0.23270   0.03740   0.68942   0.00000  Uiso   1.00
N903   N     0.04759   0.16668   0.75001   0.00000  Uiso   1.00
N904   N     0.28574   0.16666   0.74999   0.00000  Uiso   1.00
O905   O     0.12846   0.22775   0.75001   0.00000  Uiso   1.00
O906   O     0.30063   0.09350   0.94242   0.00000  Uiso   1.00
O907   O     0.09489   0.09496   0.60003   0.00000  Uiso   1.00
O908   O     0.23460   0.08521   0.90010   0.00000  Uiso   1.00
O909   O     0.06251   0.10199   0.70653   0.00000  Uiso   1.00
O910   O     0.26966   0.22996   0.79626   0.00000  Uiso   1.00
O911   O     0.20488   0.10558   0.75000   0.00000  Uiso   1.00
O912   O     0.20490   0.22774   0.75000   0.00000  Uiso   1.00
O913   O     0.12843   0.10559   0.75000   0.00000  Uiso   1.00
O914   O     0.10661   0.16667   0.81613   0.00000  Uiso   1.00
O915   O     0.22672   0.16666   0.68388   0.00000  Uiso   1.00
O916   O     0.18305   0.16666   0.81612   0.00000  Uiso   1.00
O917   O     0.15028   0.16667   0.68388   0.00000  Uiso   1.00
O918   O     0.02889   0.10979   0.55974   0.00000  Uiso   1.00
Zn919  Zn    0.11562   0.16667   0.75000   0.00000  Uiso   1.00
Zn920  Zn    0.21771   0.16666   0.75000   0.00000  Uiso   1.00
C921   C     0.49999   0.24635   0.75020   0.00000  Uiso   1.00
C922   C     0.46253   0.31237   0.78412   0.00000  Uiso   1.00
C923   C     0.49998   0.04277   0.74997   0.00000  Uiso   1.00
C924   C     0.50006   0.29060   0.75025   0.00000  Uiso   1.00
C925   C     0.65178   0.13598   0.72562   0.00000  Uiso   1.00
C926   C     0.34813   0.19722   0.77466   0.00000  Uiso   1.00
C927   C     0.36535   0.13503   0.72761   0.00000  Uiso   1.00
C928   C     0.63436   0.19802   0.77305   0.00000  Uiso   1.00
C929   C     0.47040   0.16538   0.83836   0.00000  Uiso   1.00
C930   C     0.52964   0.16467   0.66153   0.00000  Uiso   1.00
C931   C     0.45377   0.15574   0.88950   0.00000  Uiso   1.00
C932   C     0.50000   0.08699   0.74987   0.00000  Uiso   1.00
C933   C     0.54624   0.15222   0.61039   0.00000  Uiso   1.00
C934   C     0.39264   0.15069   0.96769   0.00000  Uiso   1.00
C935   C     0.60653   0.12416   0.53843   0.00000  Uiso   1.00
C936   C     0.40690   0.16218   0.91984   0.00000  Uiso   1.00
C937   C     0.59364   0.14252   0.58434   0.00000  Uiso   1.00
C938   C     0.48614   0.13841   0.90768   0.00000  Uiso   1.00
C939   C     0.51256   0.14328   0.58965   0.00000  Uiso   1.00
C940   C     0.47193   0.12442   0.95475   0.00000  Uiso   1.00
C941   C     0.52527   0.12304   0.54463   0.00000  Uiso   1.00
C942   C     0.42388   0.12969   0.98501   0.00000  Uiso   1.00
C943   C     0.44319   0.10746   0.55274   0.00000  Uiso   1.00
C944   C     0.57319   0.11590   0.51739   0.00000  Uiso   1.00
C945   C     0.50532   0.11072   0.97453   0.00000  Uiso   1.00
C946   C     0.49126   0.11307   0.52465   0.00000  Uiso   1.00
C947   C     0.35172   0.06624   0.56066   0.00000  Uiso   1.00
C948   C     0.64458   0.05085   0.94643   0.00000  Uiso   1.00
C949   C     0.44888   0.05562   0.60296   0.00000  Uiso   1.00
C950   C     0.54580   0.04662   0.89691   0.00000  Uiso   1.00
C951   C     0.63893   0.10286   0.69576   0.00000  Uiso   1.00
C952   C     0.36082   0.22988   0.80514   0.00000  Uiso   1.00
C953   C     0.38231   0.06661   0.73636   0.00000  Uiso   1.00
C954   C     0.55302   0.09886   0.94753   0.00000  Uiso   1.00
C955   C     0.61510   0.26683   0.76875   0.00000  Uiso   1.00
C956   C     0.40928   0.11511   0.53239   0.00000  Uiso   1.00
C957   C     0.58679   0.10073   0.96965   0.00000  Uiso   1.00
C958   C     0.53763   0.31110   0.71633   0.00000  Uiso   1.00
C959   C     0.46252   0.02229   0.78403   0.00000  Uiso   1.00
C960   C     0.53755   0.02101   0.71615   0.00000  Uiso   1.00
H961   H     0.47615   0.15245   0.60870   0.00000  Uiso   1.00
H962   H     0.43402   0.29598   0.81080   0.00000  Uiso   1.00
H963   H     0.36916   0.04832   0.58111   0.00000  Uiso   1.00
H964   H     0.36130   0.05243   0.52385   0.00000  Uiso   1.00
H965   H     0.64645   0.06208   0.57937   0.00000  Uiso   1.00
H966   H     0.62758   0.02994   0.92718   0.00000  Uiso   1.00
H967   H     0.63407   0.04137   0.98445   0.00000  Uiso   1.00
H968   H     0.35009   0.04628   0.92939   0.00000  Uiso   1.00
H969   H     0.45401   0.03437   0.57130   0.00000  Uiso   1.00
H970   H     0.42485   0.03908   0.63465   0.00000  Uiso   1.00
H971   H     0.48304   0.06023   0.60817   0.00000  Uiso   1.00
H972   H     0.52294   0.13745   0.88508   0.00000  Uiso   1.00
H973   H     0.54913   0.02332   0.92284   0.00000  Uiso   1.00
H974   H     0.56348   0.03287   0.86040   0.00000  Uiso   1.00
H975   H     0.50794   0.05138   0.90217   0.00000  Uiso   1.00
H976   H     0.33741   0.08817   0.66857   0.00000  Uiso   1.00
H977   H     0.61834   0.07766   0.71911   0.00000  Uiso   1.00
H978   H     0.61897   0.11643   0.67528   0.00000  Uiso   1.00
H979   H     0.66228   0.24401   0.83284   0.00000  Uiso   1.00
H980   H     0.38088   0.21600   0.82534   0.00000  Uiso   1.00
H981   H     0.38115   0.25548   0.78229   0.00000  Uiso   1.00
H982   H     0.35040   0.05118   0.73392   0.00000  Uiso   1.00
H983   H     0.62024   0.14832   0.59993   0.00000  Uiso   1.00
H984   H     0.37636   0.07473   0.77451   0.00000  Uiso   1.00
H985   H     0.41121   0.04290   0.72383   0.00000  Uiso   1.00
H986   H     0.62176   0.26044   0.73011   0.00000  Uiso   1.00
H987   H     0.64617   0.28282   0.77248   0.00000  Uiso   1.00
H988   H     0.58513   0.28942   0.78250   0.00000  Uiso   1.00
H989   H     0.38185   0.17739   0.90707   0.00000  Uiso   1.00
H990   H     0.35850   0.16133   0.99153   0.00000  Uiso   1.00
H991   H     0.64211   0.11474   0.51914   0.00000  Uiso   1.00
H992   H     0.56634   0.29366   0.68998   0.00000  Uiso   1.00
H993   H     0.43388   0.03974   0.81047   0.00000  Uiso   1.00
H994   H     0.56604   0.03740   0.68942   0.00000  Uiso   1.00
N995   N     0.38093   0.16668   0.75001   0.00000  Uiso   1.00
N996   N     0.61907   0.16666   0.74999   0.00000  Uiso   1.00
O997   O     0.46179   0.22775   0.75001   0.00000  Uiso   1.00
O998   O     0.63396   0.09350   0.94242   0.00000  Uiso   1.00
O999   O     0.42823   0.09496   0.60003   0.00000  Uiso   1.00
O1000  O     0.56793   0.08521   0.90010   0.00000  Uiso   1.00
O1001  O     0.39584   0.10199   0.70653   0.00000  Uiso   1.00
O1002  O     0.60299   0.22996   0.79626   0.00000  Uiso   1.00
O1003  O     0.53821   0.10558   0.75000   0.00000  Uiso   1.00
O1004  O     0.53823   0.22774   0.75000   0.00000  Uiso   1.00
O1005  O     0.46177   0.10559   0.75000   0.00000  Uiso   1.00
O1006  O     0.43994   0.16667   0.81613   0.00000  Uiso   1.00
O1007  O     0.56006   0.16666   0.68388   0.00000  Uiso   1.00
O1008  O     0.51639   0.16666   0.81612   0.00000  Uiso   1.00
O1009  O     0.48361   0.16667   0.68388   0.00000  Uiso   1.00
O1010  O     0.36223   0.10979   0.55974   0.00000  Uiso   1.00
Zn1011 Zn    0.44896   0.16667   0.75000   0.00000  Uiso   1.00
Zn1012 Zn    0.55104   0.16666   0.75000   0.00000  Uiso   1.00
C1013  C     0.83332   0.24635   0.75020   0.00000  Uiso   1.00
C1014  C     0.79586   0.31237   0.78412   0.00000  Uiso   1.00
C1015  C     0.83331   0.04277   0.74997   0.00000  Uiso   1.00
C1016  C     0.83339   0.29060   0.75025   0.00000  Uiso   1.00
C1017  C     0.98511   0.13598   0.72562   0.00000  Uiso   1.00
C1018  C     0.68147   0.19722   0.77466   0.00000  Uiso   1.00
C1019  C     0.69869   0.13503   0.72761   0.00000  Uiso   1.00
C1020  C     0.96770   0.19802   0.77305   0.00000  Uiso   1.00
C1021  C     0.80374   0.16538   0.83836   0.00000  Uiso   1.00
C1022  C     0.86297   0.16467   0.66153   0.00000  Uiso   1.00
C1023  C     0.78711   0.15574   0.88950   0.00000  Uiso   1.00
C1024  C     0.83333   0.08699   0.74987   0.00000  Uiso   1.00
C1025  C     0.87957   0.15222   0.61039   0.00000  Uiso   1.00
C1026  C     0.72597   0.15069   0.96769   0.00000  Uiso   1.00
C1027  C     0.93986   0.12416   0.53843   0.00000  Uiso   1.00
C1028  C     0.74023   0.16218   0.91984   0.00000  Uiso   1.00
C1029  C     0.92698   0.14252   0.58434   0.00000  Uiso   1.00
C1030  C     0.81947   0.13841   0.90768   0.00000  Uiso   1.00
C1031  C     0.84589   0.14328   0.58965   0.00000  Uiso   1.00
C1032  C     0.80527   0.12442   0.95475   0.00000  Uiso   1.00
C1033  C     0.85860   0.12304   0.54463   0.00000  Uiso   1.00
C1034  C     0.75722   0.12969   0.98501   0.00000  Uiso   1.00
C1035  C     0.77652   0.10746   0.55274   0.00000  Uiso   1.00
C1036  C     0.90653   0.11590   0.51739   0.00000  Uiso   1.00
C1037  C     0.83866   0.11072   0.97453   0.00000  Uiso   1.00
C1038  C     0.82459   0.11307   0.52465   0.00000  Uiso   1.00
C1039  C     0.68505   0.06624   0.56066   0.00000  Uiso   1.00
C1040  C     0.97792   0.05085   0.94643   0.00000  Uiso   1.00
C1041  C     0.78221   0.05562   0.60296   0.00000  Uiso   1.00
C1042  C     0.87914   0.04662   0.89691   0.00000  Uiso   1.00
C1043  C     0.97227   0.10286   0.69576   0.00000  Uiso   1.00
C1044  C     0.69415   0.22988   0.80514   0.00000  Uiso   1.00
C1045  C     0.71565   0.06661   0.73636   0.00000  Uiso   1.00
C1046  C     0.88636   0.09886   0.94753   0.00000  Uiso   1.00
C1047  C     0.94844   0.26683   0.76875   0.00000  Uiso   1.00
C1048  C     0.74262   0.11511   0.53239   0.00000  Uiso   1.00
C1049  C     0.92012   0.10073   0.96965   0.00000  Uiso   1.00
C1050  C     0.87096   0.31110   0.71633   0.00000  Uiso   1.00
C1051  C     0.79586   0.02229   0.78403   0.00000  Uiso   1.00
C1052  C     0.87089   0.02101   0.71615   0.00000  Uiso   1.00
H1053  H     0.80948   0.15245   0.60870   0.00000  Uiso   1.00
H1054  H     0.76735   0.29598   0.81080   0.00000  Uiso   1.00
H1055  H     0.70249   0.04832   0.58111   0.00000  Uiso   1.00
H1056  H     0.69464   0.05243   0.52385   0.00000  Uiso   1.00
H1057  H     0.97978   0.06208   0.57937   0.00000  Uiso   1.00
H1058  H     0.96091   0.02994   0.92718   0.00000  Uiso   1.00
H1059  H     0.96740   0.04137   0.98445   0.00000  Uiso   1.00
H1060  H     0.68342   0.04628   0.92939   0.00000  Uiso   1.00
H1061  H     0.78734   0.03437   0.57130   0.00000  Uiso   1.00
H1062  H     0.75818   0.03908   0.63465   0.00000  Uiso   1.00
H1063  H     0.81637   0.06023   0.60817   0.00000  Uiso   1.00
H1064  H     0.85627   0.13745   0.88508   0.00000  Uiso   1.00
H1065  H     0.88247   0.02332   0.92284   0.00000  Uiso   1.00
H1066  H     0.89681   0.03287   0.86040   0.00000  Uiso   1.00
H1067  H     0.84127   0.05138   0.90217   0.00000  Uiso   1.00
H1068  H     0.67074   0.08817   0.66857   0.00000  Uiso   1.00
H1069  H     0.95168   0.07766   0.71911   0.00000  Uiso   1.00
H1070  H     0.95230   0.11643   0.67528   0.00000  Uiso   1.00
H1071  H     0.99562   0.24401   0.83284   0.00000  Uiso   1.00
H1072  H     0.71422   0.21600   0.82534   0.00000  Uiso   1.00
H1073  H     0.71449   0.25548   0.78229   0.00000  Uiso   1.00
H1074  H     0.68373   0.05118   0.73392   0.00000  Uiso   1.00
H1075  H     0.95357   0.14832   0.59993   0.00000  Uiso   1.00
H1076  H     0.70969   0.07473   0.77451   0.00000  Uiso   1.00
H1077  H     0.74455   0.04290   0.72383   0.00000  Uiso   1.00
H1078  H     0.95509   0.26044   0.73011   0.00000  Uiso   1.00
H1079  H     0.97951   0.28282   0.77248   0.00000  Uiso   1.00
H1080  H     0.91846   0.28942   0.78250   0.00000  Uiso   1.00
H1081  H     0.71519   0.17739   0.90707   0.00000  Uiso   1.00
H1082  H     0.69183   0.16133   0.99153   0.00000  Uiso   1.00
H1083  H     0.97544   0.11474   0.51914   0.00000  Uiso   1.00
H1084  H     0.89967   0.29366   0.68998   0.00000  Uiso   1.00
H1085  H     0.76721   0.03974   0.81047   0.00000  Uiso   1.00
H1086  H     0.89937   0.03740   0.68942   0.00000  Uiso   1.00
N1087  N     0.71426   0.16668   0.75001   0.00000  Uiso   1.00
N1088  N     0.95241   0.16666   0.74999   0.00000  Uiso   1.00
O1089  O     0.79512   0.22775   0.75001   0.00000  Uiso   1.00
O1090  O     0.96729   0.09350   0.94242   0.00000  Uiso   1.00
O1091  O     0.76156   0.09496   0.60003   0.00000  Uiso   1.00
O1092  O     0.90126   0.08521   0.90010   0.00000  Uiso   1.00
O1093  O     0.72917   0.10199   0.70653   0.00000  Uiso   1.00
O1094  O     0.93632   0.22996   0.79626   0.00000  Uiso   1.00
O1095  O     0.87154   0.10558   0.75000   0.00000  Uiso   1.00
O1096  O     0.87157   0.22774   0.75000   0.00000  Uiso   1.00
O1097  O     0.79510   0.10559   0.75000   0.00000  Uiso   1.00
O1098  O     0.77328   0.16667   0.81613   0.00000  Uiso   1.00
O1099  O     0.89339   0.16666   0.68388   0.00000  Uiso   1.00
O1100  O     0.84972   0.16666   0.81612   0.00000  Uiso   1.00
O1101  O     0.81695   0.16667   0.68388   0.00000  Uiso   1.00
O1102  O     0.69556   0.10979   0.55974   0.00000  Uiso   1.00
Zn1103 Zn    0.78229   0.16667   0.75000   0.00000  Uiso   1.00
Zn1104 Zn    0.88438   0.16666   0.75000   0.00000  Uiso   1.00
C1105  C     0.16666   0.57969   0.75020   0.00000  Uiso   1.00
C1106  C     0.12919   0.64571   0.78412   0.00000  Uiso   1.00
C1107  C     0.16664   0.37610   0.74997   0.00000  Uiso   1.00
C1108  C     0.16672   0.62394   0.75025   0.00000  Uiso   1.00
C1109  C     0.31844   0.46931   0.72562   0.00000  Uiso   1.00
C1110  C     0.01480   0.53055   0.77466   0.00000  Uiso   1.00
C1111  C     0.03202   0.46837   0.72761   0.00000  Uiso   1.00
C1112  C     0.30103   0.53135   0.77305   0.00000  Uiso   1.00
C1113  C     0.13707   0.49872   0.83836   0.00000  Uiso   1.00
C1114  C     0.19630   0.49800   0.66153   0.00000  Uiso   1.00
C1115  C     0.12044   0.48908   0.88950   0.00000  Uiso   1.00
C1116  C     0.16667   0.42032   0.74987   0.00000  Uiso   1.00
C1117  C     0.21291   0.48555   0.61039   0.00000  Uiso   1.00
C1118  C     0.05931   0.48403   0.96769   0.00000  Uiso   1.00
C1119  C     0.27320   0.45749   0.53843   0.00000  Uiso   1.00
C1120  C     0.07357   0.49552   0.91984   0.00000  Uiso   1.00
C1121  C     0.26031   0.47585   0.58434   0.00000  Uiso   1.00
C1122  C     0.15280   0.47175   0.90768   0.00000  Uiso   1.00
C1123  C     0.17923   0.47661   0.58965   0.00000  Uiso   1.00
C1124  C     0.13860   0.45775   0.95475   0.00000  Uiso   1.00
C1125  C     0.19193   0.45637   0.54463   0.00000  Uiso   1.00
C1126  C     0.09055   0.46303   0.98501   0.00000  Uiso   1.00
C1127  C     0.10986   0.44079   0.55274   0.00000  Uiso   1.00
C1128  C     0.23986   0.44924   0.51739   0.00000  Uiso   1.00
C1129  C     0.17199   0.44406   0.97453   0.00000  Uiso   1.00
C1130  C     0.15793   0.44640   0.52465   0.00000  Uiso   1.00
C1131  C     0.01839   0.39958   0.56066   0.00000  Uiso   1.00
C1132  C     0.31125   0.38418   0.94643   0.00000  Uiso   1.00
C1133  C     0.11555   0.38896   0.60296   0.00000  Uiso   1.00
C1134  C     0.21247   0.37995   0.89691   0.00000  Uiso   1.00
C1135  C     0.30560   0.43619   0.69576   0.00000  Uiso   1.00
C1136  C     0.02748   0.56321   0.80514   0.00000  Uiso   1.00
C1137  C     0.04898   0.39995   0.73636   0.00000  Uiso   1.00
C1138  C     0.21969   0.43219   0.94753   0.00000  Uiso   1.00
C1139  C     0.28177   0.60016   0.76875   0.00000  Uiso   1.00
C1140  C     0.07595   0.44844   0.53239   0.00000  Uiso   1.00
C1141  C     0.25345   0.43406   0.96965   0.00000  Uiso   1.00
C1142  C     0.20430   0.64443   0.71633   0.00000  Uiso   1.00
C1143  C     0.12919   0.35562   0.78403   0.00000  Uiso   1.00
C1144  C     0.20422   0.35434   0.71615   0.00000  Uiso   1.00
H1145  H     0.14281   0.48578   0.60870   0.00000  Uiso   1.00
H1146  H     0.10069   0.62932   0.81080   0.00000  Uiso   1.00
H1147  H     0.03583   0.38166   0.58111   0.00000  Uiso   1.00
H1148  H     0.02797   0.38576   0.52385   0.00000  Uiso   1.00
H1149  H     0.31311   0.39541   0.57937   0.00000  Uiso   1.00
H1150  H     0.29425   0.36328   0.92718   0.00000  Uiso   1.00
H1151  H     0.30073   0.37470   0.98445   0.00000  Uiso   1.00
H1152  H     0.01675   0.37962   0.92939   0.00000  Uiso   1.00
H1153  H     0.12067   0.36770   0.57130   0.00000  Uiso   1.00
H1154  H     0.09151   0.37242   0.63465   0.00000  Uiso   1.00
H1155  H     0.14971   0.39356   0.60817   0.00000  Uiso   1.00
H1156  H     0.18960   0.47078   0.88508   0.00000  Uiso   1.00
H1157  H     0.21580   0.35666   0.92284   0.00000  Uiso   1.00
H1158  H     0.23014   0.36620   0.86040   0.00000  Uiso   1.00
H1159  H     0.17461   0.38471   0.90217   0.00000  Uiso   1.00
H1160  H     0.00407   0.42150   0.66857   0.00000  Uiso   1.00
H1161  H     0.28501   0.41099   0.71911   0.00000  Uiso   1.00
H1162  H     0.28564   0.44977   0.67528   0.00000  Uiso   1.00
H1163  H     0.32895   0.57734   0.83284   0.00000  Uiso   1.00
H1164  H     0.04755   0.54933   0.82534   0.00000  Uiso   1.00
H1165  H     0.04782   0.58881   0.78229   0.00000  Uiso   1.00
H1166  H     0.01706   0.38451   0.73392   0.00000  Uiso   1.00
H1167  H     0.28690   0.48166   0.59993   0.00000  Uiso   1.00
H1168  H     0.04302   0.40806   0.77451   0.00000  Uiso   1.00
H1169  H     0.07788   0.37623   0.72383   0.00000  Uiso   1.00
H1170  H     0.28842   0.59377   0.73011   0.00000  Uiso   1.00
H1171  H     0.31284   0.61615   0.77248   0.00000  Uiso   1.00
H1172  H     0.25179   0.62276   0.78250   0.00000  Uiso   1.00
H1173  H     0.04852   0.51072   0.90707   0.00000  Uiso   1.00
H1174  H     0.02516   0.49466   0.99153   0.00000  Uiso   1.00
H1175  H     0.30877   0.44807   0.51914   0.00000  Uiso   1.00
H1176  H     0.23300   0.62699   0.68998   0.00000  Uiso   1.00
H1177  H     0.10055   0.37308   0.81047   0.00000  Uiso   1.00
H1178  H     0.23270   0.37073   0.68942   0.00000  Uiso   1.00
N1179  N     0.04759   0.50001   0.75001   0.00000  Uiso   1.00
N1180  N     0.28574   0.49999   0.74999   0.00000  Uiso   1.00
O1181  O     0.12846   0.56108   0.75001   0.00000  Uiso   1.00
O1182  O     0.30063   0.42683   0.94242   0.00000  Uiso   1.00
O1183  O     0.09489   0.42829   0.60003   0.00000  Uiso   1.00
O1184  O     0.23460   0.41854   0.90010   0.00000  Uiso   1.00
O1185  O     0.06251   0.43532   0.70653   0.00000  Uiso   1.00
O1186  O     0.26966   0.56330   0.79626   0.00000  Uiso   1.00
O1187  O     0.20488   0.43892   0.75000   0.00000  Uiso   1.00
O1188  O     0.20490   0.56107   0.75000   0.00000  Uiso   1.00
O1189  O     0.12843   0.43893   0.75000   0.00000  Uiso   1.00
O1190  O     0.10661   0.50001   0.81613   0.00000  Uiso   1.00
O1191  O     0.22672   0.49999   0.68388   0.00000  Uiso   1.00
O1192  O     0.18305   0.50000   0.81612   0.00000  Uiso   1.00
O1193  O     0.15028   0.50000   0.68388   0.00000  Uiso   1.00
O1194  O     0.02889   0.44313   0.55974   0.00000  Uiso   1.00
Zn1195 Zn    0.11562   0.50001   0.75000   0.00000  Uiso   1.00
Zn1196 Zn    0.21771   0.49999   0.75000   0.00000  Uiso   1.00
C1197  C     0.49999   0.57969   0.75020   0.00000  Uiso   1.00
C1198  C     0.46253   0.64571   0.78412   0.00000  Uiso   1.00
C1199  C     0.49998   0.37610   0.74997   0.00000  Uiso   1.00
C1200  C     0.50006   0.62394   0.75025   0.00000  Uiso   1.00
C1201  C     0.65178   0.46931   0.72562   0.00000  Uiso   1.00
C1202  C     0.34813   0.53055   0.77466   0.00000  Uiso   1.00
C1203  C     0.36535   0.46837   0.72761   0.00000  Uiso   1.00
C1204  C     0.63436   0.53135   0.77305   0.00000  Uiso   1.00
C1205  C     0.47040   0.49872   0.83836   0.00000  Uiso   1.00
C1206  C     0.52964   0.49800   0.66153   0.00000  Uiso   1.00
C1207  C     0.45377   0.48908   0.88950   0.00000  Uiso   1.00
C1208  C     0.50000   0.42032   0.74987   0.00000  Uiso   1.00
C1209  C     0.54624   0.48555   0.61039   0.00000  Uiso   1.00
C1210  C     0.39264   0.48403   0.96769   0.00000  Uiso   1.00
C1211  C     0.60653   0.45749   0.53843   0.00000  Uiso   1.00
C1212  C     0.40690   0.49552   0.91984   0.00000  Uiso   1.00
C1213  C     0.59364   0.47585   0.58434   0.00000  Uiso   1.00
C1214  C     0.48614   0.47175   0.90768   0.00000  Uiso   1.00
C1215  C     0.51256   0.47661   0.58965   0.00000  Uiso   1.00
C1216  C     0.47193   0.45775   0.95475   0.00000  Uiso   1.00
C1217  C     0.52527   0.45637   0.54463   0.00000  Uiso   1.00
C1218  C     0.42388   0.46303   0.98501   0.00000  Uiso   1.00
C1219  C     0.44319   0.44079   0.55274   0.00000  Uiso   1.00
C1220  C     0.57319   0.44924   0.51739   0.00000  Uiso   1.00
C1221  C     0.50532   0.44406   0.97453   0.00000  Uiso   1.00
C1222  C     0.49126   0.44640   0.52465   0.00000  Uiso   1.00
C1223  C     0.35172   0.39958   0.56066   0.00000  Uiso   1.00
C1224  C     0.64458   0.38418   0.94643   0.00000  Uiso   1.00
C1225  C     0.44888   0.38896   0.60296   0.00000  Uiso   1.00
C1226  C     0.54580   0.37995   0.89691   0.00000  Uiso   1.00
C1227  C     0.63893   0.43619   0.69576   0.00000  Uiso   1.00
C1228  C     0.36082   0.56321   0.80514   0.00000  Uiso   1.00
C1229  C     0.38231   0.39995   0.73636   0.00000  Uiso   1.00
C1230  C     0.55302   0.43219   0.94753   0.00000  Uiso   1.00
C1231  C     0.61510   0.60016   0.76875   0.00000  Uiso   1.00
C1232  C     0.40928   0.44844   0.53239   0.00000  Uiso   1.00
C1233  C     0.58679   0.43406   0.96965   0.00000  Uiso   1.00
C1234  C     0.53763   0.64443   0.71633   0.00000  Uiso   1.00
C1235  C     0.46252   0.35562   0.78403   0.00000  Uiso   1.00
C1236  C     0.53755   0.35434   0.71615   0.00000  Uiso   1.00
H1237  H     0.47615   0.48578   0.60870   0.00000  Uiso   1.00
H1238  H     0.43402   0.62932   0.81080   0.00000  Uiso   1.00
H1239  H     0.36916   0.38166   0.58111   0.00000  Uiso   1.00
H1240  H     0.36130   0.38576   0.52385   0.00000  Uiso   1.00
H1241  H     0.64645   0.39541   0.57937   0.00000  Uiso   1.00
H1242  H     0.62758   0.36328   0.92718   0.00000  Uiso   1.00
H1243  H     0.63407   0.37470   0.98445   0.00000  Uiso   1.00
H1244  H     0.35009   0.37962   0.92939   0.00000  Uiso   1.00
H1245  H     0.45401   0.36770   0.57130   0.00000  Uiso   1.00
H1246  H     0.42485   0.37242   0.63465   0.00000  Uiso   1.00
H1247  H     0.48304   0.39356   0.60817   0.00000  Uiso   1.00
H1248  H     0.52294   0.47078   0.88508   0.00000  Uiso   1.00
H1249  H     0.54913   0.35666   0.92284   0.00000  Uiso   1.00
H1250  H     0.56348   0.36620   0.86040   0.00000  Uiso   1.00
H1251  H     0.50794   0.38471   0.90217   0.00000  Uiso   1.00
H1252  H     0.33741   0.42150   0.66857   0.00000  Uiso   1.00
H1253  H     0.61834   0.41099   0.71911   0.00000  Uiso   1.00
H1254  H     0.61897   0.44977   0.67528   0.00000  Uiso   1.00
H1255  H     0.66228   0.57734   0.83284   0.00000  Uiso   1.00
H1256  H     0.38088   0.54933   0.82534   0.00000  Uiso   1.00
H1257  H     0.38115   0.58881   0.78229   0.00000  Uiso   1.00
H1258  H     0.35040   0.38451   0.73392   0.00000  Uiso   1.00
H1259  H     0.62024   0.48166   0.59993   0.00000  Uiso   1.00
H1260  H     0.37636   0.40806   0.77451   0.00000  Uiso   1.00
H1261  H     0.41121   0.37623   0.72383   0.00000  Uiso   1.00
H1262  H     0.62176   0.59377   0.73011   0.00000  Uiso   1.00
H1263  H     0.64617   0.61615   0.77248   0.00000  Uiso   1.00
H1264  H     0.58513   0.62276   0.78250   0.00000  Uiso   1.00
H1265  H     0.38185   0.51072   0.90707   0.00000  Uiso   1.00
H1266  H     0.35850   0.49466   0.99153   0.00000  Uiso   1.00
H1267  H     0.64211   0.44807   0.51914   0.00000  Uiso   1.00
H1268  H     0.56634   0.62699   0.68998   0.00000  Uiso   1.00
H1269  H     0.43388   0.37308   0.81047   0.00000  Uiso   1.00
H1270  H     0.56604   0.37073   0.68942   0.00000  Uiso   1.00
N1271  N     0.38093   0.50001   0.75001   0.00000  Uiso   1.00
N1272  N     0.61907   0.49999   0.74999   0.00000  Uiso   1.00
O1273  O     0.46179   0.56108   0.75001   0.00000  Uiso   1.00
O1274  O     0.63396   0.42683   0.94242   0.00000  Uiso   1.00
O1275  O     0.42823   0.42829   0.60003   0.00000  Uiso   1.00
O1276  O     0.56793   0.41854   0.90010   0.00000  Uiso   1.00
O1277  O     0.39584   0.43532   0.70653   0.00000  Uiso   1.00
O1278  O     0.60299   0.56330   0.79626   0.00000  Uiso   1.00
O1279  O     0.53821   0.43892   0.75000   0.00000  Uiso   1.00
O1280  O     0.53823   0.56107   0.75000   0.00000  Uiso   1.00
O1281  O     0.46177   0.43893   0.75000   0.00000  Uiso   1.00
O1282  O     0.43994   0.50001   0.81613   0.00000  Uiso   1.00
O1283  O     0.56006   0.49999   0.68388   0.00000  Uiso   1.00
O1284  O     0.51639   0.50000   0.81612   0.00000  Uiso   1.00
O1285  O     0.48361   0.50000   0.68388   0.00000  Uiso   1.00
O1286  O     0.36223   0.44313   0.55974   0.00000  Uiso   1.00
Zn1287 Zn    0.44896   0.50001   0.75000   0.00000  Uiso   1.00
Zn1288 Zn    0.55104   0.49999   0.75000   0.00000  Uiso   1.00
C1289  C     0.83332   0.57969   0.75020   0.00000  Uiso   1.00
C1290  C     0.79586   0.64571   0.78412   0.00000  Uiso   1.00
C1291  C     0.83331   0.37610   0.74997   0.00000  Uiso   1.00
C1292  C     0.83339   0.62394   0.75025   0.00000  Uiso   1.00
C1293  C     0.98511   0.46931   0.72562   0.00000  Uiso   1.00
C1294  C     0.68147   0.53055   0.77466   0.00000  Uiso   1.00
C1295  C     0.69869   0.46837   0.72761   0.00000  Uiso   1.00
C1296  C     0.96770   0.53135   0.77305   0.00000  Uiso   1.00
C1297  C     0.80374   0.49872   0.83836   0.00000  Uiso   1.00
C1298  C     0.86297   0.49800   0.66153   0.00000  Uiso   1.00
C1299  C     0.78711   0.48908   0.88950   0.00000  Uiso   1.00
C1300  C     0.83333   0.42032   0.74987   0.00000  Uiso   1.00
C1301  C     0.87957   0.48555   0.61039   0.00000  Uiso   1.00
C1302  C     0.72597   0.48403   0.96769   0.00000  Uiso   1.00
C1303  C     0.93986   0.45749   0.53843   0.00000  Uiso   1.00
C1304  C     0.74023   0.49552   0.91984   0.00000  Uiso   1.00
C1305  C     0.92698   0.47585   0.58434   0.00000  Uiso   1.00
C1306  C     0.81947   0.47175   0.90768   0.00000  Uiso   1.00
C1307  C     0.84589   0.47661   0.58965   0.00000  Uiso   1.00
C1308  C     0.80527   0.45775   0.95475   0.00000  Uiso   1.00
C1309  C     0.85860   0.45637   0.54463   0.00000  Uiso   1.00
C1310  C     0.75722   0.46303   0.98501   0.00000  Uiso   1.00
C1311  C     0.77652   0.44079   0.55274   0.00000  Uiso   1.00
C1312  C     0.90653   0.44924   0.51739   0.00000  Uiso   1.00
C1313  C     0.83866   0.44406   0.97453   0.00000  Uiso   1.00
C1314  C     0.82459   0.44640   0.52465   0.00000  Uiso   1.00
C1315  C     0.68505   0.39958   0.56066   0.00000  Uiso   1.00
C1316  C     0.97792   0.38418   0.94643   0.00000  Uiso   1.00
C1317  C     0.78221   0.38896   0.60296   0.00000  Uiso   1.00
C1318  C     0.87914   0.37995   0.89691   0.00000  Uiso   1.00
C1319  C     0.97227   0.43619   0.69576   0.00000  Uiso   1.00
C1320  C     0.69415   0.56321   0.80514   0.00000  Uiso   1.00
C1321  C     0.71565   0.39995   0.73636   0.00000  Uiso   1.00
C1322  C     0.88636   0.43219   0.94753   0.00000  Uiso   1.00
C1323  C     0.94844   0.60016   0.76875   0.00000  Uiso   1.00
C1324  C     0.74262   0.44844   0.53239   0.00000  Uiso   1.00
C1325  C     0.92012   0.43406   0.96965   0.00000  Uiso   1.00
C1326  C     0.87096   0.64443   0.71633   0.00000  Uiso   1.00
C1327  C     0.79586   0.35562   0.78403   0.00000  Uiso   1.00
C1328  C     0.87089   0.35434   0.71615   0.00000  Uiso   1.00
H1329  H     0.80948   0.48578   0.60870   0.00000  Uiso   1.00
H1330  H     0.76735   0.62932   0.81080   0.00000  Uiso   1.00
H1331  H     0.70249   0.38166   0.58111   0.00000  Uiso   1.00
H1332  H     0.69464   0.38576   0.52385   0.00000  Uiso   1.00
H1333  H     0.97978   0.39541   0.57937   0.00000  Uiso   1.00
H1334  H     0.96091   0.36328   0.92718   0.00000  Uiso   1.00
H1335  H     0.96740   0.37470   0.98445   0.00000  Uiso   1.00
H1336  H     0.68342   0.37962   0.92939   0.00000  Uiso   1.00
H1337  H     0.78734   0.36770   0.57130   0.00000  Uiso   1.00
H1338  H     0.75818   0.37242   0.63465   0.00000  Uiso   1.00
H1339  H     0.81637   0.39356   0.60817   0.00000  Uiso   1.00
H1340  H     0.85627   0.47078   0.88508   0.00000  Uiso   1.00
H1341  H     0.88247   0.35666   0.92284   0.00000  Uiso   1.00
H1342  H     0.89681   0.36620   0.86040   0.00000  Uiso   1.00
H1343  H     0.84127   0.38471   0.90217   0.00000  Uiso   1.00
H1344  H     0.67074   0.42150   0.66857   0.00000  Uiso   1.00
H1345  H     0.95168   0.41099   0.71911   0.00000  Uiso   1.00
H1346  H     0.95230   0.44977   0.67528   0.00000  Uiso   1.00
H1347  H     0.99562   0.57734   0.83284   0.00000  Uiso   1.00
H1348  H     0.71422   0.54933   0.82534   0.00000  Uiso   1.00
H1349  H     0.71449   0.58881   0.78229   0.00000  Uiso   1.00
H1350  H     0.68373   0.38451   0.73392   0.00000  Uiso   1.00
H1351  H     0.95357   0.48166   0.59993   0.00000  Uiso   1.00
H1352  H     0.70969   0.40806   0.77451   0.00000  Uiso   1.00
H1353  H     0.74455   0.37623   0.72383   0.00000  Uiso   1.00
H1354  H     0.95509   0.59377   0.73011   0.00000  Uiso   1.00
H1355  H     0.97951   0.61615   0.77248   0.00000  Uiso   1.00
H1356  H     0.91846   0.62276   0.78250   0.00000  Uiso   1.00
H1357  H     0.71519   0.51072   0.90707   0.00000  Uiso   1.00
H1358  H     0.69183   0.49466   0.99153   0.00000  Uiso   1.00
H1359  H     0.97544   0.44807   0.51914   0.00000  Uiso   1.00
H1360  H     0.89967   0.62699   0.68998   0.00000  Uiso   1.00
H1361  H     0.76721   0.37308   0.81047   0.00000  Uiso   1.00
H1362  H     0.89937   0.37073   0.68942   0.00000  Uiso   1.00
N1363  N     0.71426   0.50001   0.75001   0.00000  Uiso   1.00
N1364  N     0.95241   0.49999   0.74999   0.00000  Uiso   1.00
O1365  O     0.79512   0.56108   0.75001   0.00000  Uiso   1.00
O1366  O     0.96729   0.42683   0.94242   0.00000  Uiso   1.00
O1367  O     0.76156   0.42829   0.60003   0.00000  Uiso   1.00
O1368  O     0.90126   0.41854   0.90010   0.00000  Uiso   1.00
O1369  O     0.72917   0.43532   0.70653   0.00000  Uiso   1.00
O1370  O     0.93632   0.56330   0.79626   0.00000  Uiso   1.00
O1371  O     0.87154   0.43892   0.75000   0.00000  Uiso   1.00
O1372  O     0.87157   0.56107   0.75000   0.00000  Uiso   1.00
O1373  O     0.79510   0.43893   0.75000   0.00000  Uiso   1.00
O1374  O     0.77328   0.50001   0.81613   0.00000  Uiso   1.00
O1375  O     0.89339   0.49999   0.68388   0.00000  Uiso   1.00
O1376  O     0.84972   0.50000   0.81612   0.00000  Uiso   1.00
O1377  O     0.81695   0.50000   0.68388   0.00000  Uiso   1.00
O1378  O     0.69556   0.44313   0.55974   0.00000  Uiso   1.00
Zn1379 Zn    0.78229   0.50001   0.75000   0.00000  Uiso   1.00
Zn1380 Zn    0.88438   0.49999   0.75000   0.00000  Uiso   1.00
C1381  C     0.16666   0.91302   0.75020   0.00000  Uiso   1.00
C1382  C     0.12919   0.97904   0.78412   0.00000  Uiso   1.00
C1383  C     0.16664   0.70943   0.74997   0.00000  Uiso   1.00
C1384  C     0.16672   0.95727   0.75025   0.00000  Uiso   1.00
C1385  C     0.31844   0.80265   0.72562   0.00000  Uiso   1.00
C1386  C     0.01480   0.86389   0.77466   0.00000  Uiso   1.00
C1387  C     0.03202   0.80170   0.72761   0.00000  Uiso   1.00
C1388  C     0.30103   0.86468   0.77305   0.00000  Uiso   1.00
C1389  C     0.13707   0.83205   0.83836   0.00000  Uiso   1.00
C1390  C     0.19630   0.83134   0.66153   0.00000  Uiso   1.00
C1391  C     0.12044   0.82241   0.88950   0.00000  Uiso   1.00
C1392  C     0.16667   0.75365   0.74987   0.00000  Uiso   1.00
C1393  C     0.21291   0.81889   0.61039   0.00000  Uiso   1.00
C1394  C     0.05931   0.81736   0.96769   0.00000  Uiso   1.00
C1395  C     0.27320   0.79082   0.53843   0.00000  Uiso   1.00
C1396  C     0.07357   0.82885   0.91984   0.00000  Uiso   1.00
C1397  C     0.26031   0.80918   0.58434   0.00000  Uiso   1.00
C1398  C     0.15280   0.80508   0.90768   0.00000  Uiso   1.00
C1399  C     0.17923   0.80994   0.58965   0.00000  Uiso   1.00
C1400  C     0.13860   0.79108   0.95475   0.00000  Uiso   1.00
C1401  C     0.19193   0.78971   0.54463   0.00000  Uiso   1.00
C1402  C     0.09055   0.79636   0.98501   0.00000  Uiso   1.00
C1403  C     0.10986   0.77413   0.55274   0.00000  Uiso   1.00
C1404  C     0.23986   0.78257   0.51739   0.00000  Uiso   1.00
C1405  C     0.17199   0.77739   0.97453   0.00000  Uiso   1.00
C1406  C     0.15793   0.77973   0.52465   0.00000  Uiso   1.00
C1407  C     0.01839   0.73291   0.56066   0.00000  Uiso   1.00
C1408  C     0.31125   0.71752   0.94643   0.00000  Uiso   1.00
C1409  C     0.11555   0.72229   0.60296   0.00000  Uiso   1.00
C1410  C     0.21247   0.71328   0.89691   0.00000  Uiso   1.00
C1411  C     0.30560   0.76952   0.69576   0.00000  Uiso   1.00
C1412  C     0.02748   0.89654   0.80514   0.00000  Uiso   1.00
C1413  C     0.04898   0.73328   0.73636   0.00000  Uiso   1.00
C1414  C     0.21969   0.76553   0.94753   0.00000  Uiso   1.00
C1415  C     0.28177   0.93349   0.76875   0.00000  Uiso   1.00
C1416  C     0.07595   0.78178   0.53239   0.00000  Uiso   1.00
C1417  C     0.25345   0.76740   0.96965   0.00000  Uiso   1.00
C1418  C     0.20430   0.97776   0.71633   0.00000  Uiso   1.00
C1419  C     0.12919   0.68896   0.78403   0.00000  Uiso   1.00
C1420  C     0.20422   0.68767   0.71615   0.00000  Uiso   1.00
H1421  H     0.14281   0.81911   0.60870   0.00000  Uiso   1.00
H1422  H     0.10069   0.96265   0.81080   0.00000  Uiso   1.00
H1423  H     0.03583   0.71499   0.58111   0.00000  Uiso   1.00
H1424  H     0.02797   0.71909   0.52385   0.00000  Uiso   1.00
H1425  H     0.31311   0.72874   0.57937   0.00000  Uiso   1.00
H1426  H     0.29425   0.69661   0.92718   0.00000  Uiso   1.00
H1427  H     0.30073   0.70803   0.98445   0.00000  Uiso   1.00
H1428  H     0.01675   0.71295   0.92939   0.00000  Uiso   1.00
H1429  H     0.12067   0.70103   0.57130   0.00000  Uiso   1.00
H1430  H     0.09151   0.70575   0.63465   0.00000  Uiso   1.00
H1431  H     0.14971   0.72689   0.60817   0.00000  Uiso   1.00
H1432  H     0.18960   0.80412   0.88508   0.00000  Uiso   1.00
H1433  H     0.21580   0.68999   0.92284   0.00000  Uiso   1.00
H1434  H     0.23014   0.69953   0.86040   0.00000  Uiso   1.00
H1435  H     0.17461   0.71804   0.90217   0.00000  Uiso   1.00
H1436  H     0.00407   0.75484   0.66857   0.00000  Uiso   1.00
H1437  H     0.28501   0.74432   0.71911   0.00000  Uiso   1.00
H1438  H     0.28564   0.78310   0.67528   0.00000  Uiso   1.00
H1439  H     0.32895   0.91068   0.83284   0.00000  Uiso   1.00
H1440  H     0.04755   0.88266   0.82534   0.00000  Uiso   1.00
H1441  H     0.04782   0.92215   0.78229   0.00000  Uiso   1.00
H1442  H     0.01706   0.71785   0.73392   0.00000  Uiso   1.00
H1443  H     0.28690   0.81499   0.59993   0.00000  Uiso   1.00
H1444  H     0.04302   0.74140   0.77451   0.00000  Uiso   1.00
H1445  H     0.07788   0.70956   0.72383   0.00000  Uiso   1.00
H1446  H     0.28842   0.92711   0.73011   0.00000  Uiso   1.00
H1447  H     0.31284   0.94949   0.77248   0.00000  Uiso   1.00
H1448  H     0.25179   0.95609   0.78250   0.00000  Uiso   1.00
H1449  H     0.04852   0.84405   0.90707   0.00000  Uiso   1.00
H1450  H     0.02516   0.82800   0.99153   0.00000  Uiso   1.00
H1451  H     0.30877   0.78140   0.51914   0.00000  Uiso   1.00
H1452  H     0.23300   0.96032   0.68998   0.00000  Uiso   1.00
H1453  H     0.10055   0.70641   0.81047   0.00000  Uiso   1.00
H1454  H     0.23270   0.70407   0.68942   0.00000  Uiso   1.00
N1455  N     0.04759   0.83334   0.75001   0.00000  Uiso   1.00
N1456  N     0.28574   0.83332   0.74999   0.00000  Uiso   1.00
O1457  O     0.12846   0.89442   0.75001   0.00000  Uiso   1.00
O1458  O     0.30063   0.76016   0.94242   0.00000  Uiso   1.00
O1459  O     0.09489   0.76163   0.60003   0.00000  Uiso   1.00
O1460  O     0.23460   0.75188   0.90010   0.00000  Uiso   1.00
O1461  O     0.06251   0.76865   0.70653   0.00000  Uiso   1.00
O1462  O     0.26966   0.89663   0.79626   0.00000  Uiso   1.00
O1463  O     0.20488   0.77225   0.75000   0.00000  Uiso   1.00
O1464  O     0.20490   0.89441   0.75000   0.00000  Uiso   1.00
O1465  O     0.12843   0.77226   0.75000   0.00000  Uiso   1.00
O1466  O     0.10661   0.83334   0.81613   0.00000  Uiso   1.00
O1467  O     0.22672   0.83333   0.68388   0.00000  Uiso   1.00
O1468  O     0.18305   0.83333   0.81612   0.00000  Uiso   1.00
O1469  O     0.15028   0.83334   0.68388   0.00000  Uiso   1.00
O1470  O     0.02889   0.77646   0.55974   0.00000  Uiso   1.00
Zn1471 Zn    0.11562   0.83334   0.75000   0.00000  Uiso   1.00
Zn1472 Zn    0.21771   0.83333   0.75000   0.00000  Uiso   1.00
C1473  C     0.49999   0.91302   0.75020   0.00000  Uiso   1.00
C1474  C     0.46253   0.97904   0.78412   0.00000  Uiso   1.00
C1475  C     0.49998   0.70943   0.74997   0.00000  Uiso   1.00
C1476  C     0.50006   0.95727   0.75025   0.00000  Uiso   1.00
C1477  C     0.65178   0.80265   0.72562   0.00000  Uiso   1.00
C1478  C     0.34813   0.86389   0.77466   0.00000  Uiso   1.00
C1479  C     0.36535   0.80170   0.72761   0.00000  Uiso   1.00
C1480  C     0.63436   0.86468   0.77305   0.00000  Uiso   1.00
C1481  C     0.47040   0.83205   0.83836   0.00000  Uiso   1.00
C1482  C     0.52964   0.83134   0.66153   0.00000  Uiso   1.00
C1483  C     0.45377   0.82241   0.88950   0.00000  Uiso   1.00
C1484  C     0.50000   0.75365   0.74987   0.00000  Uiso   1.00
C1485  C     0.54624   0.81889   0.61039   0.00000  Uiso   1.00
C1486  C     0.39264   0.81736   0.96769   0.00000  Uiso   1.00
C1487  C     0.60653   0.79082   0.53843   0.00000  Uiso   1.00
C1488  C     0.40690   0.82885   0.91984   0.00000  Uiso   1.00
C1489  C     0.59364   0.80918   0.58434   0.00000  Uiso   1.00
C1490  C     0.48614   0.80508   0.90768   0.00000  Uiso   1.00
C1491  C     0.51256   0.80994   0.58965   0.00000  Uiso   1.00
C1492  C     0.47193   0.79108   0.95475   0.00000  Uiso   1.00
C1493  C     0.52527   0.78971   0.54463   0.00000  Uiso   1.00
C1494  C     0.42388   0.79636   0.98501   0.00000  Uiso   1.00
C1495  C     0.44319   0.77413   0.55274   0.00000  Uiso   1.00
C1496  C     0.57319   0.78257   0.51739   0.00000  Uiso   1.00
C1497  C     0.50532   0.77739   0.97453   0.00000  Uiso   1.00
C1498  C     0.49126   0.77973   0.52465   0.00000  Uiso   1.00
C1499  C     0.35172   0.73291   0.56066   0.00000  Uiso   1.00
C1500  C     0.64458   0.71752   0.94643   0.00000  Uiso   1.00
C1501  C     0.44888   0.72229   0.60296   0.00000  Uiso   1.00
C1502  C     0.54580   0.71328   0.89691   0.00000  Uiso   1.00
C1503  C     0.63893   0.76952   0.69576   0.00000  Uiso   1.00
C1504  C     0.36082   0.89654   0.80514   0.00000  Uiso   1.00
C1505  C     0.38231   0.73328   0.73636   0.00000  Uiso   1.00
C1506  C     0.55302   0.76553   0.94753   0.00000  Uiso   1.00
C1507  C     0.61510   0.93349   0.76875   0.00000  Uiso   1.00
C1508  C     0.40928   0.78178   0.53239   0.00000  Uiso   1.00
C1509  C     0.58679   0.76740   0.96965   0.00000  Uiso   1.00
C1510  C     0.53763   0.97776   0.71633   0.00000  Uiso   1.00
C1511  C     0.46252   0.68896   0.78403   0.00000  Uiso   1.00
C1512  C     0.53755   0.68767   0.71615   0.00000  Uiso   1.00
H1513  H     0.47615   0.81911   0.60870   0.00000  Uiso   1.00
H1514  H     0.43402   0.96265   0.81080   0.00000  Uiso   1.00
H1515  H     0.36916   0.71499   0.58111   0.00000  Uiso   1.00
H1516  H     0.36130   0.71909   0.52385   0.00000  Uiso   1.00
H1517  H     0.64645   0.72874   0.57937   0.00000  Uiso   1.00
H1518  H     0.62758   0.69661   0.92718   0.00000  Uiso   1.00
H1519  H     0.63407   0.70803   0.98445   0.00000  Uiso   1.00
H1520  H     0.35009   0.71295   0.92939   0.00000  Uiso   1.00
H1521  H     0.45401   0.70103   0.57130   0.00000  Uiso   1.00
H1522  H     0.42485   0.70575   0.63465   0.00000  Uiso   1.00
H1523  H     0.48304   0.72689   0.60817   0.00000  Uiso   1.00
H1524  H     0.52294   0.80412   0.88508   0.00000  Uiso   1.00
H1525  H     0.54913   0.68999   0.92284   0.00000  Uiso   1.00
H1526  H     0.56348   0.69953   0.86040   0.00000  Uiso   1.00
H1527  H     0.50794   0.71804   0.90217   0.00000  Uiso   1.00
H1528  H     0.33741   0.75484   0.66857   0.00000  Uiso   1.00
H1529  H     0.61834   0.74432   0.71911   0.00000  Uiso   1.00
H1530  H     0.61897   0.78310   0.67528   0.00000  Uiso   1.00
H1531  H     0.66228   0.91068   0.83284   0.00000  Uiso   1.00
H1532  H     0.38088   0.88266   0.82534   0.00000  Uiso   1.00
H1533  H     0.38115   0.92215   0.78229   0.00000  Uiso   1.00
H1534  H     0.35040   0.71785   0.73392   0.00000  Uiso   1.00
H1535  H     0.62024   0.81499   0.59993   0.00000  Uiso   1.00
H1536  H     0.37636   0.74140   0.77451   0.00000  Uiso   1.00
H1537  H     0.41121   0.70956   0.72383   0.00000  Uiso   1.00
H1538  H     0.62176   0.92711   0.73011   0.00000  Uiso   1.00
H1539  H     0.64617   0.94949   0.77248   0.00000  Uiso   1.00
H1540  H     0.58513   0.95609   0.78250   0.00000  Uiso   1.00
H1541  H     0.38185   0.84405   0.90707   0.00000  Uiso   1.00
H1542  H     0.35850   0.82800   0.99153   0.00000  Uiso   1.00
H1543  H     0.64211   0.78140   0.51914   0.00000  Uiso   1.00
H1544  H     0.56634   0.96032   0.68998   0.00000  Uiso   1.00
H1545  H     0.43388   0.70641   0.81047   0.00000  Uiso   1.00
H1546  H     0.56604   0.70407   0.68942   0.00000  Uiso   1.00
N1547  N     0.38093   0.83334   0.75001   0.00000  Uiso   1.00
N1548  N     0.61907   0.83332   0.74999   0.00000  Uiso   1.00
O1549  O     0.46179   0.89442   0.75001   0.00000  Uiso   1.00
O1550  O     0.63396   0.76016   0.94242   0.00000  Uiso   1.00
O1551  O     0.42823   0.76163   0.60003   0.00000  Uiso   1.00
O1552  O     0.56793   0.75188   0.90010   0.00000  Uiso   1.00
O1553  O     0.39584   0.76865   0.70653   0.00000  Uiso   1.00
O1554  O     0.60299   0.89663   0.79626   0.00000  Uiso   1.00
O1555  O     0.53821   0.77225   0.75000   0.00000  Uiso   1.00
O1556  O     0.53823   0.89441   0.75000   0.00000  Uiso   1.00
O1557  O     0.46177   0.77226   0.75000   0.00000  Uiso   1.00
O1558  O     0.43994   0.83334   0.81613   0.00000  Uiso   1.00
O1559  O     0.56006   0.83333   0.68388   0.00000  Uiso   1.00
O1560  O     0.51639   0.83333   0.81612   0.00000  Uiso   1.00
O1561  O     0.48361   0.83334   0.68388   0.00000  Uiso   1.00
O1562  O     0.36223   0.77646   0.55974   0.00000  Uiso   1.00
Zn1563 Zn    0.44896   0.83334   0.75000   0.00000  Uiso   1.00
Zn1564 Zn    0.55104   0.83333   0.75000   0.00000  Uiso   1.00
C1565  C     0.83332   0.91302   0.75020   0.00000  Uiso   1.00
C1566  C     0.79586   0.97904   0.78412   0.00000  Uiso   1.00
C1567  C     0.83331   0.70943   0.74997   0.00000  Uiso   1.00
C1568  C     0.83339   0.95727   0.75025   0.00000  Uiso   1.00
C1569  C     0.98511   0.80265   0.72562   0.00000  Uiso   1.00
C1570  C     0.68147   0.86389   0.77466   0.00000  Uiso   1.00
C1571  C     0.69869   0.80170   0.72761   0.00000  Uiso   1.00
C1572  C     0.96770   0.86468   0.77305   0.00000  Uiso   1.00
C1573  C     0.80374   0.83205   0.83836   0.00000  Uiso   1.00
C1574  C     0.86297   0.83134   0.66153   0.00000  Uiso   1.00
C1575  C     0.78711   0.82241   0.88950   0.00000  Uiso   1.00
C1576  C     0.83333   0.75365   0.74987   0.00000  Uiso   1.00
C1577  C     0.87957   0.81889   0.61039   0.00000  Uiso   1.00
C1578  C     0.72597   0.81736   0.96769   0.00000  Uiso   1.00
C1579  C     0.93986   0.79082   0.53843   0.00000  Uiso   1.00
C1580  C     0.74023   0.82885   0.91984   0.00000  Uiso   1.00
C1581  C     0.92698   0.80918   0.58434   0.00000  Uiso   1.00
C1582  C     0.81947   0.80508   0.90768   0.00000  Uiso   1.00
C1583  C     0.84589   0.80994   0.58965   0.00000  Uiso   1.00
C1584  C     0.80527   0.79108   0.95475   0.00000  Uiso   1.00
C1585  C     0.85860   0.78971   0.54463   0.00000  Uiso   1.00
C1586  C     0.75722   0.79636   0.98501   0.00000  Uiso   1.00
C1587  C     0.77652   0.77413   0.55274   0.00000  Uiso   1.00
C1588  C     0.90653   0.78257   0.51739   0.00000  Uiso   1.00
C1589  C     0.83866   0.77739   0.97453   0.00000  Uiso   1.00
C1590  C     0.82459   0.77973   0.52465   0.00000  Uiso   1.00
C1591  C     0.68505   0.73291   0.56066   0.00000  Uiso   1.00
C1592  C     0.97792   0.71752   0.94643   0.00000  Uiso   1.00
C1593  C     0.78221   0.72229   0.60296   0.00000  Uiso   1.00
C1594  C     0.87914   0.71328   0.89691   0.00000  Uiso   1.00
C1595  C     0.97227   0.76952   0.69576   0.00000  Uiso   1.00
C1596  C     0.69415   0.89654   0.80514   0.00000  Uiso   1.00
C1597  C     0.71565   0.73328   0.73636   0.00000  Uiso   1.00
C1598  C     0.88636   0.76553   0.94753   0.00000  Uiso   1.00
C1599  C     0.94844   0.93349   0.76875   0.00000  Uiso   1.00
C1600  C     0.74262   0.78178   0.53239   0.00000  Uiso   1.00
C1601  C     0.92012   0.76740   0.96965   0.00000  Uiso   1.00
C1602  C     0.87096   0.97776   0.71633   0.00000  Uiso   1.00
C1603  C     0.79586   0.68896   0.78403   0.00000  Uiso   1.00
C1604  C     0.87089   0.68767   0.71615   0.00000  Uiso   1.00
H1605  H     0.80948   0.81911   0.60870   0.00000  Uiso   1.00
H1606  H     0.76735   0.96265   0.81080   0.00000  Uiso   1.00
H1607  H     0.70249   0.71499   0.58111   0.00000  Uiso   1.00
H1608  H     0.69464   0.71909   0.52385   0.00000  Uiso   1.00
H1609  H     0.97978   0.72874   0.57937   0.00000  Uiso   1.00
H1610  H     0.96091   0.69661   0.92718   0.00000  Uiso   1.00
H1611  H     0.96740   0.70803   0.98445   0.00000  Uiso   1.00
H1612  H     0.68342   0.71295   0.92939   0.00000  Uiso   1.00
H1613  H     0.78734   0.70103   0.57130   0.00000  Uiso   1.00
H1614  H     0.75818   0.70575   0.63465   0.00000  Uiso   1.00
H1615  H     0.81637   0.72689   0.60817   0.00000  Uiso   1.00
H1616  H     0.85627   0.80412   0.88508   0.00000  Uiso   1.00
H1617  H     0.88247   0.68999   0.92284   0.00000  Uiso   1.00
H1618  H     0.89681   0.69953   0.86040   0.00000  Uiso   1.00
H1619  H     0.84127   0.71804   0.90217   0.00000  Uiso   1.00
H1620  H     0.67074   0.75484   0.66857   0.00000  Uiso   1.00
H1621  H     0.95168   0.74432   0.71911   0.00000  Uiso   1.00
H1622  H     0.95230   0.78310   0.67528   0.00000  Uiso   1.00
H1623  H     0.99562   0.91068   0.83284   0.00000  Uiso   1.00
H1624  H     0.71422   0.88266   0.82534   0.00000  Uiso   1.00
H1625  H     0.71449   0.92215   0.78229   0.00000  Uiso   1.00
H1626  H     0.68373   0.71785   0.73392   0.00000  Uiso   1.00
H1627  H     0.95357   0.81499   0.59993   0.00000  Uiso   1.00
H1628  H     0.70969   0.74140   0.77451   0.00000  Uiso   1.00
H1629  H     0.74455   0.70956   0.72383   0.00000  Uiso   1.00
H1630  H     0.95509   0.92711   0.73011   0.00000  Uiso   1.00
H1631  H     0.97951   0.94949   0.77248   0.00000  Uiso   1.00
H1632  H     0.91846   0.95609   0.78250   0.00000  Uiso   1.00
H1633  H     0.71519   0.84405   0.90707   0.00000  Uiso   1.00
H1634  H     0.69183   0.82800   0.99153   0.00000  Uiso   1.00
H1635  H     0.97544   0.78140   0.51914   0.00000  Uiso   1.00
H1636  H     0.89967   0.96032   0.68998   0.00000  Uiso   1.00
H1637  H     0.76721   0.70641   0.81047   0.00000  Uiso   1.00
H1638  H     0.89937   0.70407   0.68942   0.00000  Uiso   1.00
N1639  N     0.71426   0.83334   0.75001   0.00000  Uiso   1.00
N1640  N     0.95241   0.83332   0.74999   0.00000  Uiso   1.00
O1641  O     0.79512   0.89442   0.75001   0.00000  Uiso   1.00
O1642  O     0.96729   0.76016   0.94242   0.00000  Uiso   1.00
O1643  O     0.76156   0.76163   0.60003   0.00000  Uiso   1.00
O1644  O     0.90126   0.75188   0.90010   0.00000  Uiso   1.00
O1645  O     0.72917   0.76865   0.70653   0.00000  Uiso   1.00
O1646  O     0.93632   0.89663   0.79626   0.00000  Uiso   1.00
O1647  O     0.87154   0.77225   0.75000   0.00000  Uiso   1.00
O1648  O     0.87157   0.89441   0.75000   0.00000  Uiso   1.00
O1649  O     0.79510   0.77226   0.75000   0.00000  Uiso   1.00
O1650  O     0.77328   0.83334   0.81613   0.00000  Uiso   1.00
O1651  O     0.89339   0.83333   0.68388   0.00000  Uiso   1.00
O1652  O     0.84972   0.83333   0.81612   0.00000  Uiso   1.00
O1653  O     0.81695   0.83334   0.68388   0.00000  Uiso   1.00
O1654  O     0.69556   0.77646   0.55974   0.00000  Uiso   1.00
Zn1655 Zn    0.78229   0.83334   0.75000   0.00000  Uiso   1.00
Zn1656 Zn    0.88438   0.83333   0.75000   0.00000  Uiso   1.00
loop_
_geom_bond_atom_site_label_1
_geom_bond_atom_site_label_2
_geom_bond_distance
_geom_bond_site_symmetry_2
_ccdc_geom_bond_type
C1     O77     1.299   .     A
C1     O84     1.300   .     A
C1     C4      1.404   .     S
C2     C4      1.394   .     A
C2     H42     1.083   .     S
C2     C315    1.373   .     S
C3     C12     1.403   .     S
C3     C39     1.393   .     A
C3     C40     1.394   .     A
C4     C38     1.393   .     A
C5     N76     1.384   .     A
C5     C31     1.504   .     S
C5     C99     1.444   .     S
C6     C32     1.505   .     S
C6     N75     1.385   .     A
C6     C192    1.445   1_455 S
C7     O81     1.381   .     S
C7     N75     1.370   .     A
C7     C189    1.444   1_455 S
C8     O82     1.383   .     S
C8     N76     1.371   .     A
C8     C98     1.445   .     S
C9     O88     1.311   .     A
C9     O86     1.319   .     A
C9     C11     1.468   .     S
C10    O89     1.312   .     A
C10    O87     1.320   .     A
C10    C13     1.474   .     S
C11    C18     1.400   .     A
C11    C16     1.396   .     A
C12    O85     1.300   .     A
C12    O83     1.299   .     A
C13    C19     1.398   .     A
C13    C17     1.397   .     A
C14    H70     1.074   .     S
C14    C16     1.395   .     A
C14    C22     1.407   .     A
C15    C24     1.391   .     A
C15    H71     1.063   .     S
C15    C17     1.401   .     A
C16    H69     1.083   .     S
C17    H63     1.080   .     S
C18    H52     1.076   .     S
C18    C20     1.399   .     A
C19    C21     1.403   .     A
C19    H41     1.081   .     S
C20    C25     1.417   .     A
C20    C22     1.419   .     A
C21    C26     1.397   .     A
C21    C24     1.402   .     A
C22    C864    1.413   .     S
C23    C26     1.408   .     A
C23    C36     1.394   .     A
C23    O79     1.389   .     S
C24    C865    1.411   1_554 S
C25    C34     1.425   .     A
C25    C854    1.405   .     S
C26    C853    1.405   1_554 S
C27    O90     1.416   .     S
C27    H44     1.114   .     S
C27    H43     1.108   .     S
C27    H229    1.109   1_455 S
C28    H47     1.114   .     S
C28    H46     1.111   .     S
C28    O78     1.410   .     S
C28    H140    1.109   .     S
C29    H49     1.116   .     S
C29    H50     1.108   .     S
C29    O79     1.416   .     S
C29    H51     1.109   .     S
C30    H54     1.110   .     S
C30    O80     1.413   .     S
C30    H53     1.114   .     S
C30    H55     1.110   .     S
C31    H58     1.099   .     S
C31    H57     1.107   .     S
C31    H148    1.109   .     S
C32    H61     1.107   .     S
C32    H60     1.098   .     S
C32    H243    1.109   1_455 S
C33    H62     1.108   .     S
C33    H65     1.108   .     S
C33    H64     1.115   .     S
C33    O81     1.415   .     S
C34    C37     1.405   .     A
C34    O80     1.386   .     S
C35    O82     1.415   .     S
C35    H66     1.115   .     S
C35    H67     1.107   .     S
C35    H68     1.109   .     S
C36    O90     1.377   .     S
C36    C850    1.413   1_554 S
C37    O78     1.384   .     S
C37    C852    1.411   .     S
C38    H72     1.084   .     S
C38    C316    1.372   .     S
C39    H73     1.084   .     S
C39    C554    1.373   1_545 S
C40    H74     1.083   .     S
C40    C590    1.372   1_545 S
H45    C119    1.109   .     S
H48    C212    1.109   1_455 S
H56    C215    1.109   1_455 S
H59    C124    1.109   .     S
N75    Zn91    2.061   .     S
N76    Zn92    2.061   .     S
O77    Zn91    1.976   .     S
O83    Zn92    1.976   .     S
O84    Zn92    1.978   .     S
O85    Zn91    1.978   .     S
O86    Zn91    1.899   .     S
O87    Zn92    1.899   .     S
O88    Zn92    1.877   .     S
O89    Zn91    1.877   .     S
C93    O169    1.299   .     A
C93    O176    1.300   .     A
C93    C96     1.404   .     S
C94    C96     1.394   .     A
C94    H134    1.083   .     S
C94    C407    1.373   .     S
C95    C104    1.403   .     S
C95    C131    1.393   .     A
C95    C132    1.394   .     A
C96    C130    1.393   .     A
C97    N168    1.384   .     A
C97    C123    1.504   .     S
C97    C191    1.444   .     S
C98    C124    1.505   .     S
C98    N167    1.385   .     A
C99    O173    1.381   .     S
C99    N167    1.370   .     A
C100   O174    1.383   .     S
C100   N168    1.371   .     A
C100   C190    1.445   .     S
C101   O180    1.311   .     A
C101   O178    1.319   .     A
C101   C103    1.468   .     S
C102   O181    1.312   .     A
C102   O179    1.320   .     A
C102   C105    1.474   .     S
C103   C110    1.400   .     A
C103   C108    1.396   .     A
C104   O177    1.300   .     A
C104   O175    1.299   .     A
C105   C111    1.398   .     A
C105   C109    1.397   .     A
C106   H162    1.074   .     S
C106   C108    1.395   .     A
C106   C114    1.407   .     A
C107   C116    1.391   .     A
C107   H163    1.063   .     S
C107   C109    1.401   .     A
C108   H161    1.083   .     S
C109   H155    1.080   .     S
C110   H144    1.076   .     S
C110   C112    1.399   .     A
C111   C113    1.403   .     A
C111   H133    1.081   .     S
C112   C117    1.417   .     A
C112   C114    1.419   .     A
C113   C118    1.397   .     A
C113   C116    1.402   .     A
C114   C956    1.413   .     S
C115   C118    1.408   .     A
C115   C128    1.394   .     A
C115   O171    1.389   .     S
C116   C957    1.411   1_554 S
C117   C126    1.425   .     A
C117   C946    1.405   .     S
C118   C945    1.405   1_554 S
C119   O182    1.416   .     S
C119   H136    1.114   .     S
C119   H135    1.108   .     S
C120   H139    1.114   .     S
C120   H138    1.111   .     S
C120   O170    1.410   .     S
C120   H232    1.109   .     S
C121   H141    1.116   .     S
C121   H142    1.108   .     S
C121   O171    1.416   .     S
C121   H143    1.109   .     S
C122   H146    1.110   .     S
C122   O172    1.413   .     S
C122   H145    1.114   .     S
C122   H147    1.110   .     S
C123   H150    1.099   .     S
C123   H149    1.107   .     S
C123   H240    1.109   .     S
C124   H153    1.107   .     S
C124   H152    1.098   .     S
C125   H154    1.108   .     S
C125   H157    1.108   .     S
C125   H156    1.115   .     S
C125   O173    1.415   .     S
C126   C129    1.405   .     A
C126   O172    1.386   .     S
C127   O174    1.415   .     S
C127   H158    1.115   .     S
C127   H159    1.107   .     S
C127   H160    1.109   .     S
C128   O182    1.377   .     S
C128   C942    1.413   1_554 S
C129   O170    1.384   .     S
C129   C944    1.411   .     S
C130   H164    1.084   .     S
C130   C408    1.372   .     S
C131   H165    1.084   .     S
C131   C646    1.373   1_545 S
C132   H166    1.083   .     S
C132   C682    1.372   1_545 S
H137   C211    1.109   .     S
H151   C216    1.109   .     S
N167   Zn183   2.061   .     S
N168   Zn184   2.061   .     S
O169   Zn183   1.976   .     S
O175   Zn184   1.976   .     S
O176   Zn184   1.978   .     S
O177   Zn183   1.978   .     S
O178   Zn183   1.899   .     S
O179   Zn184   1.899   .     S
O180   Zn184   1.877   .     S
O181   Zn183   1.877   .     S
C185   O261    1.299   .     A
C185   O268    1.300   .     A
C185   C188    1.404   .     S
C186   C188    1.394   .     A
C186   H226    1.083   .     S
C186   C499    1.373   .     S
C187   C196    1.403   .     S
C187   C223    1.393   .     A
C187   C224    1.394   .     A
C188   C222    1.393   .     A
C189   N260    1.384   .     A
C189   C215    1.504   .     S
C189   C7      1.444   1_655 S
C190   C216    1.505   .     S
C190   N259    1.385   .     A
C191   O265    1.381   .     S
C191   N259    1.370   .     A
C192   O266    1.383   .     S
C192   N260    1.371   .     A
C192   C6      1.445   1_655 S
C193   O272    1.311   .     A
C193   O270    1.319   .     A
C193   C195    1.468   .     S
C194   O273    1.312   .     A
C194   O271    1.320   .     A
C194   C197    1.474   .     S
C195   C202    1.400   .     A
C195   C200    1.396   .     A
C196   O269    1.300   .     A
C196   O267    1.299   .     A
C197   C203    1.398   .     A
C197   C201    1.397   .     A
C198   H254    1.074   .     S
C198   C200    1.395   .     A
C198   C206    1.407   .     A
C199   C208    1.391   .     A
C199   H255    1.063   .     S
C199   C201    1.401   .     A
C200   H253    1.083   .     S
C201   H247    1.080   .     S
C202   H236    1.076   .     S
C202   C204    1.399   .     A
C203   C205    1.403   .     A
C203   H225    1.081   .     S
C204   C209    1.417   .     A
C204   C206    1.419   .     A
C205   C210    1.397   .     A
C205   C208    1.402   .     A
C206   C1048   1.413   .     S
C207   C210    1.408   .     A
C207   C220    1.394   .     A
C207   O263    1.389   .     S
C208   C1049   1.411   1_554 S
C209   C218    1.425   .     A
C209   C1038   1.405   .     S
C210   C1037   1.405   1_554 S
C211   O274    1.416   .     S
C211   H228    1.114   .     S
C211   H227    1.108   .     S
C212   H231    1.114   .     S
C212   H230    1.111   .     S
C212   O262    1.410   .     S
C212   H48     1.109   1_655 S
C213   H233    1.116   .     S
C213   H234    1.108   .     S
C213   O263    1.416   .     S
C213   H235    1.109   .     S
C214   H238    1.110   .     S
C214   O264    1.413   .     S
C214   H237    1.114   .     S
C214   H239    1.110   .     S
C215   H242    1.099   .     S
C215   H241    1.107   .     S
C215   H56     1.109   1_655 S
C216   H245    1.107   .     S
C216   H244    1.098   .     S
C217   H246    1.108   .     S
C217   H249    1.108   .     S
C217   H248    1.115   .     S
C217   O265    1.415   .     S
C218   C221    1.405   .     A
C218   O264    1.386   .     S
C219   O266    1.415   .     S
C219   H250    1.115   .     S
C219   H251    1.107   .     S
C219   H252    1.109   .     S
C220   O274    1.377   .     S
C220   C1034   1.413   1_554 S
C221   O262    1.384   .     S
C221   C1036   1.411   .     S
C222   H256    1.084   .     S
C222   C500    1.372   .     S
C223   H257    1.084   .     S
C223   C738    1.373   1_545 S
C224   H258    1.083   .     S
C224   C774    1.372   1_545 S
H229   C27     1.109   1_655 S
H243   C32     1.109   1_655 S
N259   Zn275   2.061   .     S
N260   Zn276   2.061   .     S
O261   Zn275   1.976   .     S
O267   Zn276   1.976   .     S
O268   Zn276   1.978   .     S
O269   Zn275   1.978   .     S
O270   Zn275   1.899   .     S
O271   Zn276   1.899   .     S
O272   Zn276   1.877   .     S
O273   Zn275   1.877   .     S
C277   O353    1.299   .     A
C277   O360    1.300   .     A
C277   C280    1.404   .     S
C278   C280    1.394   .     A
C278   H318    1.083   .     S
C278   C591    1.373   .     S
C279   C288    1.403   .     S
C279   C315    1.393   .     A
C279   C316    1.394   .     A
C280   C314    1.393   .     A
C281   N352    1.384   .     A
C281   C307    1.504   .     S
C281   C375    1.444   .     S
C282   C308    1.505   .     S
C282   N351    1.385   .     A
C282   C468    1.445   1_455 S
C283   O357    1.381   .     S
C283   N351    1.370   .     A
C283   C465    1.444   1_455 S
C284   O358    1.383   .     S
C284   N352    1.371   .     A
C284   C374    1.445   .     S
C285   O364    1.311   .     A
C285   O362    1.319   .     A
C285   C287    1.468   .     S
C286   O365    1.312   .     A
C286   O363    1.320   .     A
C286   C289    1.474   .     S
C287   C294    1.400   .     A
C287   C292    1.396   .     A
C288   O361    1.300   .     A
C288   O359    1.299   .     A
C289   C295    1.398   .     A
C289   C293    1.397   .     A
C290   H346    1.074   .     S
C290   C292    1.395   .     A
C290   C298    1.407   .     A
C291   C300    1.391   .     A
C291   H347    1.063   .     S
C291   C293    1.401   .     A
C292   H345    1.083   .     S
C293   H339    1.080   .     S
C294   H328    1.076   .     S
C294   C296    1.399   .     A
C295   C297    1.403   .     A
C295   H317    1.081   .     S
C296   C301    1.417   .     A
C296   C298    1.419   .     A
C297   C302    1.397   .     A
C297   C300    1.402   .     A
C298   C1140   1.413   .     S
C299   C302    1.408   .     A
C299   C312    1.394   .     A
C299   O355    1.389   .     S
C300   C1141   1.411   1_554 S
C301   C310    1.425   .     A
C301   C1130   1.405   .     S
C302   C1129   1.405   1_554 S
C303   O366    1.416   .     S
C303   H320    1.114   .     S
C303   H319    1.108   .     S
C303   H505    1.109   1_455 S
C304   H323    1.114   .     S
C304   H322    1.111   .     S
C304   O354    1.410   .     S
C304   H416    1.109   .     S
C305   H325    1.116   .     S
C305   H326    1.108   .     S
C305   O355    1.416   .     S
C305   H327    1.109   .     S
C306   H330    1.110   .     S
C306   O356    1.413   .     S
C306   H329    1.114   .     S
C306   H331    1.110   .     S
C307   H334    1.099   .     S
C307   H333    1.107   .     S
C307   H424    1.109   .     S
C308   H337    1.107   .     S
C308   H336    1.098   .     S
C308   H519    1.109   1_455 S
C309   H338    1.108   .     S
C309   H341    1.108   .     S
C309   H340    1.115   .     S
C309   O357    1.415   .     S
C310   C313    1.405   .     A
C310   O356    1.386   .     S
C311   O358    1.415   .     S
C311   H342    1.115   .     S
C311   H343    1.107   .     S
C311   H344    1.109   .     S
C312   O366    1.377   .     S
C312   C1126   1.413   1_554 S
C313   O354    1.384   .     S
C313   C1128   1.411   .     S
C314   H348    1.084   .     S
C314   C592    1.372   .     S
C315   H349    1.084   .     S
C316   H350    1.083   .     S
H321   C395    1.109   .     S
H324   C488    1.109   1_455 S
H332   C491    1.109   1_455 S
H335   C400    1.109   .     S
N351   Zn367   2.061   .     S
N352   Zn368   2.061   .     S
O353   Zn367   1.976   .     S
O359   Zn368   1.976   .     S
O360   Zn368   1.978   .     S
O361   Zn367   1.978   .     S
O362   Zn367   1.899   .     S
O363   Zn368   1.899   .     S
O364   Zn368   1.877   .     S
O365   Zn367   1.877   .     S
C369   O445    1.299   .     A
C369   O452    1.300   .     A
C369   C372    1.404   .     S
C370   C372    1.394   .     A
C370   H410    1.083   .     S
C370   C683    1.373   .     S
C371   C380    1.403   .     S
C371   C407    1.393   .     A
C371   C408    1.394   .     A
C372   C406    1.393   .     A
C373   N444    1.384   .     A
C373   C399    1.504   .     S
C373   C467    1.444   .     S
C374   C400    1.505   .     S
C374   N443    1.385   .     A
C375   O449    1.381   .     S
C375   N443    1.370   .     A
C376   O450    1.383   .     S
C376   N444    1.371   .     A
C376   C466    1.445   .     S
C377   O456    1.311   .     A
C377   O454    1.319   .     A
C377   C379    1.468   .     S
C378   O457    1.312   .     A
C378   O455    1.320   .     A
C378   C381    1.474   .     S
C379   C386    1.400   .     A
C379   C384    1.396   .     A
C380   O453    1.300   .     A
C380   O451    1.299   .     A
C381   C387    1.398   .     A
C381   C385    1.397   .     A
C382   H438    1.074   .     S
C382   C384    1.395   .     A
C382   C390    1.407   .     A
C383   C392    1.391   .     A
C383   H439    1.063   .     S
C383   C385    1.401   .     A
C384   H437    1.083   .     S
C385   H431    1.080   .     S
C386   H420    1.076   .     S
C386   C388    1.399   .     A
C387   C389    1.403   .     A
C387   H409    1.081   .     S
C388   C393    1.417   .     A
C388   C390    1.419   .     A
C389   C394    1.397   .     A
C389   C392    1.402   .     A
C390   C1232   1.413   .     S
C391   C394    1.408   .     A
C391   C404    1.394   .     A
C391   O447    1.389   .     S
C392   C1233   1.411   1_554 S
C393   C402    1.425   .     A
C393   C1222   1.405   .     S
C394   C1221   1.405   1_554 S
C395   O458    1.416   .     S
C395   H412    1.114   .     S
C395   H411    1.108   .     S
C396   H415    1.114   .     S
C396   H414    1.111   .     S
C396   O446    1.410   .     S
C396   H508    1.109   .     S
C397   H417    1.116   .     S
C397   H418    1.108   .     S
C397   O447    1.416   .     S
C397   H419    1.109   .     S
C398   H422    1.110   .     S
C398   O448    1.413   .     S
C398   H421    1.114   .     S
C398   H423    1.110   .     S
C399   H426    1.099   .     S
C399   H425    1.107   .     S
C399   H516    1.109   .     S
C400   H429    1.107   .     S
C400   H428    1.098   .     S
C401   H430    1.108   .     S
C401   H433    1.108   .     S
C401   H432    1.115   .     S
C401   O449    1.415   .     S
C402   C405    1.405   .     A
C402   O448    1.386   .     S
C403   O450    1.415   .     S
C403   H434    1.115   .     S
C403   H435    1.107   .     S
C403   H436    1.109   .     S
C404   O458    1.377   .     S
C404   C1218   1.413   1_554 S
C405   O446    1.384   .     S
C405   C1220   1.411   .     S
C406   H440    1.084   .     S
C406   C684    1.372   .     S
C407   H441    1.084   .     S
C408   H442    1.083   .     S
H413   C487    1.109   .     S
H427   C492    1.109   .     S
N443   Zn459   2.061   .     S
N444   Zn460   2.061   .     S
O445   Zn459   1.976   .     S
O451   Zn460   1.976   .     S
O452   Zn460   1.978   .     S
O453   Zn459   1.978   .     S
O454   Zn459   1.899   .     S
O455   Zn460   1.899   .     S
O456   Zn460   1.877   .     S
O457   Zn459   1.877   .     S
C461   O537    1.299   .     A
C461   O544    1.300   .     A
C461   C464    1.404   .     S
C462   C464    1.394   .     A
C462   H502    1.083   .     S
C462   C775    1.373   .     S
C463   C472    1.403   .     S
C463   C499    1.393   .     A
C463   C500    1.394   .     A
C464   C498    1.393   .     A
C465   N536    1.384   .     A
C465   C491    1.504   .     S
C465   C283    1.444   1_655 S
C466   C492    1.505   .     S
C466   N535    1.385   .     A
C467   O541    1.381   .     S
C467   N535    1.370   .     A
C468   O542    1.383   .     S
C468   N536    1.371   .     A
C468   C282    1.445   1_655 S
C469   O548    1.311   .     A
C469   O546    1.319   .     A
C469   C471    1.468   .     S
C470   O549    1.312   .     A
C470   O547    1.320   .     A
C470   C473    1.474   .     S
C471   C478    1.400   .     A
C471   C476    1.396   .     A
C472   O545    1.300   .     A
C472   O543    1.299   .     A
C473   C479    1.398   .     A
C473   C477    1.397   .     A
C474   H530    1.074   .     S
C474   C476    1.395   .     A
C474   C482    1.407   .     A
C475   C484    1.391   .     A
C475   H531    1.063   .     S
C475   C477    1.401   .     A
C476   H529    1.083   .     S
C477   H523    1.080   .     S
C478   H512    1.076   .     S
C478   C480    1.399   .     A
C479   C481    1.403   .     A
C479   H501    1.081   .     S
C480   C485    1.417   .     A
C480   C482    1.419   .     A
C481   C486    1.397   .     A
C481   C484    1.402   .     A
C482   C1324   1.413   .     S
C483   C486    1.408   .     A
C483   C496    1.394   .     A
C483   O539    1.389   .     S
C484   C1325   1.411   1_554 S
C485   C494    1.425   .     A
C485   C1314   1.405   .     S
C486   C1313   1.405   1_554 S
C487   O550    1.416   .     S
C487   H504    1.114   .     S
C487   H503    1.108   .     S
C488   H507    1.114   .     S
C488   H506    1.111   .     S
C488   O538    1.410   .     S
C488   H324    1.109   1_655 S
C489   H509    1.116   .     S
C489   H510    1.108   .     S
C489   O539    1.416   .     S
C489   H511    1.109   .     S
C490   H514    1.110   .     S
C490   O540    1.413   .     S
C490   H513    1.114   .     S
C490   H515    1.110   .     S
C491   H518    1.099   .     S
C491   H517    1.107   .     S
C491   H332    1.109   1_655 S
C492   H521    1.107   .     S
C492   H520    1.098   .     S
C493   H522    1.108   .     S
C493   H525    1.108   .     S
C493   H524    1.115   .     S
C493   O541    1.415   .     S
C494   C497    1.405   .     A
C494   O540    1.386   .     S
C495   O542    1.415   .     S
C495   H526    1.115   .     S
C495   H527    1.107   .     S
C495   H528    1.109   .     S
C496   O550    1.377   .     S
C496   C1310   1.413   1_554 S
C497   O538    1.384   .     S
C497   C1312   1.411   .     S
C498   H532    1.084   .     S
C498   C776    1.372   .     S
C499   H533    1.084   .     S
C500   H534    1.083   .     S
H505   C303    1.109   1_655 S
H519   C308    1.109   1_655 S
N535   Zn551   2.061   .     S
N536   Zn552   2.061   .     S
O537   Zn551   1.976   .     S
O543   Zn552   1.976   .     S
O544   Zn552   1.978   .     S
O545   Zn551   1.978   .     S
O546   Zn551   1.899   .     S
O547   Zn552   1.899   .     S
O548   Zn552   1.877   .     S
O549   Zn551   1.877   .     S
C553   O629    1.299   .     A
C553   O636    1.300   .     A
C553   C556    1.404   .     S
C554   C556    1.394   .     A
C554   H594    1.083   .     S
C554   C39     1.373   1_565 S
C555   C564    1.403   .     S
C555   C591    1.393   .     A
C555   C592    1.394   .     A
C556   C590    1.393   .     A
C557   N628    1.384   .     A
C557   C583    1.504   .     S
C557   C651    1.444   .     S
C558   C584    1.505   .     S
C558   N627    1.385   .     A
C558   C744    1.445   1_455 S
C559   O633    1.381   .     S
C559   N627    1.370   .     A
C559   C741    1.444   1_455 S
C560   O634    1.383   .     S
C560   N628    1.371   .     A
C560   C650    1.445   .     S
C561   O640    1.311   .     A
C561   O638    1.319   .     A
C561   C563    1.468   .     S
C562   O641    1.312   .     A
C562   O639    1.320   .     A
C562   C565    1.474   .     S
C563   C570    1.400   .     A
C563   C568    1.396   .     A
C564   O637    1.300   .     A
C564   O635    1.299   .     A
C565   C571    1.398   .     A
C565   C569    1.397   .     A
C566   H622    1.074   .     S
C566   C568    1.395   .     A
C566   C574    1.407   .     A
C567   C576    1.391   .     A
C567   H623    1.063   .     S
C567   C569    1.401   .     A
C568   H621    1.083   .     S
C569   H615    1.080   .     S
C570   H604    1.076   .     S
C570   C572    1.399   .     A
C571   C573    1.403   .     A
C571   H593    1.081   .     S
C572   C577    1.417   .     A
C572   C574    1.419   .     A
C573   C578    1.397   .     A
C573   C576    1.402   .     A
C574   C1416   1.413   .     S
C575   C578    1.408   .     A
C575   C588    1.394   .     A
C575   O631    1.389   .     S
C576   C1417   1.411   1_554 S
C577   C586    1.425   .     A
C577   C1406   1.405   .     S
C578   C1405   1.405   1_554 S
C579   O642    1.416   .     S
C579   H596    1.114   .     S
C579   H595    1.108   .     S
C579   H781    1.109   1_455 S
C580   H599    1.114   .     S
C580   H598    1.111   .     S
C580   O630    1.410   .     S
C580   H692    1.109   .     S
C581   H601    1.116   .     S
C581   H602    1.108   .     S
C581   O631    1.416   .     S
C581   H603    1.109   .     S
C582   H606    1.110   .     S
C582   O632    1.413   .     S
C582   H605    1.114   .     S
C582   H607    1.110   .     S
C583   H610    1.099   .     S
C583   H609    1.107   .     S
C583   H700    1.109   .     S
C584   H613    1.107   .     S
C584   H612    1.098   .     S
C584   H795    1.109   1_455 S
C585   H614    1.108   .     S
C585   H617    1.108   .     S
C585   H616    1.115   .     S
C585   O633    1.415   .     S
C586   C589    1.405   .     A
C586   O632    1.386   .     S
C587   O634    1.415   .     S
C587   H618    1.115   .     S
C587   H619    1.107   .     S
C587   H620    1.109   .     S
C588   O642    1.377   .     S
C588   C1402   1.413   1_554 S
C589   O630    1.384   .     S
C589   C1404   1.411   .     S
C590   H624    1.084   .     S
C590   C40     1.372   1_565 S
C591   H625    1.084   .     S
C592   H626    1.083   .     S
H597   C671    1.109   .     S
H600   C764    1.109   1_455 S
H608   C767    1.109   1_455 S
H611   C676    1.109   .     S
N627   Zn643   2.061   .     S
N628   Zn644   2.061   .     S
O629   Zn643   1.976   .     S
O635   Zn644   1.976   .     S
O636   Zn644   1.978   .     S
O637   Zn643   1.978   .     S
O638   Zn643   1.899   .     S
O639   Zn644   1.899   .     S
O640   Zn644   1.877   .     S
O641   Zn643   1.877   .     S
C645   O721    1.299   .     A
C645   O728    1.300   .     A
C645   C648    1.404   .     S
C646   C648    1.394   .     A
C646   H686    1.083   .     S
C646   C131    1.373   1_565 S
C647   C656    1.403   .     S
C647   C683    1.393   .     A
C647   C684    1.394   .     A
C648   C682    1.393   .     A
C649   N720    1.384   .     A
C649   C675    1.504   .     S
C649   C743    1.444   .     S
C650   C676    1.505   .     S
C650   N719    1.385   .     A
C651   O725    1.381   .     S
C651   N719    1.370   .     A
C652   O726    1.383   .     S
C652   N720    1.371   .     A
C652   C742    1.445   .     S
C653   O732    1.311   .     A
C653   O730    1.319   .     A
C653   C655    1.468   .     S
C654   O733    1.312   .     A
C654   O731    1.320   .     A
C654   C657    1.474   .     S
C655   C662    1.400   .     A
C655   C660    1.396   .     A
C656   O729    1.300   .     A
C656   O727    1.299   .     A
C657   C663    1.398   .     A
C657   C661    1.397   .     A
C658   H714    1.074   .     S
C658   C660    1.395   .     A
C658   C666    1.407   .     A
C659   C668    1.391   .     A
C659   H715    1.063   .     S
C659   C661    1.401   .     A
C660   H713    1.083   .     S
C661   H707    1.080   .     S
C662   H696    1.076   .     S
C662   C664    1.399   .     A
C663   C665    1.403   .     A
C663   H685    1.081   .     S
C664   C669    1.417   .     A
C664   C666    1.419   .     A
C665   C670    1.397   .     A
C665   C668    1.402   .     A
C666   C1508   1.413   .     S
C667   C670    1.408   .     A
C667   C680    1.394   .     A
C667   O723    1.389   .     S
C668   C1509   1.411   1_554 S
C669   C678    1.425   .     A
C669   C1498   1.405   .     S
C670   C1497   1.405   1_554 S
C671   O734    1.416   .     S
C671   H688    1.114   .     S
C671   H687    1.108   .     S
C672   H691    1.114   .     S
C672   H690    1.111   .     S
C672   O722    1.410   .     S
C672   H784    1.109   .     S
C673   H693    1.116   .     S
C673   H694    1.108   .     S
C673   O723    1.416   .     S
C673   H695    1.109   .     S
C674   H698    1.110   .     S
C674   O724    1.413   .     S
C674   H697    1.114   .     S
C674   H699    1.110   .     S
C675   H702    1.099   .     S
C675   H701    1.107   .     S
C675   H792    1.109   .     S
C676   H705    1.107   .     S
C676   H704    1.098   .     S
C677   H706    1.108   .     S
C677   H709    1.108   .     S
C677   H708    1.115   .     S
C677   O725    1.415   .     S
C678   C681    1.405   .     A
C678   O724    1.386   .     S
C679   O726    1.415   .     S
C679   H710    1.115   .     S
C679   H711    1.107   .     S
C679   H712    1.109   .     S
C680   O734    1.377   .     S
C680   C1494   1.413   1_554 S
C681   O722    1.384   .     S
C681   C1496   1.411   .     S
C682   H716    1.084   .     S
C682   C132    1.372   1_565 S
C683   H717    1.084   .     S
C684   H718    1.083   .     S
H689   C763    1.109   .     S
H703   C768    1.109   .     S
N719   Zn735   2.061   .     S
N720   Zn736   2.061   .     S
O721   Zn735   1.976   .     S
O727   Zn736   1.976   .     S
O728   Zn736   1.978   .     S
O729   Zn735   1.978   .     S
O730   Zn735   1.899   .     S
O731   Zn736   1.899   .     S
O732   Zn736   1.877   .     S
O733   Zn735   1.877   .     S
C737   O813    1.299   .     A
C737   O820    1.300   .     A
C737   C740    1.404   .     S
C738   C740    1.394   .     A
C738   H778    1.083   .     S
C738   C223    1.373   1_565 S
C739   C748    1.403   .     S
C739   C775    1.393   .     A
C739   C776    1.394   .     A
C740   C774    1.393   .     A
C741   N812    1.384   .     A
C741   C767    1.504   .     S
C741   C559    1.444   1_655 S
C742   C768    1.505   .     S
C742   N811    1.385   .     A
C743   O817    1.381   .     S
C743   N811    1.370   .     A
C744   O818    1.383   .     S
C744   N812    1.371   .     A
C744   C558    1.445   1_655 S
C745   O824    1.311   .     A
C745   O822    1.319   .     A
C745   C747    1.468   .     S
C746   O825    1.312   .     A
C746   O823    1.320   .     A
C746   C749    1.474   .     S
C747   C754    1.400   .     A
C747   C752    1.396   .     A
C748   O821    1.300   .     A
C748   O819    1.299   .     A
C749   C755    1.398   .     A
C749   C753    1.397   .     A
C750   H806    1.074   .     S
C750   C752    1.395   .     A
C750   C758    1.407   .     A
C751   C760    1.391   .     A
C751   H807    1.063   .     S
C751   C753    1.401   .     A
C752   H805    1.083   .     S
C753   H799    1.080   .     S
C754   H788    1.076   .     S
C754   C756    1.399   .     A
C755   C757    1.403   .     A
C755   H777    1.081   .     S
C756   C761    1.417   .     A
C756   C758    1.419   .     A
C757   C762    1.397   .     A
C757   C760    1.402   .     A
C758   C1600   1.413   .     S
C759   C762    1.408   .     A
C759   C772    1.394   .     A
C759   O815    1.389   .     S
C760   C1601   1.411   1_554 S
C761   C770    1.425   .     A
C761   C1590   1.405   .     S
C762   C1589   1.405   1_554 S
C763   O826    1.416   .     S
C763   H780    1.114   .     S
C763   H779    1.108   .     S
C764   H783    1.114   .     S
C764   H782    1.111   .     S
C764   O814    1.410   .     S
C764   H600    1.109   1_655 S
C765   H785    1.116   .     S
C765   H786    1.108   .     S
C765   O815    1.416   .     S
C765   H787    1.109   .     S
C766   H790    1.110   .     S
C766   O816    1.413   .     S
C766   H789    1.114   .     S
C766   H791    1.110   .     S
C767   H794    1.099   .     S
C767   H793    1.107   .     S
C767   H608    1.109   1_655 S
C768   H797    1.107   .     S
C768   H796    1.098   .     S
C769   H798    1.108   .     S
C769   H801    1.108   .     S
C769   H800    1.115   .     S
C769   O817    1.415   .     S
C770   C773    1.405   .     A
C770   O816    1.386   .     S
C771   O818    1.415   .     S
C771   H802    1.115   .     S
C771   H803    1.107   .     S
C771   H804    1.109   .     S
C772   O826    1.377   .     S
C772   C1586   1.413   1_554 S
C773   O814    1.384   .     S
C773   C1588   1.411   .     S
C774   H808    1.084   .     S
C774   C224    1.372   1_565 S
C775   H809    1.084   .     S
C776   H810    1.083   .     S
H781   C579    1.109   1_655 S
H795   C584    1.109   1_655 S
N811   Zn827   2.061   .     S
N812   Zn828   2.061   .     S
O813   Zn827   1.976   .     S
O819   Zn828   1.976   .     S
O820   Zn828   1.978   .     S
O821   Zn827   1.978   .     S
O822   Zn827   1.899   .     S
O823   Zn828   1.899   .     S
O824   Zn828   1.877   .     S
O825   Zn827   1.877   .     S
C829   O905    1.299   .     A
C829   O912    1.300   .     A
C829   C832    1.404   .     S
C830   C832    1.394   .     A
C830   H870    1.083   .     S
C830   C1143   1.373   .     S
C831   C840    1.403   .     S
C831   C867    1.393   .     A
C831   C868    1.394   .     A
C832   C866    1.393   .     A
C833   N904    1.384   .     A
C833   C859    1.504   .     S
C833   C927    1.444   .     S
C834   C860    1.505   .     S
C834   N903    1.385   .     A
C834   C1020   1.445   1_455 S
C835   O909    1.381   .     S
C835   N903    1.370   .     A
C835   C1017   1.444   1_455 S
C836   O910    1.383   .     S
C836   N904    1.371   .     A
C836   C926    1.445   .     S
C837   O916    1.311   .     A
C837   O914    1.319   .     A
C837   C839    1.468   .     S
C838   O917    1.312   .     A
C838   O915    1.320   .     A
C838   C841    1.474   .     S
C839   C846    1.400   .     A
C839   C844    1.396   .     A
C840   O913    1.300   .     A
C840   O911    1.299   .     A
C841   C847    1.398   .     A
C841   C845    1.397   .     A
C842   H898    1.074   .     S
C842   C844    1.395   .     A
C842   C850    1.407   .     A
C843   C852    1.391   .     A
C843   H899    1.063   .     S
C843   C845    1.401   .     A
C844   H897    1.083   .     S
C845   H891    1.080   .     S
C846   H880    1.076   .     S
C846   C848    1.399   .     A
C847   C849    1.403   .     A
C847   H869    1.081   .     S
C848   C853    1.417   .     A
C848   C850    1.419   .     A
C849   C854    1.397   .     A
C849   C852    1.402   .     A
C850   C36     1.413   1_556 S
C851   C854    1.408   .     A
C851   C864    1.394   .     A
C851   O907    1.389   .     S
C853   C862    1.425   .     A
C853   C26     1.405   1_556 S
C855   O918    1.416   .     S
C855   H872    1.114   .     S
C855   H871    1.108   .     S
C855   H1057   1.109   1_455 S
C856   H875    1.114   .     S
C856   H874    1.111   .     S
C856   O906    1.410   .     S
C856   H968    1.109   .     S
C857   H877    1.116   .     S
C857   H878    1.108   .     S
C857   O907    1.416   .     S
C857   H879    1.109   .     S
C858   H882    1.110   .     S
C858   O908    1.413   .     S
C858   H881    1.114   .     S
C858   H883    1.110   .     S
C859   H886    1.099   .     S
C859   H885    1.107   .     S
C859   H976    1.109   .     S
C860   H889    1.107   .     S
C860   H888    1.098   .     S
C860   H1071   1.109   1_455 S
C861   H890    1.108   .     S
C861   H893    1.108   .     S
C861   H892    1.115   .     S
C861   O909    1.415   .     S
C862   C865    1.405   .     A
C862   O908    1.386   .     S
C863   O910    1.415   .     S
C863   H894    1.115   .     S
C863   H895    1.107   .     S
C863   H896    1.109   .     S
C864   O918    1.377   .     S
C865   O906    1.384   .     S
C865   C24     1.411   1_556 S
C866   H900    1.084   .     S
C866   C1144   1.372   .     S
C867   H901    1.084   .     S
C867   C1382   1.373   1_545 S
C868   H902    1.083   .     S
C868   C1418   1.372   1_545 S
H873   C947    1.109   .     S
H876   C1040   1.109   1_455 S
H884   C1043   1.109   1_455 S
H887   C952    1.109   .     S
N903   Zn919   2.061   .     S
N904   Zn920   2.061   .     S
O905   Zn919   1.976   .     S
O911   Zn920   1.976   .     S
O912   Zn920   1.978   .     S
O913   Zn919   1.978   .     S
O914   Zn919   1.899   .     S
O915   Zn920   1.899   .     S
O916   Zn920   1.877   .     S
O917   Zn919   1.877   .     S
C921   O997    1.299   .     A
C921   O1004   1.300   .     A
C921   C924    1.404   .     S
C922   C924    1.394   .     A
C922   H962    1.083   .     S
C922   C1235   1.373   .     S
C923   C932    1.403   .     S
C923   C959    1.393   .     A
C923   C960    1.394   .     A
C924   C958    1.393   .     A
C925   N996    1.384   .     A
C925   C951    1.504   .     S
C925   C1019   1.444   .     S
C926   C952    1.505   .     S
C926   N995    1.385   .     A
C927   O1001   1.381   .     S
C927   N995    1.370   .     A
C928   O1002   1.383   .     S
C928   N996    1.371   .     A
C928   C1018   1.445   .     S
C929   O1008   1.311   .     A
C929   O1006   1.319   .     A
C929   C931    1.468   .     S
C930   O1009   1.312   .     A
C930   O1007   1.320   .     A
C930   C933    1.474   .     S
C931   C938    1.400   .     A
C931   C936    1.396   .     A
C932   O1005   1.300   .     A
C932   O1003   1.299   .     A
C933   C939    1.398   .     A
C933   C937    1.397   .     A
C934   H990    1.074   .     S
C934   C936    1.395   .     A
C934   C942    1.407   .     A
C935   C944    1.391   .     A
C935   H991    1.063   .     S
C935   C937    1.401   .     A
C936   H989    1.083   .     S
C937   H983    1.080   .     S
C938   H972    1.076   .     S
C938   C940    1.399   .     A
C939   C941    1.403   .     A
C939   H961    1.081   .     S
C940   C945    1.417   .     A
C940   C942    1.419   .     A
C941   C946    1.397   .     A
C941   C944    1.402   .     A
C942   C128    1.413   1_556 S
C943   C946    1.408   .     A
C943   C956    1.394   .     A
C943   O999    1.389   .     S
C945   C954    1.425   .     A
C945   C118    1.405   1_556 S
C947   O1010   1.416   .     S
C947   H964    1.114   .     S
C947   H963    1.108   .     S
C948   H967    1.114   .     S
C948   H966    1.111   .     S
C948   O998    1.410   .     S
C948   H1060   1.109   .     S
C949   H969    1.116   .     S
C949   H970    1.108   .     S
C949   O999    1.416   .     S
C949   H971    1.109   .     S
C950   H974    1.110   .     S
C950   O1000   1.413   .     S
C950   H973    1.114   .     S
C950   H975    1.110   .     S
C951   H978    1.099   .     S
C951   H977    1.107   .     S
C951   H1068   1.109   .     S
C952   H981    1.107   .     S
C952   H980    1.098   .     S
C953   H982    1.108   .     S
C953   H985    1.108   .     S
C953   H984    1.115   .     S
C953   O1001   1.415   .     S
C954   C957    1.405   .     A
C954   O1000   1.386   .     S
C955   O1002   1.415   .     S
C955   H986    1.115   .     S
C955   H987    1.107   .     S
C955   H988    1.109   .     S
C956   O1010   1.377   .     S
C957   O998    1.384   .     S
C957   C116    1.411   1_556 S
C958   H992    1.084   .     S
C958   C1236   1.372   .     S
C959   H993    1.084   .     S
C959   C1474   1.373   1_545 S
C960   H994    1.083   .     S
C960   C1510   1.372   1_545 S
H965   C1039   1.109   .     S
H979   C1044   1.109   .     S
N995   Zn1011  2.061   .     S
N996   Zn1012  2.061   .     S
O997   Zn1011  1.976   .     S
O1003  Zn1012  1.976   .     S
O1004  Zn1012  1.978   .     S
O1005  Zn1011  1.978   .     S
O1006  Zn1011  1.899   .     S
O1007  Zn1012  1.899   .     S
O1008  Zn1012  1.877   .     S
O1009  Zn1011  1.877   .     S
C1013  O1089   1.299   .     A
C1013  O1096   1.300   .     A
C1013  C1016   1.404   .     S
C1014  C1016   1.394   .     A
C1014  H1054   1.083   .     S
C1014  C1327   1.373   .     S
C1015  C1024   1.403   .     S
C1015  C1051   1.393   .     A
C1015  C1052   1.394   .     A
C1016  C1050   1.393   .     A
C1017  N1088   1.384   .     A
C1017  C1043   1.504   .     S
C1017  C835    1.444   1_655 S
C1018  C1044   1.505   .     S
C1018  N1087   1.385   .     A
C1019  O1093   1.381   .     S
C1019  N1087   1.370   .     A
C1020  O1094   1.383   .     S
C1020  N1088   1.371   .     A
C1020  C834    1.445   1_655 S
C1021  O1100   1.311   .     A
C1021  O1098   1.319   .     A
C1021  C1023   1.468   .     S
C1022  O1101   1.312   .     A
C1022  O1099   1.320   .     A
C1022  C1025   1.474   .     S
C1023  C1030   1.400   .     A
C1023  C1028   1.396   .     A
C1024  O1097   1.300   .     A
C1024  O1095   1.299   .     A
C1025  C1031   1.398   .     A
C1025  C1029   1.397   .     A
C1026  H1082   1.074   .     S
C1026  C1028   1.395   .     A
C1026  C1034   1.407   .     A
C1027  C1036   1.391   .     A
C1027  H1083   1.063   .     S
C1027  C1029   1.401   .     A
C1028  H1081   1.083   .     S
C1029  H1075   1.080   .     S
C1030  H1064   1.076   .     S
C1030  C1032   1.399   .     A
C1031  C1033   1.403   .     A
C1031  H1053   1.081   .     S
C1032  C1037   1.417   .     A
C1032  C1034   1.419   .     A
C1033  C1038   1.397   .     A
C1033  C1036   1.402   .     A
C1034  C220    1.413   1_556 S
C1035  C1038   1.408   .     A
C1035  C1048   1.394   .     A
C1035  O1091   1.389   .     S
C1037  C1046   1.425   .     A
C1037  C210    1.405   1_556 S
C1039  O1102   1.416   .     S
C1039  H1056   1.114   .     S
C1039  H1055   1.108   .     S
C1040  H1059   1.114   .     S
C1040  H1058   1.111   .     S
C1040  O1090   1.410   .     S
C1040  H876    1.109   1_655 S
C1041  H1061   1.116   .     S
C1041  H1062   1.108   .     S
C1041  O1091   1.416   .     S
C1041  H1063   1.109   .     S
C1042  H1066   1.110   .     S
C1042  O1092   1.413   .     S
C1042  H1065   1.114   .     S
C1042  H1067   1.110   .     S
C1043  H1070   1.099   .     S
C1043  H1069   1.107   .     S
C1043  H884    1.109   1_655 S
C1044  H1073   1.107   .     S
C1044  H1072   1.098   .     S
C1045  H1074   1.108   .     S
C1045  H1077   1.108   .     S
C1045  H1076   1.115   .     S
C1045  O1093   1.415   .     S
C1046  C1049   1.405   .     A
C1046  O1092   1.386   .     S
C1047  O1094   1.415   .     S
C1047  H1078   1.115   .     S
C1047  H1079   1.107   .     S
C1047  H1080   1.109   .     S
C1048  O1102   1.377   .     S
C1049  O1090   1.384   .     S
C1049  C208    1.411   1_556 S
C1050  H1084   1.084   .     S
C1050  C1328   1.372   .     S
C1051  H1085   1.084   .     S
C1051  C1566   1.373   1_545 S
C1052  H1086   1.083   .     S
C1052  C1602   1.372   1_545 S
H1057  C855    1.109   1_655 S
H1071  C860    1.109   1_655 S
N1087  Zn1103  2.061   .     S
N1088  Zn1104  2.061   .     S
O1089  Zn1103  1.976   .     S
O1095  Zn1104  1.976   .     S
O1096  Zn1104  1.978   .     S
O1097  Zn1103  1.978   .     S
O1098  Zn1103  1.899   .     S
O1099  Zn1104  1.899   .     S
O1100  Zn1104  1.877   .     S
O1101  Zn1103  1.877   .     S
C1105  O1181   1.299   .     A
C1105  O1188   1.300   .     A
C1105  C1108   1.404   .     S
C1106  C1108   1.394   .     A
C1106  H1146   1.083   .     S
C1106  C1419   1.373   .     S
C1107  C1116   1.403   .     S
C1107  C1143   1.393   .     A
C1107  C1144   1.394   .     A
C1108  C1142   1.393   .     A
C1109  N1180   1.384   .     A
C1109  C1135   1.504   .     S
C1109  C1203   1.444   .     S
C1110  C1136   1.505   .     S
C1110  N1179   1.385   .     A
C1110  C1296   1.445   1_455 S
C1111  O1185   1.381   .     S
C1111  N1179   1.370   .     A
C1111  C1293   1.444   1_455 S
C1112  O1186   1.383   .     S
C1112  N1180   1.371   .     A
C1112  C1202   1.445   .     S
C1113  O1192   1.311   .     A
C1113  O1190   1.319   .     A
C1113  C1115   1.468   .     S
C1114  O1193   1.312   .     A
C1114  O1191   1.320   .     A
C1114  C1117   1.474   .     S
C1115  C1122   1.400   .     A
C1115  C1120   1.396   .     A
C1116  O1189   1.300   .     A
C1116  O1187   1.299   .     A
C1117  C1123   1.398   .     A
C1117  C1121   1.397   .     A
C1118  H1174   1.074   .     S
C1118  C1120   1.395   .     A
C1118  C1126   1.407   .     A
C1119  C1128   1.391   .     A
C1119  H1175   1.063   .     S
C1119  C1121   1.401   .     A
C1120  H1173   1.083   .     S
C1121  H1167   1.080   .     S
C1122  H1156   1.076   .     S
C1122  C1124   1.399   .     A
C1123  C1125   1.403   .     A
C1123  H1145   1.081   .     S
C1124  C1129   1.417   .     A
C1124  C1126   1.419   .     A
C1125  C1130   1.397   .     A
C1125  C1128   1.402   .     A
C1126  C312    1.413   1_556 S
C1127  C1130   1.408   .     A
C1127  C1140   1.394   .     A
C1127  O1183   1.389   .     S
C1129  C1138   1.425   .     A
C1129  C302    1.405   1_556 S
C1131  O1194   1.416   .     S
C1131  H1148   1.114   .     S
C1131  H1147   1.108   .     S
C1131  H1333   1.109   1_455 S
C1132  H1151   1.114   .     S
C1132  H1150   1.111   .     S
C1132  O1182   1.410   .     S
C1132  H1244   1.109   .     S
C1133  H1153   1.116   .     S
C1133  H1154   1.108   .     S
C1133  O1183   1.416   .     S
C1133  H1155   1.109   .     S
C1134  H1158   1.110   .     S
C1134  O1184   1.413   .     S
C1134  H1157   1.114   .     S
C1134  H1159   1.110   .     S
C1135  H1162   1.099   .     S
C1135  H1161   1.107   .     S
C1135  H1252   1.109   .     S
C1136  H1165   1.107   .     S
C1136  H1164   1.098   .     S
C1136  H1347   1.109   1_455 S
C1137  H1166   1.108   .     S
C1137  H1169   1.108   .     S
C1137  H1168   1.115   .     S
C1137  O1185   1.415   .     S
C1138  C1141   1.405   .     A
C1138  O1184   1.386   .     S
C1139  O1186   1.415   .     S
C1139  H1170   1.115   .     S
C1139  H1171   1.107   .     S
C1139  H1172   1.109   .     S
C1140  O1194   1.377   .     S
C1141  O1182   1.384   .     S
C1141  C300    1.411   1_556 S
C1142  H1176   1.084   .     S
C1142  C1420   1.372   .     S
C1143  H1177   1.084   .     S
C1144  H1178   1.083   .     S
H1149  C1223   1.109   .     S
H1152  C1316   1.109   1_455 S
H1160  C1319   1.109   1_455 S
H1163  C1228   1.109   .     S
N1179  Zn1195  2.061   .     S
N1180  Zn1196  2.061   .     S
O1181  Zn1195  1.976   .     S
O1187  Zn1196  1.976   .     S
O1188  Zn1196  1.978   .     S
O1189  Zn1195  1.978   .     S
O1190  Zn1195  1.899   .     S
O1191  Zn1196  1.899   .     S
O1192  Zn1196  1.877   .     S
O1193  Zn1195  1.877   .     S
C1197  O1273   1.299   .     A
C1197  O1280   1.300   .     A
C1197  C1200   1.404   .     S
C1198  C1200   1.394   .     A
C1198  H1238   1.083   .     S
C1198  C1511   1.373   .     S
C1199  C1208   1.403   .     S
C1199  C1235   1.393   .     A
C1199  C1236   1.394   .     A
C1200  C1234   1.393   .     A
C1201  N1272   1.384   .     A
C1201  C1227   1.504   .     S
C1201  C1295   1.444   .     S
C1202  C1228   1.505   .     S
C1202  N1271   1.385   .     A
C1203  O1277   1.381   .     S
C1203  N1271   1.370   .     A
C1204  O1278   1.383   .     S
C1204  N1272   1.371   .     A
C1204  C1294   1.445   .     S
C1205  O1284   1.311   .     A
C1205  O1282   1.319   .     A
C1205  C1207   1.468   .     S
C1206  O1285   1.312   .     A
C1206  O1283   1.320   .     A
C1206  C1209   1.474   .     S
C1207  C1214   1.400   .     A
C1207  C1212   1.396   .     A
C1208  O1281   1.300   .     A
C1208  O1279   1.299   .     A
C1209  C1215   1.398   .     A
C1209  C1213   1.397   .     A
C1210  H1266   1.074   .     S
C1210  C1212   1.395   .     A
C1210  C1218   1.407   .     A
C1211  C1220   1.391   .     A
C1211  H1267   1.063   .     S
C1211  C1213   1.401   .     A
C1212  H1265   1.083   .     S
C1213  H1259   1.080   .     S
C1214  H1248   1.076   .     S
C1214  C1216   1.399   .     A
C1215  C1217   1.403   .     A
C1215  H1237   1.081   .     S
C1216  C1221   1.417   .     A
C1216  C1218   1.419   .     A
C1217  C1222   1.397   .     A
C1217  C1220   1.402   .     A
C1218  C404    1.413   1_556 S
C1219  C1222   1.408   .     A
C1219  C1232   1.394   .     A
C1219  O1275   1.389   .     S
C1221  C1230   1.425   .     A
C1221  C394    1.405   1_556 S
C1223  O1286   1.416   .     S
C1223  H1240   1.114   .     S
C1223  H1239   1.108   .     S
C1224  H1243   1.114   .     S
C1224  H1242   1.111   .     S
C1224  O1274   1.410   .     S
C1224  H1336   1.109   .     S
C1225  H1245   1.116   .     S
C1225  H1246   1.108   .     S
C1225  O1275   1.416   .     S
C1225  H1247   1.109   .     S
C1226  H1250   1.110   .     S
C1226  O1276   1.413   .     S
C1226  H1249   1.114   .     S
C1226  H1251   1.110   .     S
C1227  H1254   1.099   .     S
C1227  H1253   1.107   .     S
C1227  H1344   1.109   .     S
C1228  H1257   1.107   .     S
C1228  H1256   1.098   .     S
C1229  H1258   1.108   .     S
C1229  H1261   1.108   .     S
C1229  H1260   1.115   .     S
C1229  O1277   1.415   .     S
C1230  C1233   1.405   .     A
C1230  O1276   1.386   .     S
C1231  O1278   1.415   .     S
C1231  H1262   1.115   .     S
C1231  H1263   1.107   .     S
C1231  H1264   1.109   .     S
C1232  O1286   1.377   .     S
C1233  O1274   1.384   .     S
C1233  C392    1.411   1_556 S
C1234  H1268   1.084   .     S
C1234  C1512   1.372   .     S
C1235  H1269   1.084   .     S
C1236  H1270   1.083   .     S
H1241  C1315   1.109   .     S
H1255  C1320   1.109   .     S
N1271  Zn1287  2.061   .     S
N1272  Zn1288  2.061   .     S
O1273  Zn1287  1.976   .     S
O1279  Zn1288  1.976   .     S
O1280  Zn1288  1.978   .     S
O1281  Zn1287  1.978   .     S
O1282  Zn1287  1.899   .     S
O1283  Zn1288  1.899   .     S
O1284  Zn1288  1.877   .     S
O1285  Zn1287  1.877   .     S
C1289  O1365   1.299   .     A
C1289  O1372   1.300   .     A
C1289  C1292   1.404   .     S
C1290  C1292   1.394   .     A
C1290  H1330   1.083   .     S
C1290  C1603   1.373   .     S
C1291  C1300   1.403   .     S
C1291  C1327   1.393   .     A
C1291  C1328   1.394   .     A
C1292  C1326   1.393   .     A
C1293  N1364   1.384   .     A
C1293  C1319   1.504   .     S
C1293  C1111   1.444   1_655 S
C1294  C1320   1.505   .     S
C1294  N1363   1.385   .     A
C1295  O1369   1.381   .     S
C1295  N1363   1.370   .     A
C1296  O1370   1.383   .     S
C1296  N1364   1.371   .     A
C1296  C1110   1.445   1_655 S
C1297  O1376   1.311   .     A
C1297  O1374   1.319   .     A
C1297  C1299   1.468   .     S
C1298  O1377   1.312   .     A
C1298  O1375   1.320   .     A
C1298  C1301   1.474   .     S
C1299  C1306   1.400   .     A
C1299  C1304   1.396   .     A
C1300  O1373   1.300   .     A
C1300  O1371   1.299   .     A
C1301  C1307   1.398   .     A
C1301  C1305   1.397   .     A
C1302  H1358   1.074   .     S
C1302  C1304   1.395   .     A
C1302  C1310   1.407   .     A
C1303  C1312   1.391   .     A
C1303  H1359   1.063   .     S
C1303  C1305   1.401   .     A
C1304  H1357   1.083   .     S
C1305  H1351   1.080   .     S
C1306  H1340   1.076   .     S
C1306  C1308   1.399   .     A
C1307  C1309   1.403   .     A
C1307  H1329   1.081   .     S
C1308  C1313   1.417   .     A
C1308  C1310   1.419   .     A
C1309  C1314   1.397   .     A
C1309  C1312   1.402   .     A
C1310  C496    1.413   1_556 S
C1311  C1314   1.408   .     A
C1311  C1324   1.394   .     A
C1311  O1367   1.389   .     S
C1313  C1322   1.425   .     A
C1313  C486    1.405   1_556 S
C1315  O1378   1.416   .     S
C1315  H1332   1.114   .     S
C1315  H1331   1.108   .     S
C1316  H1335   1.114   .     S
C1316  H1334   1.111   .     S
C1316  O1366   1.410   .     S
C1316  H1152   1.109   1_655 S
C1317  H1337   1.116   .     S
C1317  H1338   1.108   .     S
C1317  O1367   1.416   .     S
C1317  H1339   1.109   .     S
C1318  H1342   1.110   .     S
C1318  O1368   1.413   .     S
C1318  H1341   1.114   .     S
C1318  H1343   1.110   .     S
C1319  H1346   1.099   .     S
C1319  H1345   1.107   .     S
C1319  H1160   1.109   1_655 S
C1320  H1349   1.107   .     S
C1320  H1348   1.098   .     S
C1321  H1350   1.108   .     S
C1321  H1353   1.108   .     S
C1321  H1352   1.115   .     S
C1321  O1369   1.415   .     S
C1322  C1325   1.405   .     A
C1322  O1368   1.386   .     S
C1323  O1370   1.415   .     S
C1323  H1354   1.115   .     S
C1323  H1355   1.107   .     S
C1323  H1356   1.109   .     S
C1324  O1378   1.377   .     S
C1325  O1366   1.384   .     S
C1325  C484    1.411   1_556 S
C1326  H1360   1.084   .     S
C1326  C1604   1.372   .     S
C1327  H1361   1.084   .     S
C1328  H1362   1.083   .     S
H1333  C1131   1.109   1_655 S
H1347  C1136   1.109   1_655 S
N1363  Zn1379  2.061   .     S
N1364  Zn1380  2.061   .     S
O1365  Zn1379  1.976   .     S
O1371  Zn1380  1.976   .     S
O1372  Zn1380  1.978   .     S
O1373  Zn1379  1.978   .     S
O1374  Zn1379  1.899   .     S
O1375  Zn1380  1.899   .     S
O1376  Zn1380  1.877   .     S
O1377  Zn1379  1.877   .     S
C1381  O1457   1.299   .     A
C1381  O1464   1.300   .     A
C1381  C1384   1.404   .     S
C1382  C1384   1.394   .     A
C1382  H1422   1.083   .     S
C1382  C867    1.373   1_565 S
C1383  C1392   1.403   .     S
C1383  C1419   1.393   .     A
C1383  C1420   1.394   .     A
C1384  C1418   1.393   .     A
C1385  N1456   1.384   .     A
C1385  C1411   1.504   .     S
C1385  C1479   1.444   .     S
C1386  C1412   1.505   .     S
C1386  N1455   1.385   .     A
C1386  C1572   1.445   1_455 S
C1387  O1461   1.381   .     S
C1387  N1455   1.370   .     A
C1387  C1569   1.444   1_455 S
C1388  O1462   1.383   .     S
C1388  N1456   1.371   .     A
C1388  C1478   1.445   .     S
C1389  O1468   1.311   .     A
C1389  O1466   1.319   .     A
C1389  C1391   1.468   .     S
C1390  O1469   1.312   .     A
C1390  O1467   1.320   .     A
C1390  C1393   1.474   .     S
C1391  C1398   1.400   .     A
C1391  C1396   1.396   .     A
C1392  O1465   1.300   .     A
C1392  O1463   1.299   .     A
C1393  C1399   1.398   .     A
C1393  C1397   1.397   .     A
C1394  H1450   1.074   .     S
C1394  C1396   1.395   .     A
C1394  C1402   1.407   .     A
C1395  C1404   1.391   .     A
C1395  H1451   1.063   .     S
C1395  C1397   1.401   .     A
C1396  H1449   1.083   .     S
C1397  H1443   1.080   .     S
C1398  H1432   1.076   .     S
C1398  C1400   1.399   .     A
C1399  C1401   1.403   .     A
C1399  H1421   1.081   .     S
C1400  C1405   1.417   .     A
C1400  C1402   1.419   .     A
C1401  C1406   1.397   .     A
C1401  C1404   1.402   .     A
C1402  C588    1.413   1_556 S
C1403  C1406   1.408   .     A
C1403  C1416   1.394   .     A
C1403  O1459   1.389   .     S
C1405  C1414   1.425   .     A
C1405  C578    1.405   1_556 S
C1407  O1470   1.416   .     S
C1407  H1424   1.114   .     S
C1407  H1423   1.108   .     S
C1407  H1609   1.109   1_455 S
C1408  H1427   1.114   .     S
C1408  H1426   1.111   .     S
C1408  O1458   1.410   .     S
C1408  H1520   1.109   .     S
C1409  H1429   1.116   .     S
C1409  H1430   1.108   .     S
C1409  O1459   1.416   .     S
C1409  H1431   1.109   .     S
C1410  H1434   1.110   .     S
C1410  O1460   1.413   .     S
C1410  H1433   1.114   .     S
C1410  H1435   1.110   .     S
C1411  H1438   1.099   .     S
C1411  H1437   1.107   .     S
C1411  H1528   1.109   .     S
C1412  H1441   1.107   .     S
C1412  H1440   1.098   .     S
C1412  H1623   1.109   1_455 S
C1413  H1442   1.108   .     S
C1413  H1445   1.108   .     S
C1413  H1444   1.115   .     S
C1413  O1461   1.415   .     S
C1414  C1417   1.405   .     A
C1414  O1460   1.386   .     S
C1415  O1462   1.415   .     S
C1415  H1446   1.115   .     S
C1415  H1447   1.107   .     S
C1415  H1448   1.109   .     S
C1416  O1470   1.377   .     S
C1417  O1458   1.384   .     S
C1417  C576    1.411   1_556 S
C1418  H1452   1.084   .     S
C1418  C868    1.372   1_565 S
C1419  H1453   1.084   .     S
C1420  H1454   1.083   .     S
H1425  C1499   1.109   .     S
H1428  C1592   1.109   1_455 S
H1436  C1595   1.109   1_455 S
H1439  C1504   1.109   .     S
N1455  Zn1471  2.061   .     S
N1456  Zn1472  2.061   .     S
O1457  Zn1471  1.976   .     S
O1463  Zn1472  1.976   .     S
O1464  Zn1472  1.978   .     S
O1465  Zn1471  1.978   .     S
O1466  Zn1471  1.899   .     S
O1467  Zn1472  1.899   .     S
O1468  Zn1472  1.877   .     S
O1469  Zn1471  1.877   .     S
C1473  O1549   1.299   .     A
C1473  O1556   1.300   .     A
C1473  C1476   1.404   .     S
C1474  C1476   1.394   .     A
C1474  H1514   1.083   .     S
C1474  C959    1.373   1_565 S
C1475  C1484   1.403   .     S
C1475  C1511   1.393   .     A
C1475  C1512   1.394   .     A
C1476  C1510   1.393   .     A
C1477  N1548   1.384   .     A
C1477  C1503   1.504   .     S
C1477  C1571   1.444   .     S
C1478  C1504   1.505   .     S
C1478  N1547   1.385   .     A
C1479  O1553   1.381   .     S
C1479  N1547   1.370   .     A
C1480  O1554   1.383   .     S
C1480  N1548   1.371   .     A
C1480  C1570   1.445   .     S
C1481  O1560   1.311   .     A
C1481  O1558   1.319   .     A
C1481  C1483   1.468   .     S
C1482  O1561   1.312   .     A
C1482  O1559   1.320   .     A
C1482  C1485   1.474   .     S
C1483  C1490   1.400   .     A
C1483  C1488   1.396   .     A
C1484  O1557   1.300   .     A
C1484  O1555   1.299   .     A
C1485  C1491   1.398   .     A
C1485  C1489   1.397   .     A
C1486  H1542   1.074   .     S
C1486  C1488   1.395   .     A
C1486  C1494   1.407   .     A
C1487  C1496   1.391   .     A
C1487  H1543   1.063   .     S
C1487  C1489   1.401   .     A
C1488  H1541   1.083   .     S
C1489  H1535   1.080   .     S
C1490  H1524   1.076   .     S
C1490  C1492   1.399   .     A
C1491  C1493   1.403   .     A
C1491  H1513   1.081   .     S
C1492  C1497   1.417   .     A
C1492  C1494   1.419   .     A
C1493  C1498   1.397   .     A
C1493  C1496   1.402   .     A
C1494  C680    1.413   1_556 S
C1495  C1498   1.408   .     A
C1495  C1508   1.394   .     A
C1495  O1551   1.389   .     S
C1497  C1506   1.425   .     A
C1497  C670    1.405   1_556 S
C1499  O1562   1.416   .     S
C1499  H1516   1.114   .     S
C1499  H1515   1.108   .     S
C1500  H1519   1.114   .     S
C1500  H1518   1.111   .     S
C1500  O1550   1.410   .     S
C1500  H1612   1.109   .     S
C1501  H1521   1.116   .     S
C1501  H1522   1.108   .     S
C1501  O1551   1.416   .     S
C1501  H1523   1.109   .     S
C1502  H1526   1.110   .     S
C1502  O1552   1.413   .     S
C1502  H1525   1.114   .     S
C1502  H1527   1.110   .     S
C1503  H1530   1.099   .     S
C1503  H1529   1.107   .     S
C1503  H1620   1.109   .     S
C1504  H1533   1.107   .     S
C1504  H1532   1.098   .     S
C1505  H1534   1.108   .     S
C1505  H1537   1.108   .     S
C1505  H1536   1.115   .     S
C1505  O1553   1.415   .     S
C1506  C1509   1.405   .     A
C1506  O1552   1.386   .     S
C1507  O1554   1.415   .     S
C1507  H1538   1.115   .     S
C1507  H1539   1.107   .     S
C1507  H1540   1.109   .     S
C1508  O1562   1.377   .     S
C1509  O1550   1.384   .     S
C1509  C668    1.411   1_556 S
C1510  H1544   1.084   .     S
C1510  C960    1.372   1_565 S
C1511  H1545   1.084   .     S
C1512  H1546   1.083   .     S
H1517  C1591   1.109   .     S
H1531  C1596   1.109   .     S
N1547  Zn1563  2.061   .     S
N1548  Zn1564  2.061   .     S
O1549  Zn1563  1.976   .     S
O1555  Zn1564  1.976   .     S
O1556  Zn1564  1.978   .     S
O1557  Zn1563  1.978   .     S
O1558  Zn1563  1.899   .     S
O1559  Zn1564  1.899   .     S
O1560  Zn1564  1.877   .     S
O1561  Zn1563  1.877   .     S
C1565  O1641   1.299   .     A
C1565  O1648   1.300   .     A
C1565  C1568   1.404   .     S
C1566  C1568   1.394   .     A
C1566  H1606   1.083   .     S
C1566  C1051   1.373   1_565 S
C1567  C1576   1.403   .     S
C1567  C1603   1.393   .     A
C1567  C1604   1.394   .     A
C1568  C1602   1.393   .     A
C1569  N1640   1.384   .     A
C1569  C1595   1.504   .     S
C1569  C1387   1.444   1_655 S
C1570  C1596   1.505   .     S
C1570  N1639   1.385   .     A
C1571  O1645   1.381   .     S
C1571  N1639   1.370   .     A
C1572  O1646   1.383   .     S
C1572  N1640   1.371   .     A
C1572  C1386   1.445   1_655 S
C1573  O1652   1.311   .     A
C1573  O1650   1.319   .     A
C1573  C1575   1.468   .     S
C1574  O1653   1.312   .     A
C1574  O1651   1.320   .     A
C1574  C1577   1.474   .     S
C1575  C1582   1.400   .     A
C1575  C1580   1.396   .     A
C1576  O1649   1.300   .     A
C1576  O1647   1.299   .     A
C1577  C1583   1.398   .     A
C1577  C1581   1.397   .     A
C1578  H1634   1.074   .     S
C1578  C1580   1.395   .     A
C1578  C1586   1.407   .     A
C1579  C1588   1.391   .     A
C1579  H1635   1.063   .     S
C1579  C1581   1.401   .     A
C1580  H1633   1.083   .     S
C1581  H1627   1.080   .     S
C1582  H1616   1.076   .     S
C1582  C1584   1.399   .     A
C1583  C1585   1.403   .     A
C1583  H1605   1.081   .     S
C1584  C1589   1.417   .     A
C1584  C1586   1.419   .     A
C1585  C1590   1.397   .     A
C1585  C1588   1.402   .     A
C1586  C772    1.413   1_556 S
C1587  C1590   1.408   .     A
C1587  C1600   1.394   .     A
C1587  O1643   1.389   .     S
C1589  C1598   1.425   .     A
C1589  C762    1.405   1_556 S
C1591  O1654   1.416   .     S
C1591  H1608   1.114   .     S
C1591  H1607   1.108   .     S
C1592  H1611   1.114   .     S
C1592  H1610   1.111   .     S
C1592  O1642   1.410   .     S
C1592  H1428   1.109   1_655 S
C1593  H1613   1.116   .     S
C1593  H1614   1.108   .     S
C1593  O1643   1.416   .     S
C1593  H1615   1.109   .     S
C1594  H1618   1.110   .     S
C1594  O1644   1.413   .     S
C1594  H1617   1.114   .     S
C1594  H1619   1.110   .     S
C1595  H1622   1.099   .     S
C1595  H1621   1.107   .     S
C1595  H1436   1.109   1_655 S
C1596  H1625   1.107   .     S
C1596  H1624   1.098   .     S
C1597  H1626   1.108   .     S
C1597  H1629   1.108   .     S
C1597  H1628   1.115   .     S
C1597  O1645   1.415   .     S
C1598  C1601   1.405   .     A
C1598  O1644   1.386   .     S
C1599  O1646   1.415   .     S
C1599  H1630   1.115   .     S
C1599  H1631   1.107   .     S
C1599  H1632   1.109   .     S
C1600  O1654   1.377   .     S
C1601  O1642   1.384   .     S
C1601  C760    1.411   1_556 S
C1602  H1636   1.084   .     S
C1602  C1052   1.372   1_565 S
C1603  H1637   1.084   .     S
C1604  H1638   1.083   .     S
H1609  C1407   1.109   1_655 S
H1623  C1412   1.109   1_655 S
N1639  Zn1655  2.061   .     S
N1640  Zn1656  2.061   .     S
O1641  Zn1655  1.976   .     S
O1647  Zn1656  1.976   .     S
O1648  Zn1656  1.978   .     S
O1649  Zn1655  1.978   .     S
O1650  Zn1655  1.899   .     S
O1651  Zn1656  1.899   .     S
O1652  Zn1656  1.877   .     S
O1653  Zn1655  1.877   .     S
