data_str_m3_o1_o2_pcu_sym.58
_audit_creation_date              2020-01-03
_audit_creation_method            'Materials Studio'
_symmetry_space_group_name_H-M    'P1'
_symmetry_Int_Tables_number       1
_symmetry_cell_setting            triclinic
loop_
_symmetry_equiv_pos_as_xyz
  x,y,z
_cell_length_a                    31.9025
_cell_length_b                    29.9269
_cell_length_c                    29.9979
_cell_angle_alpha                 90.0196
_cell_angle_beta                  92.1163
_cell_angle_gamma                 90.2760
loop_
_atom_site_label
_atom_site_type_symbol
_atom_site_fract_x
_atom_site_fract_y
_atom_site_fract_z
_atom_site_U_iso_or_equiv
_atom_site_adp_type
_atom_site_occupancy
C1     C     0.08692   0.16651   0.24998   0.00000  Uiso   1.00
C2     C     0.31230   0.18553   0.28584   0.00000  Uiso   1.00
C3     C     0.31070   0.14863   0.21208   0.00000  Uiso   1.00
C4     C     0.02252   0.18425   0.28735   0.00000  Uiso   1.00
C5     C     0.20270   0.19382   0.05043   0.00000  Uiso   1.00
C6     C     0.19704   0.13774   0.45438   0.00000  Uiso   1.00
C7     C     0.14827   0.20120   0.45363   0.00000  Uiso   1.00
C8     C     0.14368   0.14048   0.04435   0.00000  Uiso   1.00
C9     C     0.19961   0.19400   0.09685   0.00000  Uiso   1.00
C10    C     0.19365   0.13559   0.40769   0.00000  Uiso   1.00
C11    C     0.14682   0.20060   0.40695   0.00000  Uiso   1.00
C12    C     0.24637   0.16680   0.24960   0.00000  Uiso   1.00
C13    C     0.14246   0.13873   0.09097   0.00000  Uiso   1.00
C14    C     0.16934   0.16676   0.11638   0.00000  Uiso   1.00
C15    C     0.16905   0.16744   0.38443   0.00000  Uiso   1.00
C16    C     0.17408   0.16730   0.02479   0.00000  Uiso   1.00
C17    C     0.17327   0.16926   0.47666   0.00000  Uiso   1.00
C18    C     0.29054   0.16727   0.24873   0.00000  Uiso   1.00
C19    C     0.04270   0.16593   0.25063   0.00000  Uiso   1.00
C20    C     0.16686   0.16667   0.16418   0.00000  Uiso   1.00
C21    C     0.16713   0.16676   0.33605   0.00000  Uiso   1.00
C22    C     0.19649   0.02375   0.27424   0.00000  Uiso   1.00
C23    C     0.13692   0.30952   0.22561   0.00000  Uiso   1.00
C24    C     0.13688   0.02348   0.22567   0.00000  Uiso   1.00
C25    C     0.19642   0.30981   0.27435   0.00000  Uiso   1.00
C26    C     0.02096   0.14771   0.21347   0.00000  Uiso   1.00
H27    H     0.21898   0.07556   0.30443   0.00000  Uiso   1.00
H28    H     0.21635   0.07584   0.40222   0.00000  Uiso   1.00
H29    H     0.10989   0.25295   0.40204   0.00000  Uiso   1.00
H30    H     0.10981   0.08393   0.09406   0.00000  Uiso   1.00
H31    H     0.02437   0.11847   0.15509   0.00000  Uiso   1.00
H32    H     0.30901   0.21520   0.34403   0.00000  Uiso   1.00
H33    H     0.25981   0.14222   0.17367   0.00000  Uiso   1.00
H34    H     0.07251   0.18715   0.32696   0.00000  Uiso   1.00
H35    H     0.11503   0.25787   0.19426   0.00000  Uiso   1.00
H36    H     0.11473   0.07506   0.19507   0.00000  Uiso   1.00
H37    H     0.21835   0.25831   0.30544   0.00000  Uiso   1.00
H38    H     0.23384   0.21509   0.49910   0.00000  Uiso   1.00
H39    H     0.24751   0.10182   0.46127   0.00000  Uiso   1.00
H40    H     0.12941   0.23105   0.00790   0.00000  Uiso   1.00
H41    H     0.08856   0.11397   0.03254   0.00000  Uiso   1.00
H42    H     0.24610   0.23659   0.10643   0.00000  Uiso   1.00
N43    N     0.16667   0.28573   0.25000   0.00000  Uiso   1.00
N44    N     0.16667   0.04760   0.25000   0.00000  Uiso   1.00
O45    O     0.10559   0.20487   0.24999   0.00000  Uiso   1.00
O46    O     0.10625   0.28869   0.19961   0.00000  Uiso   1.00
O47    O     0.10618   0.04399   0.19976   0.00000  Uiso   1.00
O48    O     0.22707   0.28928   0.30034   0.00000  Uiso   1.00
O49    O     0.23303   0.22036   0.03158   0.00000  Uiso   1.00
O50    O     0.22333   0.11000   0.47932   0.00000  Uiso   1.00
O51    O     0.12485   0.23296   0.47521   0.00000  Uiso   1.00
O52    O     0.11512   0.11767   0.01686   0.00000  Uiso   1.00
O53    O     0.22636   0.21923   0.12437   0.00000  Uiso   1.00
O54    O     0.21442   0.10347   0.38409   0.00000  Uiso   1.00
O55    O     0.12311   0.23110   0.38225   0.00000  Uiso   1.00
O56    O     0.22774   0.12846   0.25000   0.00000  Uiso   1.00
O57    O     0.11505   0.11095   0.11254   0.00000  Uiso   1.00
O58    O     0.04357   0.13076   0.17874   0.00000  Uiso   1.00
O59    O     0.28976   0.20255   0.32062   0.00000  Uiso   1.00
O60    O     0.28919   0.13185   0.17469   0.00000  Uiso   1.00
O61    O     0.04410   0.20021   0.32498   0.00000  Uiso   1.00
O62    O     0.22774   0.20487   0.25000   0.00000  Uiso   1.00
O63    O     0.10559   0.12846   0.24999   0.00000  Uiso   1.00
O64    O     0.16666   0.20489   0.18453   0.00000  Uiso   1.00
O65    O     0.16667   0.12845   0.31547   0.00000  Uiso   1.00
O66    O     0.16667   0.20489   0.31547   0.00000  Uiso   1.00
O67    O     0.16666   0.12845   0.18453   0.00000  Uiso   1.00
O68    O     0.22737   0.04452   0.29993   0.00000  Uiso   1.00
Zn69   Zn    0.16667   0.21771   0.25000   0.00000  Uiso   1.00
Zn70   Zn    0.16667   0.11563   0.25000   0.00000  Uiso   1.00
C71    C     0.42026   0.16651   0.24998   0.00000  Uiso   1.00
C72    C     0.64564   0.18553   0.28584   0.00000  Uiso   1.00
C73    C     0.64403   0.14863   0.21208   0.00000  Uiso   1.00
C74    C     0.35585   0.18425   0.28735   0.00000  Uiso   1.00
C75    C     0.53604   0.19382   0.05043   0.00000  Uiso   1.00
C76    C     0.53037   0.13774   0.45438   0.00000  Uiso   1.00
C77    C     0.48160   0.20120   0.45363   0.00000  Uiso   1.00
C78    C     0.47701   0.14048   0.04435   0.00000  Uiso   1.00
C79    C     0.53295   0.19400   0.09685   0.00000  Uiso   1.00
C80    C     0.52698   0.13559   0.40769   0.00000  Uiso   1.00
C81    C     0.48015   0.20060   0.40695   0.00000  Uiso   1.00
C82    C     0.57970   0.16680   0.24960   0.00000  Uiso   1.00
C83    C     0.47579   0.13873   0.09097   0.00000  Uiso   1.00
C84    C     0.50267   0.16676   0.11638   0.00000  Uiso   1.00
C85    C     0.50238   0.16744   0.38443   0.00000  Uiso   1.00
C86    C     0.50741   0.16730   0.02479   0.00000  Uiso   1.00
C87    C     0.50660   0.16926   0.47666   0.00000  Uiso   1.00
C88    C     0.62387   0.16727   0.24873   0.00000  Uiso   1.00
C89    C     0.37604   0.16593   0.25063   0.00000  Uiso   1.00
C90    C     0.50020   0.16667   0.16418   0.00000  Uiso   1.00
C91    C     0.50046   0.16676   0.33605   0.00000  Uiso   1.00
C92    C     0.52983   0.02375   0.27424   0.00000  Uiso   1.00
C93    C     0.47025   0.30952   0.22561   0.00000  Uiso   1.00
C94    C     0.47022   0.02348   0.22567   0.00000  Uiso   1.00
C95    C     0.52975   0.30981   0.27435   0.00000  Uiso   1.00
C96    C     0.35430   0.14771   0.21347   0.00000  Uiso   1.00
H97    H     0.55232   0.07556   0.30443   0.00000  Uiso   1.00
H98    H     0.54968   0.07584   0.40222   0.00000  Uiso   1.00
H99    H     0.44323   0.25295   0.40204   0.00000  Uiso   1.00
H100   H     0.44314   0.08393   0.09406   0.00000  Uiso   1.00
H101   H     0.35771   0.11847   0.15509   0.00000  Uiso   1.00
H102   H     0.64234   0.21520   0.34403   0.00000  Uiso   1.00
H103   H     0.59314   0.14222   0.17367   0.00000  Uiso   1.00
H104   H     0.40584   0.18715   0.32696   0.00000  Uiso   1.00
H105   H     0.44836   0.25787   0.19426   0.00000  Uiso   1.00
H106   H     0.44806   0.07506   0.19507   0.00000  Uiso   1.00
H107   H     0.55168   0.25831   0.30544   0.00000  Uiso   1.00
H108   H     0.56717   0.21509   0.49910   0.00000  Uiso   1.00
H109   H     0.58084   0.10182   0.46127   0.00000  Uiso   1.00
H110   H     0.46275   0.23105   0.00790   0.00000  Uiso   1.00
H111   H     0.42189   0.11397   0.03254   0.00000  Uiso   1.00
H112   H     0.57944   0.23659   0.10643   0.00000  Uiso   1.00
N113   N     0.50000   0.28573   0.25000   0.00000  Uiso   1.00
N114   N     0.50000   0.04760   0.25000   0.00000  Uiso   1.00
O115   O     0.43892   0.20487   0.24999   0.00000  Uiso   1.00
O116   O     0.43958   0.28869   0.19961   0.00000  Uiso   1.00
O117   O     0.43952   0.04399   0.19976   0.00000  Uiso   1.00
O118   O     0.56040   0.28928   0.30034   0.00000  Uiso   1.00
O119   O     0.56636   0.22036   0.03158   0.00000  Uiso   1.00
O120   O     0.55667   0.11000   0.47932   0.00000  Uiso   1.00
O121   O     0.45818   0.23296   0.47521   0.00000  Uiso   1.00
O122   O     0.44845   0.11767   0.01686   0.00000  Uiso   1.00
O123   O     0.55969   0.21923   0.12437   0.00000  Uiso   1.00
O124   O     0.54776   0.10347   0.38409   0.00000  Uiso   1.00
O125   O     0.45644   0.23110   0.38225   0.00000  Uiso   1.00
O126   O     0.56108   0.12846   0.25000   0.00000  Uiso   1.00
O127   O     0.44838   0.11095   0.11254   0.00000  Uiso   1.00
O128   O     0.37690   0.13076   0.17874   0.00000  Uiso   1.00
O129   O     0.62310   0.20255   0.32062   0.00000  Uiso   1.00
O130   O     0.62252   0.13185   0.17469   0.00000  Uiso   1.00
O131   O     0.37743   0.20021   0.32498   0.00000  Uiso   1.00
O132   O     0.56108   0.20487   0.25000   0.00000  Uiso   1.00
O133   O     0.43892   0.12846   0.24999   0.00000  Uiso   1.00
O134   O     0.50000   0.20489   0.18453   0.00000  Uiso   1.00
O135   O     0.50000   0.12845   0.31547   0.00000  Uiso   1.00
O136   O     0.50000   0.20489   0.31547   0.00000  Uiso   1.00
O137   O     0.50000   0.12845   0.18453   0.00000  Uiso   1.00
O138   O     0.56071   0.04452   0.29993   0.00000  Uiso   1.00
Zn139  Zn    0.50000   0.21771   0.25000   0.00000  Uiso   1.00
Zn140  Zn    0.50000   0.11563   0.25000   0.00000  Uiso   1.00
C141   C     0.75359   0.16651   0.24998   0.00000  Uiso   1.00
C142   C     0.97897   0.18553   0.28584   0.00000  Uiso   1.00
C143   C     0.97737   0.14863   0.21208   0.00000  Uiso   1.00
C144   C     0.68918   0.18425   0.28735   0.00000  Uiso   1.00
C145   C     0.86937   0.19382   0.05043   0.00000  Uiso   1.00
C146   C     0.86370   0.13774   0.45438   0.00000  Uiso   1.00
C147   C     0.81493   0.20120   0.45363   0.00000  Uiso   1.00
C148   C     0.81035   0.14048   0.04435   0.00000  Uiso   1.00
C149   C     0.86628   0.19400   0.09685   0.00000  Uiso   1.00
C150   C     0.86032   0.13559   0.40769   0.00000  Uiso   1.00
C151   C     0.81349   0.20060   0.40695   0.00000  Uiso   1.00
C152   C     0.91304   0.16680   0.24960   0.00000  Uiso   1.00
C153   C     0.80912   0.13873   0.09097   0.00000  Uiso   1.00
C154   C     0.83600   0.16676   0.11638   0.00000  Uiso   1.00
C155   C     0.83571   0.16744   0.38443   0.00000  Uiso   1.00
C156   C     0.84075   0.16730   0.02479   0.00000  Uiso   1.00
C157   C     0.83994   0.16926   0.47666   0.00000  Uiso   1.00
C158   C     0.95721   0.16727   0.24873   0.00000  Uiso   1.00
C159   C     0.70937   0.16593   0.25063   0.00000  Uiso   1.00
C160   C     0.83353   0.16667   0.16418   0.00000  Uiso   1.00
C161   C     0.83379   0.16676   0.33605   0.00000  Uiso   1.00
C162   C     0.86316   0.02375   0.27424   0.00000  Uiso   1.00
C163   C     0.80359   0.30952   0.22561   0.00000  Uiso   1.00
C164   C     0.80355   0.02348   0.22567   0.00000  Uiso   1.00
C165   C     0.86309   0.30981   0.27435   0.00000  Uiso   1.00
C166   C     0.68763   0.14771   0.21347   0.00000  Uiso   1.00
H167   H     0.88565   0.07556   0.30443   0.00000  Uiso   1.00
H168   H     0.88301   0.07584   0.40222   0.00000  Uiso   1.00
H169   H     0.77656   0.25295   0.40204   0.00000  Uiso   1.00
H170   H     0.77647   0.08393   0.09406   0.00000  Uiso   1.00
H171   H     0.69104   0.11847   0.15509   0.00000  Uiso   1.00
H172   H     0.97567   0.21520   0.34403   0.00000  Uiso   1.00
H173   H     0.92648   0.14222   0.17367   0.00000  Uiso   1.00
H174   H     0.73917   0.18715   0.32696   0.00000  Uiso   1.00
H175   H     0.78170   0.25787   0.19426   0.00000  Uiso   1.00
H176   H     0.78139   0.07506   0.19507   0.00000  Uiso   1.00
H177   H     0.88501   0.25831   0.30544   0.00000  Uiso   1.00
H178   H     0.90050   0.21509   0.49910   0.00000  Uiso   1.00
H179   H     0.91418   0.10182   0.46127   0.00000  Uiso   1.00
H180   H     0.79608   0.23105   0.00790   0.00000  Uiso   1.00
H181   H     0.75522   0.11397   0.03254   0.00000  Uiso   1.00
H182   H     0.91277   0.23659   0.10643   0.00000  Uiso   1.00
N183   N     0.83333   0.28573   0.25000   0.00000  Uiso   1.00
N184   N     0.83333   0.04760   0.25000   0.00000  Uiso   1.00
O185   O     0.77226   0.20487   0.24999   0.00000  Uiso   1.00
O186   O     0.77292   0.28869   0.19961   0.00000  Uiso   1.00
O187   O     0.77285   0.04399   0.19976   0.00000  Uiso   1.00
O188   O     0.89373   0.28928   0.30034   0.00000  Uiso   1.00
O189   O     0.89970   0.22036   0.03158   0.00000  Uiso   1.00
O190   O     0.89000   0.11000   0.47932   0.00000  Uiso   1.00
O191   O     0.79152   0.23296   0.47521   0.00000  Uiso   1.00
O192   O     0.78179   0.11767   0.01686   0.00000  Uiso   1.00
O193   O     0.89302   0.21923   0.12437   0.00000  Uiso   1.00
O194   O     0.88109   0.10347   0.38409   0.00000  Uiso   1.00
O195   O     0.78978   0.23110   0.38225   0.00000  Uiso   1.00
O196   O     0.89441   0.12846   0.25000   0.00000  Uiso   1.00
O197   O     0.78171   0.11095   0.11254   0.00000  Uiso   1.00
O198   O     0.71023   0.13076   0.17874   0.00000  Uiso   1.00
O199   O     0.95643   0.20255   0.32062   0.00000  Uiso   1.00
O200   O     0.95586   0.13185   0.17469   0.00000  Uiso   1.00
O201   O     0.71077   0.20021   0.32498   0.00000  Uiso   1.00
O202   O     0.89441   0.20487   0.25000   0.00000  Uiso   1.00
O203   O     0.77226   0.12846   0.24999   0.00000  Uiso   1.00
O204   O     0.83333   0.20489   0.18453   0.00000  Uiso   1.00
O205   O     0.83334   0.12845   0.31547   0.00000  Uiso   1.00
O206   O     0.83334   0.20489   0.31547   0.00000  Uiso   1.00
O207   O     0.83333   0.12845   0.18453   0.00000  Uiso   1.00
O208   O     0.89404   0.04452   0.29993   0.00000  Uiso   1.00
Zn209  Zn    0.83333   0.21771   0.25000   0.00000  Uiso   1.00
Zn210  Zn    0.83333   0.11563   0.25000   0.00000  Uiso   1.00
C211   C     0.08692   0.49985   0.24998   0.00000  Uiso   1.00
C212   C     0.31230   0.51886   0.28584   0.00000  Uiso   1.00
C213   C     0.31070   0.48196   0.21208   0.00000  Uiso   1.00
C214   C     0.02252   0.51758   0.28735   0.00000  Uiso   1.00
C215   C     0.20270   0.52715   0.05043   0.00000  Uiso   1.00
C216   C     0.19704   0.47108   0.45438   0.00000  Uiso   1.00
C217   C     0.14827   0.53454   0.45363   0.00000  Uiso   1.00
C218   C     0.14368   0.47381   0.04435   0.00000  Uiso   1.00
C219   C     0.19961   0.52733   0.09685   0.00000  Uiso   1.00
C220   C     0.19365   0.46893   0.40769   0.00000  Uiso   1.00
C221   C     0.14682   0.53394   0.40695   0.00000  Uiso   1.00
C222   C     0.24637   0.50013   0.24960   0.00000  Uiso   1.00
C223   C     0.14246   0.47206   0.09097   0.00000  Uiso   1.00
C224   C     0.16934   0.50010   0.11638   0.00000  Uiso   1.00
C225   C     0.16905   0.50078   0.38443   0.00000  Uiso   1.00
C226   C     0.17408   0.50063   0.02479   0.00000  Uiso   1.00
C227   C     0.17327   0.50259   0.47666   0.00000  Uiso   1.00
C228   C     0.29054   0.50061   0.24873   0.00000  Uiso   1.00
C229   C     0.04270   0.49926   0.25063   0.00000  Uiso   1.00
C230   C     0.16686   0.50000   0.16418   0.00000  Uiso   1.00
C231   C     0.16713   0.50010   0.33605   0.00000  Uiso   1.00
C232   C     0.19649   0.35709   0.27424   0.00000  Uiso   1.00
C233   C     0.13692   0.64285   0.22561   0.00000  Uiso   1.00
C234   C     0.13688   0.35682   0.22567   0.00000  Uiso   1.00
C235   C     0.19642   0.64314   0.27435   0.00000  Uiso   1.00
C236   C     0.02096   0.48105   0.21347   0.00000  Uiso   1.00
H237   H     0.21898   0.40889   0.30443   0.00000  Uiso   1.00
H238   H     0.21635   0.40918   0.40222   0.00000  Uiso   1.00
H239   H     0.10989   0.58628   0.40204   0.00000  Uiso   1.00
H240   H     0.10981   0.41726   0.09406   0.00000  Uiso   1.00
H241   H     0.02437   0.45180   0.15509   0.00000  Uiso   1.00
H242   H     0.30901   0.54853   0.34403   0.00000  Uiso   1.00
H243   H     0.25981   0.47556   0.17367   0.00000  Uiso   1.00
H244   H     0.07251   0.52048   0.32696   0.00000  Uiso   1.00
H245   H     0.11503   0.59120   0.19426   0.00000  Uiso   1.00
H246   H     0.11473   0.40839   0.19507   0.00000  Uiso   1.00
H247   H     0.21835   0.59164   0.30544   0.00000  Uiso   1.00
H248   H     0.23384   0.54843   0.49910   0.00000  Uiso   1.00
H249   H     0.24751   0.43516   0.46127   0.00000  Uiso   1.00
H250   H     0.12941   0.56439   0.00790   0.00000  Uiso   1.00
H251   H     0.08856   0.44731   0.03254   0.00000  Uiso   1.00
H252   H     0.24610   0.56993   0.10643   0.00000  Uiso   1.00
N253   N     0.16667   0.61907   0.25000   0.00000  Uiso   1.00
N254   N     0.16667   0.38093   0.25000   0.00000  Uiso   1.00
O255   O     0.10559   0.53821   0.24999   0.00000  Uiso   1.00
O256   O     0.10625   0.62202   0.19961   0.00000  Uiso   1.00
O257   O     0.10618   0.37732   0.19976   0.00000  Uiso   1.00
O258   O     0.22707   0.62261   0.30034   0.00000  Uiso   1.00
O259   O     0.23303   0.55369   0.03158   0.00000  Uiso   1.00
O260   O     0.22333   0.44333   0.47932   0.00000  Uiso   1.00
O261   O     0.12485   0.56629   0.47521   0.00000  Uiso   1.00
O262   O     0.11512   0.45101   0.01686   0.00000  Uiso   1.00
O263   O     0.22636   0.55256   0.12437   0.00000  Uiso   1.00
O264   O     0.21442   0.43680   0.38409   0.00000  Uiso   1.00
O265   O     0.12311   0.56444   0.38225   0.00000  Uiso   1.00
O266   O     0.22774   0.46179   0.25000   0.00000  Uiso   1.00
O267   O     0.11505   0.44428   0.11254   0.00000  Uiso   1.00
O268   O     0.04357   0.46409   0.17874   0.00000  Uiso   1.00
O269   O     0.28976   0.53588   0.32062   0.00000  Uiso   1.00
O270   O     0.28919   0.46518   0.17469   0.00000  Uiso   1.00
O271   O     0.04410   0.53354   0.32498   0.00000  Uiso   1.00
O272   O     0.22774   0.53821   0.25000   0.00000  Uiso   1.00
O273   O     0.10559   0.46179   0.24999   0.00000  Uiso   1.00
O274   O     0.16666   0.53822   0.18453   0.00000  Uiso   1.00
O275   O     0.16667   0.46178   0.31547   0.00000  Uiso   1.00
O276   O     0.16667   0.53822   0.31547   0.00000  Uiso   1.00
O277   O     0.16666   0.46178   0.18453   0.00000  Uiso   1.00
O278   O     0.22737   0.37785   0.29993   0.00000  Uiso   1.00
Zn279  Zn    0.16667   0.55104   0.25000   0.00000  Uiso   1.00
Zn280  Zn    0.16667   0.44896   0.25000   0.00000  Uiso   1.00
C281   C     0.42026   0.49985   0.24998   0.00000  Uiso   1.00
C282   C     0.64564   0.51886   0.28584   0.00000  Uiso   1.00
C283   C     0.64403   0.48196   0.21208   0.00000  Uiso   1.00
C284   C     0.35585   0.51758   0.28735   0.00000  Uiso   1.00
C285   C     0.53604   0.52715   0.05043   0.00000  Uiso   1.00
C286   C     0.53037   0.47108   0.45438   0.00000  Uiso   1.00
C287   C     0.48160   0.53454   0.45363   0.00000  Uiso   1.00
C288   C     0.47701   0.47381   0.04435   0.00000  Uiso   1.00
C289   C     0.53295   0.52733   0.09685   0.00000  Uiso   1.00
C290   C     0.52698   0.46893   0.40769   0.00000  Uiso   1.00
C291   C     0.48015   0.53394   0.40695   0.00000  Uiso   1.00
C292   C     0.57970   0.50013   0.24960   0.00000  Uiso   1.00
C293   C     0.47579   0.47206   0.09097   0.00000  Uiso   1.00
C294   C     0.50267   0.50010   0.11638   0.00000  Uiso   1.00
C295   C     0.50238   0.50078   0.38443   0.00000  Uiso   1.00
C296   C     0.50741   0.50063   0.02479   0.00000  Uiso   1.00
C297   C     0.50660   0.50259   0.47666   0.00000  Uiso   1.00
C298   C     0.62387   0.50061   0.24873   0.00000  Uiso   1.00
C299   C     0.37604   0.49926   0.25063   0.00000  Uiso   1.00
C300   C     0.50020   0.50000   0.16418   0.00000  Uiso   1.00
C301   C     0.50046   0.50010   0.33605   0.00000  Uiso   1.00
C302   C     0.52983   0.35709   0.27424   0.00000  Uiso   1.00
C303   C     0.47025   0.64285   0.22561   0.00000  Uiso   1.00
C304   C     0.47022   0.35682   0.22567   0.00000  Uiso   1.00
C305   C     0.52975   0.64314   0.27435   0.00000  Uiso   1.00
C306   C     0.35430   0.48105   0.21347   0.00000  Uiso   1.00
H307   H     0.55232   0.40889   0.30443   0.00000  Uiso   1.00
H308   H     0.54968   0.40918   0.40222   0.00000  Uiso   1.00
H309   H     0.44323   0.58628   0.40204   0.00000  Uiso   1.00
H310   H     0.44314   0.41726   0.09406   0.00000  Uiso   1.00
H311   H     0.35771   0.45180   0.15509   0.00000  Uiso   1.00
H312   H     0.64234   0.54853   0.34403   0.00000  Uiso   1.00
H313   H     0.59314   0.47556   0.17367   0.00000  Uiso   1.00
H314   H     0.40584   0.52048   0.32696   0.00000  Uiso   1.00
H315   H     0.44836   0.59120   0.19426   0.00000  Uiso   1.00
H316   H     0.44806   0.40839   0.19507   0.00000  Uiso   1.00
H317   H     0.55168   0.59164   0.30544   0.00000  Uiso   1.00
H318   H     0.56717   0.54843   0.49910   0.00000  Uiso   1.00
H319   H     0.58084   0.43516   0.46127   0.00000  Uiso   1.00
H320   H     0.46275   0.56439   0.00790   0.00000  Uiso   1.00
H321   H     0.42189   0.44731   0.03254   0.00000  Uiso   1.00
H322   H     0.57944   0.56993   0.10643   0.00000  Uiso   1.00
N323   N     0.50000   0.61907   0.25000   0.00000  Uiso   1.00
N324   N     0.50000   0.38093   0.25000   0.00000  Uiso   1.00
O325   O     0.43892   0.53821   0.24999   0.00000  Uiso   1.00
O326   O     0.43958   0.62202   0.19961   0.00000  Uiso   1.00
O327   O     0.43952   0.37732   0.19976   0.00000  Uiso   1.00
O328   O     0.56040   0.62261   0.30034   0.00000  Uiso   1.00
O329   O     0.56636   0.55369   0.03158   0.00000  Uiso   1.00
O330   O     0.55667   0.44333   0.47932   0.00000  Uiso   1.00
O331   O     0.45818   0.56629   0.47521   0.00000  Uiso   1.00
O332   O     0.44845   0.45101   0.01686   0.00000  Uiso   1.00
O333   O     0.55969   0.55256   0.12437   0.00000  Uiso   1.00
O334   O     0.54776   0.43680   0.38409   0.00000  Uiso   1.00
O335   O     0.45644   0.56444   0.38225   0.00000  Uiso   1.00
O336   O     0.56108   0.46179   0.25000   0.00000  Uiso   1.00
O337   O     0.44838   0.44428   0.11254   0.00000  Uiso   1.00
O338   O     0.37690   0.46409   0.17874   0.00000  Uiso   1.00
O339   O     0.62310   0.53588   0.32062   0.00000  Uiso   1.00
O340   O     0.62252   0.46518   0.17469   0.00000  Uiso   1.00
O341   O     0.37743   0.53354   0.32498   0.00000  Uiso   1.00
O342   O     0.56108   0.53821   0.25000   0.00000  Uiso   1.00
O343   O     0.43892   0.46179   0.24999   0.00000  Uiso   1.00
O344   O     0.50000   0.53822   0.18453   0.00000  Uiso   1.00
O345   O     0.50000   0.46178   0.31547   0.00000  Uiso   1.00
O346   O     0.50000   0.53822   0.31547   0.00000  Uiso   1.00
O347   O     0.50000   0.46178   0.18453   0.00000  Uiso   1.00
O348   O     0.56071   0.37785   0.29993   0.00000  Uiso   1.00
Zn349  Zn    0.50000   0.55104   0.25000   0.00000  Uiso   1.00
Zn350  Zn    0.50000   0.44896   0.25000   0.00000  Uiso   1.00
C351   C     0.75359   0.49985   0.24998   0.00000  Uiso   1.00
C352   C     0.97897   0.51886   0.28584   0.00000  Uiso   1.00
C353   C     0.97737   0.48196   0.21208   0.00000  Uiso   1.00
C354   C     0.68918   0.51758   0.28735   0.00000  Uiso   1.00
C355   C     0.86937   0.52715   0.05043   0.00000  Uiso   1.00
C356   C     0.86370   0.47108   0.45438   0.00000  Uiso   1.00
C357   C     0.81493   0.53454   0.45363   0.00000  Uiso   1.00
C358   C     0.81035   0.47381   0.04435   0.00000  Uiso   1.00
C359   C     0.86628   0.52733   0.09685   0.00000  Uiso   1.00
C360   C     0.86032   0.46893   0.40769   0.00000  Uiso   1.00
C361   C     0.81349   0.53394   0.40695   0.00000  Uiso   1.00
C362   C     0.91304   0.50013   0.24960   0.00000  Uiso   1.00
C363   C     0.80912   0.47206   0.09097   0.00000  Uiso   1.00
C364   C     0.83600   0.50010   0.11638   0.00000  Uiso   1.00
C365   C     0.83571   0.50078   0.38443   0.00000  Uiso   1.00
C366   C     0.84075   0.50063   0.02479   0.00000  Uiso   1.00
C367   C     0.83994   0.50259   0.47666   0.00000  Uiso   1.00
C368   C     0.95721   0.50061   0.24873   0.00000  Uiso   1.00
C369   C     0.70937   0.49926   0.25063   0.00000  Uiso   1.00
C370   C     0.83353   0.50000   0.16418   0.00000  Uiso   1.00
C371   C     0.83379   0.50010   0.33605   0.00000  Uiso   1.00
C372   C     0.86316   0.35709   0.27424   0.00000  Uiso   1.00
C373   C     0.80359   0.64285   0.22561   0.00000  Uiso   1.00
C374   C     0.80355   0.35682   0.22567   0.00000  Uiso   1.00
C375   C     0.86309   0.64314   0.27435   0.00000  Uiso   1.00
C376   C     0.68763   0.48105   0.21347   0.00000  Uiso   1.00
H377   H     0.88565   0.40889   0.30443   0.00000  Uiso   1.00
H378   H     0.88301   0.40918   0.40222   0.00000  Uiso   1.00
H379   H     0.77656   0.58628   0.40204   0.00000  Uiso   1.00
H380   H     0.77647   0.41726   0.09406   0.00000  Uiso   1.00
H381   H     0.69104   0.45180   0.15509   0.00000  Uiso   1.00
H382   H     0.97567   0.54853   0.34403   0.00000  Uiso   1.00
H383   H     0.92648   0.47556   0.17367   0.00000  Uiso   1.00
H384   H     0.73917   0.52048   0.32696   0.00000  Uiso   1.00
H385   H     0.78170   0.59120   0.19426   0.00000  Uiso   1.00
H386   H     0.78139   0.40839   0.19507   0.00000  Uiso   1.00
H387   H     0.88501   0.59164   0.30544   0.00000  Uiso   1.00
H388   H     0.90050   0.54843   0.49910   0.00000  Uiso   1.00
H389   H     0.91418   0.43516   0.46127   0.00000  Uiso   1.00
H390   H     0.79608   0.56439   0.00790   0.00000  Uiso   1.00
H391   H     0.75522   0.44731   0.03254   0.00000  Uiso   1.00
H392   H     0.91277   0.56993   0.10643   0.00000  Uiso   1.00
N393   N     0.83333   0.61907   0.25000   0.00000  Uiso   1.00
N394   N     0.83333   0.38093   0.25000   0.00000  Uiso   1.00
O395   O     0.77226   0.53821   0.24999   0.00000  Uiso   1.00
O396   O     0.77292   0.62202   0.19961   0.00000  Uiso   1.00
O397   O     0.77285   0.37732   0.19976   0.00000  Uiso   1.00
O398   O     0.89373   0.62261   0.30034   0.00000  Uiso   1.00
O399   O     0.89970   0.55369   0.03158   0.00000  Uiso   1.00
O400   O     0.89000   0.44333   0.47932   0.00000  Uiso   1.00
O401   O     0.79152   0.56629   0.47521   0.00000  Uiso   1.00
O402   O     0.78179   0.45101   0.01686   0.00000  Uiso   1.00
O403   O     0.89302   0.55256   0.12437   0.00000  Uiso   1.00
O404   O     0.88109   0.43680   0.38409   0.00000  Uiso   1.00
O405   O     0.78978   0.56444   0.38225   0.00000  Uiso   1.00
O406   O     0.89441   0.46179   0.25000   0.00000  Uiso   1.00
O407   O     0.78171   0.44428   0.11254   0.00000  Uiso   1.00
O408   O     0.71023   0.46409   0.17874   0.00000  Uiso   1.00
O409   O     0.95643   0.53588   0.32062   0.00000  Uiso   1.00
O410   O     0.95586   0.46518   0.17469   0.00000  Uiso   1.00
O411   O     0.71077   0.53354   0.32498   0.00000  Uiso   1.00
O412   O     0.89441   0.53821   0.25000   0.00000  Uiso   1.00
O413   O     0.77226   0.46179   0.24999   0.00000  Uiso   1.00
O414   O     0.83333   0.53822   0.18453   0.00000  Uiso   1.00
O415   O     0.83334   0.46178   0.31547   0.00000  Uiso   1.00
O416   O     0.83334   0.53822   0.31547   0.00000  Uiso   1.00
O417   O     0.83333   0.46178   0.18453   0.00000  Uiso   1.00
O418   O     0.89404   0.37785   0.29993   0.00000  Uiso   1.00
Zn419  Zn    0.83333   0.55104   0.25000   0.00000  Uiso   1.00
Zn420  Zn    0.83333   0.44896   0.25000   0.00000  Uiso   1.00
C421   C     0.08692   0.83318   0.24998   0.00000  Uiso   1.00
C422   C     0.31230   0.85220   0.28584   0.00000  Uiso   1.00
C423   C     0.31070   0.81529   0.21208   0.00000  Uiso   1.00
C424   C     0.02252   0.85092   0.28735   0.00000  Uiso   1.00
C425   C     0.20270   0.86048   0.05043   0.00000  Uiso   1.00
C426   C     0.19704   0.80441   0.45438   0.00000  Uiso   1.00
C427   C     0.14827   0.86787   0.45363   0.00000  Uiso   1.00
C428   C     0.14368   0.80714   0.04435   0.00000  Uiso   1.00
C429   C     0.19961   0.86066   0.09685   0.00000  Uiso   1.00
C430   C     0.19365   0.80226   0.40769   0.00000  Uiso   1.00
C431   C     0.14682   0.86727   0.40695   0.00000  Uiso   1.00
C432   C     0.24637   0.83346   0.24960   0.00000  Uiso   1.00
C433   C     0.14246   0.80539   0.09097   0.00000  Uiso   1.00
C434   C     0.16934   0.83343   0.11638   0.00000  Uiso   1.00
C435   C     0.16905   0.83411   0.38443   0.00000  Uiso   1.00
C436   C     0.17408   0.83397   0.02479   0.00000  Uiso   1.00
C437   C     0.17327   0.83592   0.47666   0.00000  Uiso   1.00
C438   C     0.29054   0.83394   0.24873   0.00000  Uiso   1.00
C439   C     0.04270   0.83260   0.25063   0.00000  Uiso   1.00
C440   C     0.16686   0.83333   0.16418   0.00000  Uiso   1.00
C441   C     0.16713   0.83343   0.33605   0.00000  Uiso   1.00
C442   C     0.19649   0.69042   0.27424   0.00000  Uiso   1.00
C443   C     0.13692   0.97619   0.22561   0.00000  Uiso   1.00
C444   C     0.13688   0.69015   0.22567   0.00000  Uiso   1.00
C445   C     0.19642   0.97648   0.27435   0.00000  Uiso   1.00
C446   C     0.02096   0.81438   0.21347   0.00000  Uiso   1.00
H447   H     0.21898   0.74222   0.30443   0.00000  Uiso   1.00
H448   H     0.21635   0.74251   0.40222   0.00000  Uiso   1.00
H449   H     0.10989   0.91961   0.40204   0.00000  Uiso   1.00
H450   H     0.10981   0.75059   0.09406   0.00000  Uiso   1.00
H451   H     0.02437   0.78513   0.15509   0.00000  Uiso   1.00
H452   H     0.30901   0.88186   0.34403   0.00000  Uiso   1.00
H453   H     0.25981   0.80889   0.17367   0.00000  Uiso   1.00
H454   H     0.07251   0.85382   0.32696   0.00000  Uiso   1.00
H455   H     0.11503   0.92454   0.19426   0.00000  Uiso   1.00
H456   H     0.11473   0.74172   0.19507   0.00000  Uiso   1.00
H457   H     0.21835   0.92498   0.30544   0.00000  Uiso   1.00
H458   H     0.23384   0.88176   0.49910   0.00000  Uiso   1.00
H459   H     0.24751   0.76849   0.46127   0.00000  Uiso   1.00
H460   H     0.12941   0.89772   0.00790   0.00000  Uiso   1.00
H461   H     0.08856   0.78064   0.03254   0.00000  Uiso   1.00
H462   H     0.24610   0.90326   0.10643   0.00000  Uiso   1.00
N463   N     0.16667   0.95240   0.25000   0.00000  Uiso   1.00
N464   N     0.16667   0.71427   0.25000   0.00000  Uiso   1.00
O465   O     0.10559   0.87154   0.24999   0.00000  Uiso   1.00
O466   O     0.10625   0.95535   0.19961   0.00000  Uiso   1.00
O467   O     0.10618   0.71065   0.19976   0.00000  Uiso   1.00
O468   O     0.22707   0.95594   0.30034   0.00000  Uiso   1.00
O469   O     0.23303   0.88703   0.03158   0.00000  Uiso   1.00
O470   O     0.22333   0.77667   0.47932   0.00000  Uiso   1.00
O471   O     0.12485   0.89962   0.47521   0.00000  Uiso   1.00
O472   O     0.11512   0.78434   0.01686   0.00000  Uiso   1.00
O473   O     0.22636   0.88589   0.12437   0.00000  Uiso   1.00
O474   O     0.21442   0.77013   0.38409   0.00000  Uiso   1.00
O475   O     0.12311   0.89777   0.38225   0.00000  Uiso   1.00
O476   O     0.22774   0.79513   0.25000   0.00000  Uiso   1.00
O477   O     0.11505   0.77762   0.11254   0.00000  Uiso   1.00
O478   O     0.04357   0.79742   0.17874   0.00000  Uiso   1.00
O479   O     0.28976   0.86921   0.32062   0.00000  Uiso   1.00
O480   O     0.28919   0.79852   0.17469   0.00000  Uiso   1.00
O481   O     0.04410   0.86688   0.32498   0.00000  Uiso   1.00
O482   O     0.22774   0.87154   0.25000   0.00000  Uiso   1.00
O483   O     0.10559   0.79513   0.24999   0.00000  Uiso   1.00
O484   O     0.16666   0.87155   0.18453   0.00000  Uiso   1.00
O485   O     0.16667   0.79511   0.31547   0.00000  Uiso   1.00
O486   O     0.16667   0.87155   0.31547   0.00000  Uiso   1.00
O487   O     0.16666   0.79511   0.18453   0.00000  Uiso   1.00
O488   O     0.22737   0.71118   0.29993   0.00000  Uiso   1.00
Zn489  Zn    0.16667   0.88437   0.25000   0.00000  Uiso   1.00
Zn490  Zn    0.16667   0.78229   0.25000   0.00000  Uiso   1.00
C491   C     0.42026   0.83318   0.24998   0.00000  Uiso   1.00
C492   C     0.64564   0.85220   0.28584   0.00000  Uiso   1.00
C493   C     0.64403   0.81529   0.21208   0.00000  Uiso   1.00
C494   C     0.35585   0.85092   0.28735   0.00000  Uiso   1.00
C495   C     0.53604   0.86048   0.05043   0.00000  Uiso   1.00
C496   C     0.53037   0.80441   0.45438   0.00000  Uiso   1.00
C497   C     0.48160   0.86787   0.45363   0.00000  Uiso   1.00
C498   C     0.47701   0.80714   0.04435   0.00000  Uiso   1.00
C499   C     0.53295   0.86066   0.09685   0.00000  Uiso   1.00
C500   C     0.52698   0.80226   0.40769   0.00000  Uiso   1.00
C501   C     0.48015   0.86727   0.40695   0.00000  Uiso   1.00
C502   C     0.57970   0.83346   0.24960   0.00000  Uiso   1.00
C503   C     0.47579   0.80539   0.09097   0.00000  Uiso   1.00
C504   C     0.50267   0.83343   0.11638   0.00000  Uiso   1.00
C505   C     0.50238   0.83411   0.38443   0.00000  Uiso   1.00
C506   C     0.50741   0.83397   0.02479   0.00000  Uiso   1.00
C507   C     0.50660   0.83592   0.47666   0.00000  Uiso   1.00
C508   C     0.62387   0.83394   0.24873   0.00000  Uiso   1.00
C509   C     0.37604   0.83260   0.25063   0.00000  Uiso   1.00
C510   C     0.50020   0.83333   0.16418   0.00000  Uiso   1.00
C511   C     0.50046   0.83343   0.33605   0.00000  Uiso   1.00
C512   C     0.52983   0.69042   0.27424   0.00000  Uiso   1.00
C513   C     0.47025   0.97619   0.22561   0.00000  Uiso   1.00
C514   C     0.47022   0.69015   0.22567   0.00000  Uiso   1.00
C515   C     0.52975   0.97648   0.27435   0.00000  Uiso   1.00
C516   C     0.35430   0.81438   0.21347   0.00000  Uiso   1.00
H517   H     0.55232   0.74222   0.30443   0.00000  Uiso   1.00
H518   H     0.54968   0.74251   0.40222   0.00000  Uiso   1.00
H519   H     0.44323   0.91961   0.40204   0.00000  Uiso   1.00
H520   H     0.44314   0.75059   0.09406   0.00000  Uiso   1.00
H521   H     0.35771   0.78513   0.15509   0.00000  Uiso   1.00
H522   H     0.64234   0.88186   0.34403   0.00000  Uiso   1.00
H523   H     0.59314   0.80889   0.17367   0.00000  Uiso   1.00
H524   H     0.40584   0.85382   0.32696   0.00000  Uiso   1.00
H525   H     0.44836   0.92454   0.19426   0.00000  Uiso   1.00
H526   H     0.44806   0.74172   0.19507   0.00000  Uiso   1.00
H527   H     0.55168   0.92498   0.30544   0.00000  Uiso   1.00
H528   H     0.56717   0.88176   0.49910   0.00000  Uiso   1.00
H529   H     0.58084   0.76849   0.46127   0.00000  Uiso   1.00
H530   H     0.46275   0.89772   0.00790   0.00000  Uiso   1.00
H531   H     0.42189   0.78064   0.03254   0.00000  Uiso   1.00
H532   H     0.57944   0.90326   0.10643   0.00000  Uiso   1.00
N533   N     0.50000   0.95240   0.25000   0.00000  Uiso   1.00
N534   N     0.50000   0.71427   0.25000   0.00000  Uiso   1.00
O535   O     0.43892   0.87154   0.24999   0.00000  Uiso   1.00
O536   O     0.43958   0.95535   0.19961   0.00000  Uiso   1.00
O537   O     0.43952   0.71065   0.19976   0.00000  Uiso   1.00
O538   O     0.56040   0.95594   0.30034   0.00000  Uiso   1.00
O539   O     0.56636   0.88703   0.03158   0.00000  Uiso   1.00
O540   O     0.55667   0.77667   0.47932   0.00000  Uiso   1.00
O541   O     0.45818   0.89962   0.47521   0.00000  Uiso   1.00
O542   O     0.44845   0.78434   0.01686   0.00000  Uiso   1.00
O543   O     0.55969   0.88589   0.12437   0.00000  Uiso   1.00
O544   O     0.54776   0.77013   0.38409   0.00000  Uiso   1.00
O545   O     0.45644   0.89777   0.38225   0.00000  Uiso   1.00
O546   O     0.56108   0.79513   0.25000   0.00000  Uiso   1.00
O547   O     0.44838   0.77762   0.11254   0.00000  Uiso   1.00
O548   O     0.37690   0.79742   0.17874   0.00000  Uiso   1.00
O549   O     0.62310   0.86921   0.32062   0.00000  Uiso   1.00
O550   O     0.62252   0.79852   0.17469   0.00000  Uiso   1.00
O551   O     0.37743   0.86688   0.32498   0.00000  Uiso   1.00
O552   O     0.56108   0.87154   0.25000   0.00000  Uiso   1.00
O553   O     0.43892   0.79513   0.24999   0.00000  Uiso   1.00
O554   O     0.50000   0.87155   0.18453   0.00000  Uiso   1.00
O555   O     0.50000   0.79511   0.31547   0.00000  Uiso   1.00
O556   O     0.50000   0.87155   0.31547   0.00000  Uiso   1.00
O557   O     0.50000   0.79511   0.18453   0.00000  Uiso   1.00
O558   O     0.56071   0.71118   0.29993   0.00000  Uiso   1.00
Zn559  Zn    0.50000   0.88437   0.25000   0.00000  Uiso   1.00
Zn560  Zn    0.50000   0.78229   0.25000   0.00000  Uiso   1.00
C561   C     0.75359   0.83318   0.24998   0.00000  Uiso   1.00
C562   C     0.97897   0.85220   0.28584   0.00000  Uiso   1.00
C563   C     0.97737   0.81529   0.21208   0.00000  Uiso   1.00
C564   C     0.68918   0.85092   0.28735   0.00000  Uiso   1.00
C565   C     0.86937   0.86048   0.05043   0.00000  Uiso   1.00
C566   C     0.86370   0.80441   0.45438   0.00000  Uiso   1.00
C567   C     0.81493   0.86787   0.45363   0.00000  Uiso   1.00
C568   C     0.81035   0.80714   0.04435   0.00000  Uiso   1.00
C569   C     0.86628   0.86066   0.09685   0.00000  Uiso   1.00
C570   C     0.86032   0.80226   0.40769   0.00000  Uiso   1.00
C571   C     0.81349   0.86727   0.40695   0.00000  Uiso   1.00
C572   C     0.91304   0.83346   0.24960   0.00000  Uiso   1.00
C573   C     0.80912   0.80539   0.09097   0.00000  Uiso   1.00
C574   C     0.83600   0.83343   0.11638   0.00000  Uiso   1.00
C575   C     0.83571   0.83411   0.38443   0.00000  Uiso   1.00
C576   C     0.84075   0.83397   0.02479   0.00000  Uiso   1.00
C577   C     0.83994   0.83592   0.47666   0.00000  Uiso   1.00
C578   C     0.95721   0.83394   0.24873   0.00000  Uiso   1.00
C579   C     0.70937   0.83260   0.25063   0.00000  Uiso   1.00
C580   C     0.83353   0.83333   0.16418   0.00000  Uiso   1.00
C581   C     0.83379   0.83343   0.33605   0.00000  Uiso   1.00
C582   C     0.86316   0.69042   0.27424   0.00000  Uiso   1.00
C583   C     0.80359   0.97619   0.22561   0.00000  Uiso   1.00
C584   C     0.80355   0.69015   0.22567   0.00000  Uiso   1.00
C585   C     0.86309   0.97648   0.27435   0.00000  Uiso   1.00
C586   C     0.68763   0.81438   0.21347   0.00000  Uiso   1.00
H587   H     0.88565   0.74222   0.30443   0.00000  Uiso   1.00
H588   H     0.88301   0.74251   0.40222   0.00000  Uiso   1.00
H589   H     0.77656   0.91961   0.40204   0.00000  Uiso   1.00
H590   H     0.77647   0.75059   0.09406   0.00000  Uiso   1.00
H591   H     0.69104   0.78513   0.15509   0.00000  Uiso   1.00
H592   H     0.97567   0.88186   0.34403   0.00000  Uiso   1.00
H593   H     0.92648   0.80889   0.17367   0.00000  Uiso   1.00
H594   H     0.73917   0.85382   0.32696   0.00000  Uiso   1.00
H595   H     0.78170   0.92454   0.19426   0.00000  Uiso   1.00
H596   H     0.78139   0.74172   0.19507   0.00000  Uiso   1.00
H597   H     0.88501   0.92498   0.30544   0.00000  Uiso   1.00
H598   H     0.90050   0.88176   0.49910   0.00000  Uiso   1.00
H599   H     0.91418   0.76849   0.46127   0.00000  Uiso   1.00
H600   H     0.79608   0.89772   0.00790   0.00000  Uiso   1.00
H601   H     0.75522   0.78064   0.03254   0.00000  Uiso   1.00
H602   H     0.91277   0.90326   0.10643   0.00000  Uiso   1.00
N603   N     0.83333   0.95240   0.25000   0.00000  Uiso   1.00
N604   N     0.83333   0.71427   0.25000   0.00000  Uiso   1.00
O605   O     0.77226   0.87154   0.24999   0.00000  Uiso   1.00
O606   O     0.77292   0.95535   0.19961   0.00000  Uiso   1.00
O607   O     0.77285   0.71065   0.19976   0.00000  Uiso   1.00
O608   O     0.89373   0.95594   0.30034   0.00000  Uiso   1.00
O609   O     0.89970   0.88703   0.03158   0.00000  Uiso   1.00
O610   O     0.89000   0.77667   0.47932   0.00000  Uiso   1.00
O611   O     0.79152   0.89962   0.47521   0.00000  Uiso   1.00
O612   O     0.78179   0.78434   0.01686   0.00000  Uiso   1.00
O613   O     0.89302   0.88589   0.12437   0.00000  Uiso   1.00
O614   O     0.88109   0.77013   0.38409   0.00000  Uiso   1.00
O615   O     0.78978   0.89777   0.38225   0.00000  Uiso   1.00
O616   O     0.89441   0.79513   0.25000   0.00000  Uiso   1.00
O617   O     0.78171   0.77762   0.11254   0.00000  Uiso   1.00
O618   O     0.71023   0.79742   0.17874   0.00000  Uiso   1.00
O619   O     0.95643   0.86921   0.32062   0.00000  Uiso   1.00
O620   O     0.95586   0.79852   0.17469   0.00000  Uiso   1.00
O621   O     0.71077   0.86688   0.32498   0.00000  Uiso   1.00
O622   O     0.89441   0.87154   0.25000   0.00000  Uiso   1.00
O623   O     0.77226   0.79513   0.24999   0.00000  Uiso   1.00
O624   O     0.83333   0.87155   0.18453   0.00000  Uiso   1.00
O625   O     0.83334   0.79511   0.31547   0.00000  Uiso   1.00
O626   O     0.83334   0.87155   0.31547   0.00000  Uiso   1.00
O627   O     0.83333   0.79511   0.18453   0.00000  Uiso   1.00
O628   O     0.89404   0.71118   0.29993   0.00000  Uiso   1.00
Zn629  Zn    0.83333   0.88437   0.25000   0.00000  Uiso   1.00
Zn630  Zn    0.83333   0.78229   0.25000   0.00000  Uiso   1.00
C631   C     0.08692   0.16651   0.74998   0.00000  Uiso   1.00
C632   C     0.31230   0.18553   0.78584   0.00000  Uiso   1.00
C633   C     0.31070   0.14863   0.71208   0.00000  Uiso   1.00
C634   C     0.02252   0.18425   0.78735   0.00000  Uiso   1.00
C635   C     0.20270   0.19382   0.55043   0.00000  Uiso   1.00
C636   C     0.19704   0.13774   0.95438   0.00000  Uiso   1.00
C637   C     0.14827   0.20120   0.95363   0.00000  Uiso   1.00
C638   C     0.14368   0.14048   0.54435   0.00000  Uiso   1.00
C639   C     0.19961   0.19400   0.59685   0.00000  Uiso   1.00
C640   C     0.19365   0.13559   0.90769   0.00000  Uiso   1.00
C641   C     0.14682   0.20060   0.90695   0.00000  Uiso   1.00
C642   C     0.24637   0.16680   0.74960   0.00000  Uiso   1.00
C643   C     0.14246   0.13873   0.59097   0.00000  Uiso   1.00
C644   C     0.16934   0.16676   0.61638   0.00000  Uiso   1.00
C645   C     0.16905   0.16744   0.88443   0.00000  Uiso   1.00
C646   C     0.17408   0.16730   0.52479   0.00000  Uiso   1.00
C647   C     0.17327   0.16926   0.97666   0.00000  Uiso   1.00
C648   C     0.29054   0.16727   0.74873   0.00000  Uiso   1.00
C649   C     0.04270   0.16593   0.75063   0.00000  Uiso   1.00
C650   C     0.16686   0.16667   0.66418   0.00000  Uiso   1.00
C651   C     0.16713   0.16676   0.83605   0.00000  Uiso   1.00
C652   C     0.19649   0.02375   0.77424   0.00000  Uiso   1.00
C653   C     0.13692   0.30952   0.72561   0.00000  Uiso   1.00
C654   C     0.13688   0.02348   0.72567   0.00000  Uiso   1.00
C655   C     0.19642   0.30981   0.77435   0.00000  Uiso   1.00
C656   C     0.02096   0.14771   0.71347   0.00000  Uiso   1.00
H657   H     0.21898   0.07556   0.80443   0.00000  Uiso   1.00
H658   H     0.21635   0.07584   0.90222   0.00000  Uiso   1.00
H659   H     0.10989   0.25295   0.90204   0.00000  Uiso   1.00
H660   H     0.10981   0.08393   0.59406   0.00000  Uiso   1.00
H661   H     0.02437   0.11847   0.65509   0.00000  Uiso   1.00
H662   H     0.30901   0.21520   0.84403   0.00000  Uiso   1.00
H663   H     0.25981   0.14222   0.67367   0.00000  Uiso   1.00
H664   H     0.07251   0.18715   0.82696   0.00000  Uiso   1.00
H665   H     0.11503   0.25787   0.69426   0.00000  Uiso   1.00
H666   H     0.11473   0.07506   0.69507   0.00000  Uiso   1.00
H667   H     0.21835   0.25831   0.80544   0.00000  Uiso   1.00
H668   H     0.23384   0.21509   0.99910   0.00000  Uiso   1.00
H669   H     0.24751   0.10182   0.96127   0.00000  Uiso   1.00
H670   H     0.12941   0.23105   0.50790   0.00000  Uiso   1.00
H671   H     0.08856   0.11397   0.53254   0.00000  Uiso   1.00
H672   H     0.24610   0.23659   0.60643   0.00000  Uiso   1.00
N673   N     0.16667   0.28573   0.75000   0.00000  Uiso   1.00
N674   N     0.16667   0.04760   0.75000   0.00000  Uiso   1.00
O675   O     0.10559   0.20487   0.74999   0.00000  Uiso   1.00
O676   O     0.10625   0.28869   0.69961   0.00000  Uiso   1.00
O677   O     0.10618   0.04399   0.69976   0.00000  Uiso   1.00
O678   O     0.22707   0.28928   0.80034   0.00000  Uiso   1.00
O679   O     0.23303   0.22036   0.53158   0.00000  Uiso   1.00
O680   O     0.22333   0.11000   0.97932   0.00000  Uiso   1.00
O681   O     0.12485   0.23296   0.97521   0.00000  Uiso   1.00
O682   O     0.11512   0.11767   0.51686   0.00000  Uiso   1.00
O683   O     0.22636   0.21923   0.62437   0.00000  Uiso   1.00
O684   O     0.21442   0.10347   0.88409   0.00000  Uiso   1.00
O685   O     0.12311   0.23110   0.88225   0.00000  Uiso   1.00
O686   O     0.22774   0.12846   0.75000   0.00000  Uiso   1.00
O687   O     0.11505   0.11095   0.61254   0.00000  Uiso   1.00
O688   O     0.04357   0.13076   0.67874   0.00000  Uiso   1.00
O689   O     0.28976   0.20255   0.82062   0.00000  Uiso   1.00
O690   O     0.28919   0.13185   0.67469   0.00000  Uiso   1.00
O691   O     0.04410   0.20021   0.82498   0.00000  Uiso   1.00
O692   O     0.22774   0.20487   0.75000   0.00000  Uiso   1.00
O693   O     0.10559   0.12846   0.74999   0.00000  Uiso   1.00
O694   O     0.16666   0.20489   0.68453   0.00000  Uiso   1.00
O695   O     0.16667   0.12845   0.81547   0.00000  Uiso   1.00
O696   O     0.16667   0.20489   0.81547   0.00000  Uiso   1.00
O697   O     0.16666   0.12845   0.68453   0.00000  Uiso   1.00
O698   O     0.22737   0.04452   0.79993   0.00000  Uiso   1.00
Zn699  Zn    0.16667   0.21771   0.75000   0.00000  Uiso   1.00
Zn700  Zn    0.16667   0.11563   0.75000   0.00000  Uiso   1.00
C701   C     0.42026   0.16651   0.74998   0.00000  Uiso   1.00
C702   C     0.64564   0.18553   0.78584   0.00000  Uiso   1.00
C703   C     0.64403   0.14863   0.71208   0.00000  Uiso   1.00
C704   C     0.35585   0.18425   0.78735   0.00000  Uiso   1.00
C705   C     0.53604   0.19382   0.55043   0.00000  Uiso   1.00
C706   C     0.53037   0.13774   0.95438   0.00000  Uiso   1.00
C707   C     0.48160   0.20120   0.95363   0.00000  Uiso   1.00
C708   C     0.47701   0.14048   0.54435   0.00000  Uiso   1.00
C709   C     0.53295   0.19400   0.59685   0.00000  Uiso   1.00
C710   C     0.52698   0.13559   0.90769   0.00000  Uiso   1.00
C711   C     0.48015   0.20060   0.90695   0.00000  Uiso   1.00
C712   C     0.57970   0.16680   0.74960   0.00000  Uiso   1.00
C713   C     0.47579   0.13873   0.59097   0.00000  Uiso   1.00
C714   C     0.50267   0.16676   0.61638   0.00000  Uiso   1.00
C715   C     0.50238   0.16744   0.88443   0.00000  Uiso   1.00
C716   C     0.50741   0.16730   0.52479   0.00000  Uiso   1.00
C717   C     0.50660   0.16926   0.97666   0.00000  Uiso   1.00
C718   C     0.62387   0.16727   0.74873   0.00000  Uiso   1.00
C719   C     0.37604   0.16593   0.75063   0.00000  Uiso   1.00
C720   C     0.50020   0.16667   0.66418   0.00000  Uiso   1.00
C721   C     0.50046   0.16676   0.83605   0.00000  Uiso   1.00
C722   C     0.52983   0.02375   0.77424   0.00000  Uiso   1.00
C723   C     0.47025   0.30952   0.72561   0.00000  Uiso   1.00
C724   C     0.47022   0.02348   0.72567   0.00000  Uiso   1.00
C725   C     0.52975   0.30981   0.77435   0.00000  Uiso   1.00
C726   C     0.35430   0.14771   0.71347   0.00000  Uiso   1.00
H727   H     0.55232   0.07556   0.80443   0.00000  Uiso   1.00
H728   H     0.54968   0.07584   0.90222   0.00000  Uiso   1.00
H729   H     0.44323   0.25295   0.90204   0.00000  Uiso   1.00
H730   H     0.44314   0.08393   0.59406   0.00000  Uiso   1.00
H731   H     0.35771   0.11847   0.65509   0.00000  Uiso   1.00
H732   H     0.64234   0.21520   0.84403   0.00000  Uiso   1.00
H733   H     0.59314   0.14222   0.67367   0.00000  Uiso   1.00
H734   H     0.40584   0.18715   0.82696   0.00000  Uiso   1.00
H735   H     0.44836   0.25787   0.69426   0.00000  Uiso   1.00
H736   H     0.44806   0.07506   0.69507   0.00000  Uiso   1.00
H737   H     0.55168   0.25831   0.80544   0.00000  Uiso   1.00
H738   H     0.56717   0.21509   0.99910   0.00000  Uiso   1.00
H739   H     0.58084   0.10182   0.96127   0.00000  Uiso   1.00
H740   H     0.46275   0.23105   0.50790   0.00000  Uiso   1.00
H741   H     0.42189   0.11397   0.53254   0.00000  Uiso   1.00
H742   H     0.57944   0.23659   0.60643   0.00000  Uiso   1.00
N743   N     0.50000   0.28573   0.75000   0.00000  Uiso   1.00
N744   N     0.50000   0.04760   0.75000   0.00000  Uiso   1.00
O745   O     0.43892   0.20487   0.74999   0.00000  Uiso   1.00
O746   O     0.43958   0.28869   0.69961   0.00000  Uiso   1.00
O747   O     0.43952   0.04399   0.69976   0.00000  Uiso   1.00
O748   O     0.56040   0.28928   0.80034   0.00000  Uiso   1.00
O749   O     0.56636   0.22036   0.53158   0.00000  Uiso   1.00
O750   O     0.55667   0.11000   0.97932   0.00000  Uiso   1.00
O751   O     0.45818   0.23296   0.97521   0.00000  Uiso   1.00
O752   O     0.44845   0.11767   0.51686   0.00000  Uiso   1.00
O753   O     0.55969   0.21923   0.62437   0.00000  Uiso   1.00
O754   O     0.54776   0.10347   0.88409   0.00000  Uiso   1.00
O755   O     0.45644   0.23110   0.88225   0.00000  Uiso   1.00
O756   O     0.56108   0.12846   0.75000   0.00000  Uiso   1.00
O757   O     0.44838   0.11095   0.61254   0.00000  Uiso   1.00
O758   O     0.37690   0.13076   0.67874   0.00000  Uiso   1.00
O759   O     0.62310   0.20255   0.82062   0.00000  Uiso   1.00
O760   O     0.62252   0.13185   0.67469   0.00000  Uiso   1.00
O761   O     0.37743   0.20021   0.82498   0.00000  Uiso   1.00
O762   O     0.56108   0.20487   0.75000   0.00000  Uiso   1.00
O763   O     0.43892   0.12846   0.74999   0.00000  Uiso   1.00
O764   O     0.50000   0.20489   0.68453   0.00000  Uiso   1.00
O765   O     0.50000   0.12845   0.81547   0.00000  Uiso   1.00
O766   O     0.50000   0.20489   0.81547   0.00000  Uiso   1.00
O767   O     0.50000   0.12845   0.68453   0.00000  Uiso   1.00
O768   O     0.56071   0.04452   0.79993   0.00000  Uiso   1.00
Zn769  Zn    0.50000   0.21771   0.75000   0.00000  Uiso   1.00
Zn770  Zn    0.50000   0.11563   0.75000   0.00000  Uiso   1.00
C771   C     0.75359   0.16651   0.74998   0.00000  Uiso   1.00
C772   C     0.97897   0.18553   0.78584   0.00000  Uiso   1.00
C773   C     0.97737   0.14863   0.71208   0.00000  Uiso   1.00
C774   C     0.68918   0.18425   0.78735   0.00000  Uiso   1.00
C775   C     0.86937   0.19382   0.55043   0.00000  Uiso   1.00
C776   C     0.86370   0.13774   0.95438   0.00000  Uiso   1.00
C777   C     0.81493   0.20120   0.95363   0.00000  Uiso   1.00
C778   C     0.81035   0.14048   0.54435   0.00000  Uiso   1.00
C779   C     0.86628   0.19400   0.59685   0.00000  Uiso   1.00
C780   C     0.86032   0.13559   0.90769   0.00000  Uiso   1.00
C781   C     0.81349   0.20060   0.90695   0.00000  Uiso   1.00
C782   C     0.91304   0.16680   0.74960   0.00000  Uiso   1.00
C783   C     0.80912   0.13873   0.59097   0.00000  Uiso   1.00
C784   C     0.83600   0.16676   0.61638   0.00000  Uiso   1.00
C785   C     0.83571   0.16744   0.88443   0.00000  Uiso   1.00
C786   C     0.84075   0.16730   0.52479   0.00000  Uiso   1.00
C787   C     0.83994   0.16926   0.97666   0.00000  Uiso   1.00
C788   C     0.95721   0.16727   0.74873   0.00000  Uiso   1.00
C789   C     0.70937   0.16593   0.75063   0.00000  Uiso   1.00
C790   C     0.83353   0.16667   0.66418   0.00000  Uiso   1.00
C791   C     0.83379   0.16676   0.83605   0.00000  Uiso   1.00
C792   C     0.86316   0.02375   0.77424   0.00000  Uiso   1.00
C793   C     0.80359   0.30952   0.72561   0.00000  Uiso   1.00
C794   C     0.80355   0.02348   0.72567   0.00000  Uiso   1.00
C795   C     0.86309   0.30981   0.77435   0.00000  Uiso   1.00
C796   C     0.68763   0.14771   0.71347   0.00000  Uiso   1.00
H797   H     0.88565   0.07556   0.80443   0.00000  Uiso   1.00
H798   H     0.88301   0.07584   0.90222   0.00000  Uiso   1.00
H799   H     0.77656   0.25295   0.90204   0.00000  Uiso   1.00
H800   H     0.77647   0.08393   0.59406   0.00000  Uiso   1.00
H801   H     0.69104   0.11847   0.65509   0.00000  Uiso   1.00
H802   H     0.97567   0.21520   0.84403   0.00000  Uiso   1.00
H803   H     0.92648   0.14222   0.67367   0.00000  Uiso   1.00
H804   H     0.73917   0.18715   0.82696   0.00000  Uiso   1.00
H805   H     0.78170   0.25787   0.69426   0.00000  Uiso   1.00
H806   H     0.78139   0.07506   0.69507   0.00000  Uiso   1.00
H807   H     0.88501   0.25831   0.80544   0.00000  Uiso   1.00
H808   H     0.90050   0.21509   0.99910   0.00000  Uiso   1.00
H809   H     0.91418   0.10182   0.96127   0.00000  Uiso   1.00
H810   H     0.79608   0.23105   0.50790   0.00000  Uiso   1.00
H811   H     0.75522   0.11397   0.53254   0.00000  Uiso   1.00
H812   H     0.91277   0.23659   0.60643   0.00000  Uiso   1.00
N813   N     0.83333   0.28573   0.75000   0.00000  Uiso   1.00
N814   N     0.83333   0.04760   0.75000   0.00000  Uiso   1.00
O815   O     0.77226   0.20487   0.74999   0.00000  Uiso   1.00
O816   O     0.77292   0.28869   0.69961   0.00000  Uiso   1.00
O817   O     0.77285   0.04399   0.69976   0.00000  Uiso   1.00
O818   O     0.89373   0.28928   0.80034   0.00000  Uiso   1.00
O819   O     0.89970   0.22036   0.53158   0.00000  Uiso   1.00
O820   O     0.89000   0.11000   0.97932   0.00000  Uiso   1.00
O821   O     0.79152   0.23296   0.97521   0.00000  Uiso   1.00
O822   O     0.78179   0.11767   0.51686   0.00000  Uiso   1.00
O823   O     0.89302   0.21923   0.62437   0.00000  Uiso   1.00
O824   O     0.88109   0.10347   0.88409   0.00000  Uiso   1.00
O825   O     0.78978   0.23110   0.88225   0.00000  Uiso   1.00
O826   O     0.89441   0.12846   0.75000   0.00000  Uiso   1.00
O827   O     0.78171   0.11095   0.61254   0.00000  Uiso   1.00
O828   O     0.71023   0.13076   0.67874   0.00000  Uiso   1.00
O829   O     0.95643   0.20255   0.82062   0.00000  Uiso   1.00
O830   O     0.95586   0.13185   0.67469   0.00000  Uiso   1.00
O831   O     0.71077   0.20021   0.82498   0.00000  Uiso   1.00
O832   O     0.89441   0.20487   0.75000   0.00000  Uiso   1.00
O833   O     0.77226   0.12846   0.74999   0.00000  Uiso   1.00
O834   O     0.83333   0.20489   0.68453   0.00000  Uiso   1.00
O835   O     0.83334   0.12845   0.81547   0.00000  Uiso   1.00
O836   O     0.83334   0.20489   0.81547   0.00000  Uiso   1.00
O837   O     0.83333   0.12845   0.68453   0.00000  Uiso   1.00
O838   O     0.89404   0.04452   0.79993   0.00000  Uiso   1.00
Zn839  Zn    0.83333   0.21771   0.75000   0.00000  Uiso   1.00
Zn840  Zn    0.83333   0.11563   0.75000   0.00000  Uiso   1.00
C841   C     0.08692   0.49985   0.74998   0.00000  Uiso   1.00
C842   C     0.31230   0.51886   0.78584   0.00000  Uiso   1.00
C843   C     0.31070   0.48196   0.71208   0.00000  Uiso   1.00
C844   C     0.02252   0.51758   0.78735   0.00000  Uiso   1.00
C845   C     0.20270   0.52715   0.55043   0.00000  Uiso   1.00
C846   C     0.19704   0.47108   0.95438   0.00000  Uiso   1.00
C847   C     0.14827   0.53454   0.95363   0.00000  Uiso   1.00
C848   C     0.14368   0.47381   0.54435   0.00000  Uiso   1.00
C849   C     0.19961   0.52733   0.59685   0.00000  Uiso   1.00
C850   C     0.19365   0.46893   0.90769   0.00000  Uiso   1.00
C851   C     0.14682   0.53394   0.90695   0.00000  Uiso   1.00
C852   C     0.24637   0.50013   0.74960   0.00000  Uiso   1.00
C853   C     0.14246   0.47206   0.59097   0.00000  Uiso   1.00
C854   C     0.16934   0.50010   0.61638   0.00000  Uiso   1.00
C855   C     0.16905   0.50078   0.88443   0.00000  Uiso   1.00
C856   C     0.17408   0.50063   0.52479   0.00000  Uiso   1.00
C857   C     0.17327   0.50259   0.97666   0.00000  Uiso   1.00
C858   C     0.29054   0.50061   0.74873   0.00000  Uiso   1.00
C859   C     0.04270   0.49926   0.75063   0.00000  Uiso   1.00
C860   C     0.16686   0.50000   0.66418   0.00000  Uiso   1.00
C861   C     0.16713   0.50010   0.83605   0.00000  Uiso   1.00
C862   C     0.19649   0.35709   0.77424   0.00000  Uiso   1.00
C863   C     0.13692   0.64285   0.72561   0.00000  Uiso   1.00
C864   C     0.13688   0.35682   0.72567   0.00000  Uiso   1.00
C865   C     0.19642   0.64314   0.77435   0.00000  Uiso   1.00
C866   C     0.02096   0.48105   0.71347   0.00000  Uiso   1.00
H867   H     0.21898   0.40889   0.80443   0.00000  Uiso   1.00
H868   H     0.21635   0.40918   0.90222   0.00000  Uiso   1.00
H869   H     0.10989   0.58628   0.90204   0.00000  Uiso   1.00
H870   H     0.10981   0.41726   0.59406   0.00000  Uiso   1.00
H871   H     0.02437   0.45180   0.65509   0.00000  Uiso   1.00
H872   H     0.30901   0.54853   0.84403   0.00000  Uiso   1.00
H873   H     0.25981   0.47556   0.67367   0.00000  Uiso   1.00
H874   H     0.07251   0.52048   0.82696   0.00000  Uiso   1.00
H875   H     0.11503   0.59120   0.69426   0.00000  Uiso   1.00
H876   H     0.11473   0.40839   0.69507   0.00000  Uiso   1.00
H877   H     0.21835   0.59164   0.80544   0.00000  Uiso   1.00
H878   H     0.23384   0.54843   0.99910   0.00000  Uiso   1.00
H879   H     0.24751   0.43516   0.96127   0.00000  Uiso   1.00
H880   H     0.12941   0.56439   0.50790   0.00000  Uiso   1.00
H881   H     0.08856   0.44731   0.53254   0.00000  Uiso   1.00
H882   H     0.24610   0.56993   0.60643   0.00000  Uiso   1.00
N883   N     0.16667   0.61907   0.75000   0.00000  Uiso   1.00
N884   N     0.16667   0.38093   0.75000   0.00000  Uiso   1.00
O885   O     0.10559   0.53821   0.74999   0.00000  Uiso   1.00
O886   O     0.10625   0.62202   0.69961   0.00000  Uiso   1.00
O887   O     0.10618   0.37732   0.69976   0.00000  Uiso   1.00
O888   O     0.22707   0.62261   0.80034   0.00000  Uiso   1.00
O889   O     0.23303   0.55369   0.53158   0.00000  Uiso   1.00
O890   O     0.22333   0.44333   0.97932   0.00000  Uiso   1.00
O891   O     0.12485   0.56629   0.97521   0.00000  Uiso   1.00
O892   O     0.11512   0.45101   0.51686   0.00000  Uiso   1.00
O893   O     0.22636   0.55256   0.62437   0.00000  Uiso   1.00
O894   O     0.21442   0.43680   0.88409   0.00000  Uiso   1.00
O895   O     0.12311   0.56444   0.88225   0.00000  Uiso   1.00
O896   O     0.22774   0.46179   0.75000   0.00000  Uiso   1.00
O897   O     0.11505   0.44428   0.61254   0.00000  Uiso   1.00
O898   O     0.04357   0.46409   0.67874   0.00000  Uiso   1.00
O899   O     0.28976   0.53588   0.82062   0.00000  Uiso   1.00
O900   O     0.28919   0.46518   0.67469   0.00000  Uiso   1.00
O901   O     0.04410   0.53354   0.82498   0.00000  Uiso   1.00
O902   O     0.22774   0.53821   0.75000   0.00000  Uiso   1.00
O903   O     0.10559   0.46179   0.74999   0.00000  Uiso   1.00
O904   O     0.16666   0.53822   0.68453   0.00000  Uiso   1.00
O905   O     0.16667   0.46178   0.81547   0.00000  Uiso   1.00
O906   O     0.16667   0.53822   0.81547   0.00000  Uiso   1.00
O907   O     0.16666   0.46178   0.68453   0.00000  Uiso   1.00
O908   O     0.22737   0.37785   0.79993   0.00000  Uiso   1.00
Zn909  Zn    0.16667   0.55104   0.75000   0.00000  Uiso   1.00
Zn910  Zn    0.16667   0.44896   0.75000   0.00000  Uiso   1.00
C911   C     0.42026   0.49985   0.74998   0.00000  Uiso   1.00
C912   C     0.64564   0.51886   0.78584   0.00000  Uiso   1.00
C913   C     0.64403   0.48196   0.71208   0.00000  Uiso   1.00
C914   C     0.35585   0.51758   0.78735   0.00000  Uiso   1.00
C915   C     0.53604   0.52715   0.55043   0.00000  Uiso   1.00
C916   C     0.53037   0.47108   0.95438   0.00000  Uiso   1.00
C917   C     0.48160   0.53454   0.95363   0.00000  Uiso   1.00
C918   C     0.47701   0.47381   0.54435   0.00000  Uiso   1.00
C919   C     0.53295   0.52733   0.59685   0.00000  Uiso   1.00
C920   C     0.52698   0.46893   0.90769   0.00000  Uiso   1.00
C921   C     0.48015   0.53394   0.90695   0.00000  Uiso   1.00
C922   C     0.57970   0.50013   0.74960   0.00000  Uiso   1.00
C923   C     0.47579   0.47206   0.59097   0.00000  Uiso   1.00
C924   C     0.50267   0.50010   0.61638   0.00000  Uiso   1.00
C925   C     0.50238   0.50078   0.88443   0.00000  Uiso   1.00
C926   C     0.50741   0.50063   0.52479   0.00000  Uiso   1.00
C927   C     0.50660   0.50259   0.97666   0.00000  Uiso   1.00
C928   C     0.62387   0.50061   0.74873   0.00000  Uiso   1.00
C929   C     0.37604   0.49926   0.75063   0.00000  Uiso   1.00
C930   C     0.50020   0.50000   0.66418   0.00000  Uiso   1.00
C931   C     0.50046   0.50010   0.83605   0.00000  Uiso   1.00
C932   C     0.52983   0.35709   0.77424   0.00000  Uiso   1.00
C933   C     0.47025   0.64285   0.72561   0.00000  Uiso   1.00
C934   C     0.47022   0.35682   0.72567   0.00000  Uiso   1.00
C935   C     0.52975   0.64314   0.77435   0.00000  Uiso   1.00
C936   C     0.35430   0.48105   0.71347   0.00000  Uiso   1.00
H937   H     0.55232   0.40889   0.80443   0.00000  Uiso   1.00
H938   H     0.54968   0.40918   0.90222   0.00000  Uiso   1.00
H939   H     0.44323   0.58628   0.90204   0.00000  Uiso   1.00
H940   H     0.44314   0.41726   0.59406   0.00000  Uiso   1.00
H941   H     0.35771   0.45180   0.65509   0.00000  Uiso   1.00
H942   H     0.64234   0.54853   0.84403   0.00000  Uiso   1.00
H943   H     0.59314   0.47556   0.67367   0.00000  Uiso   1.00
H944   H     0.40584   0.52048   0.82696   0.00000  Uiso   1.00
H945   H     0.44836   0.59120   0.69426   0.00000  Uiso   1.00
H946   H     0.44806   0.40839   0.69507   0.00000  Uiso   1.00
H947   H     0.55168   0.59164   0.80544   0.00000  Uiso   1.00
H948   H     0.56717   0.54843   0.99910   0.00000  Uiso   1.00
H949   H     0.58084   0.43516   0.96127   0.00000  Uiso   1.00
H950   H     0.46275   0.56439   0.50790   0.00000  Uiso   1.00
H951   H     0.42189   0.44731   0.53254   0.00000  Uiso   1.00
H952   H     0.57944   0.56993   0.60643   0.00000  Uiso   1.00
N953   N     0.50000   0.61907   0.75000   0.00000  Uiso   1.00
N954   N     0.50000   0.38093   0.75000   0.00000  Uiso   1.00
O955   O     0.43892   0.53821   0.74999   0.00000  Uiso   1.00
O956   O     0.43958   0.62202   0.69961   0.00000  Uiso   1.00
O957   O     0.43952   0.37732   0.69976   0.00000  Uiso   1.00
O958   O     0.56040   0.62261   0.80034   0.00000  Uiso   1.00
O959   O     0.56636   0.55369   0.53158   0.00000  Uiso   1.00
O960   O     0.55667   0.44333   0.97932   0.00000  Uiso   1.00
O961   O     0.45818   0.56629   0.97521   0.00000  Uiso   1.00
O962   O     0.44845   0.45101   0.51686   0.00000  Uiso   1.00
O963   O     0.55969   0.55256   0.62437   0.00000  Uiso   1.00
O964   O     0.54776   0.43680   0.88409   0.00000  Uiso   1.00
O965   O     0.45644   0.56444   0.88225   0.00000  Uiso   1.00
O966   O     0.56108   0.46179   0.75000   0.00000  Uiso   1.00
O967   O     0.44838   0.44428   0.61254   0.00000  Uiso   1.00
O968   O     0.37690   0.46409   0.67874   0.00000  Uiso   1.00
O969   O     0.62310   0.53588   0.82062   0.00000  Uiso   1.00
O970   O     0.62252   0.46518   0.67469   0.00000  Uiso   1.00
O971   O     0.37743   0.53354   0.82498   0.00000  Uiso   1.00
O972   O     0.56108   0.53821   0.75000   0.00000  Uiso   1.00
O973   O     0.43892   0.46179   0.74999   0.00000  Uiso   1.00
O974   O     0.50000   0.53822   0.68453   0.00000  Uiso   1.00
O975   O     0.50000   0.46178   0.81547   0.00000  Uiso   1.00
O976   O     0.50000   0.53822   0.81547   0.00000  Uiso   1.00
O977   O     0.50000   0.46178   0.68453   0.00000  Uiso   1.00
O978   O     0.56071   0.37785   0.79993   0.00000  Uiso   1.00
Zn979  Zn    0.50000   0.55104   0.75000   0.00000  Uiso   1.00
Zn980  Zn    0.50000   0.44896   0.75000   0.00000  Uiso   1.00
C981   C     0.75359   0.49985   0.74998   0.00000  Uiso   1.00
C982   C     0.97897   0.51886   0.78584   0.00000  Uiso   1.00
C983   C     0.97737   0.48196   0.71208   0.00000  Uiso   1.00
C984   C     0.68918   0.51758   0.78735   0.00000  Uiso   1.00
C985   C     0.86937   0.52715   0.55043   0.00000  Uiso   1.00
C986   C     0.86370   0.47108   0.95438   0.00000  Uiso   1.00
C987   C     0.81493   0.53454   0.95363   0.00000  Uiso   1.00
C988   C     0.81035   0.47381   0.54435   0.00000  Uiso   1.00
C989   C     0.86628   0.52733   0.59685   0.00000  Uiso   1.00
C990   C     0.86032   0.46893   0.90769   0.00000  Uiso   1.00
C991   C     0.81349   0.53394   0.90695   0.00000  Uiso   1.00
C992   C     0.91304   0.50013   0.74960   0.00000  Uiso   1.00
C993   C     0.80912   0.47206   0.59097   0.00000  Uiso   1.00
C994   C     0.83600   0.50010   0.61638   0.00000  Uiso   1.00
C995   C     0.83571   0.50078   0.88443   0.00000  Uiso   1.00
C996   C     0.84075   0.50063   0.52479   0.00000  Uiso   1.00
C997   C     0.83994   0.50259   0.97666   0.00000  Uiso   1.00
C998   C     0.95721   0.50061   0.74873   0.00000  Uiso   1.00
C999   C     0.70937   0.49926   0.75063   0.00000  Uiso   1.00
C1000  C     0.83353   0.50000   0.66418   0.00000  Uiso   1.00
C1001  C     0.83379   0.50010   0.83605   0.00000  Uiso   1.00
C1002  C     0.86316   0.35709   0.77424   0.00000  Uiso   1.00
C1003  C     0.80359   0.64285   0.72561   0.00000  Uiso   1.00
C1004  C     0.80355   0.35682   0.72567   0.00000  Uiso   1.00
C1005  C     0.86309   0.64314   0.77435   0.00000  Uiso   1.00
C1006  C     0.68763   0.48105   0.71347   0.00000  Uiso   1.00
H1007  H     0.88565   0.40889   0.80443   0.00000  Uiso   1.00
H1008  H     0.88301   0.40918   0.90222   0.00000  Uiso   1.00
H1009  H     0.77656   0.58628   0.90204   0.00000  Uiso   1.00
H1010  H     0.77647   0.41726   0.59406   0.00000  Uiso   1.00
H1011  H     0.69104   0.45180   0.65509   0.00000  Uiso   1.00
H1012  H     0.97567   0.54853   0.84403   0.00000  Uiso   1.00
H1013  H     0.92648   0.47556   0.67367   0.00000  Uiso   1.00
H1014  H     0.73917   0.52048   0.82696   0.00000  Uiso   1.00
H1015  H     0.78170   0.59120   0.69426   0.00000  Uiso   1.00
H1016  H     0.78139   0.40839   0.69507   0.00000  Uiso   1.00
H1017  H     0.88501   0.59164   0.80544   0.00000  Uiso   1.00
H1018  H     0.90050   0.54843   0.99910   0.00000  Uiso   1.00
H1019  H     0.91418   0.43516   0.96127   0.00000  Uiso   1.00
H1020  H     0.79608   0.56439   0.50790   0.00000  Uiso   1.00
H1021  H     0.75522   0.44731   0.53254   0.00000  Uiso   1.00
H1022  H     0.91277   0.56993   0.60643   0.00000  Uiso   1.00
N1023  N     0.83333   0.61907   0.75000   0.00000  Uiso   1.00
N1024  N     0.83333   0.38093   0.75000   0.00000  Uiso   1.00
O1025  O     0.77226   0.53821   0.74999   0.00000  Uiso   1.00
O1026  O     0.77292   0.62202   0.69961   0.00000  Uiso   1.00
O1027  O     0.77285   0.37732   0.69976   0.00000  Uiso   1.00
O1028  O     0.89373   0.62261   0.80034   0.00000  Uiso   1.00
O1029  O     0.89970   0.55369   0.53158   0.00000  Uiso   1.00
O1030  O     0.89000   0.44333   0.97932   0.00000  Uiso   1.00
O1031  O     0.79152   0.56629   0.97521   0.00000  Uiso   1.00
O1032  O     0.78179   0.45101   0.51686   0.00000  Uiso   1.00
O1033  O     0.89302   0.55256   0.62437   0.00000  Uiso   1.00
O1034  O     0.88109   0.43680   0.88409   0.00000  Uiso   1.00
O1035  O     0.78978   0.56444   0.88225   0.00000  Uiso   1.00
O1036  O     0.89441   0.46179   0.75000   0.00000  Uiso   1.00
O1037  O     0.78171   0.44428   0.61254   0.00000  Uiso   1.00
O1038  O     0.71023   0.46409   0.67874   0.00000  Uiso   1.00
O1039  O     0.95643   0.53588   0.82062   0.00000  Uiso   1.00
O1040  O     0.95586   0.46518   0.67469   0.00000  Uiso   1.00
O1041  O     0.71077   0.53354   0.82498   0.00000  Uiso   1.00
O1042  O     0.89441   0.53821   0.75000   0.00000  Uiso   1.00
O1043  O     0.77226   0.46179   0.74999   0.00000  Uiso   1.00
O1044  O     0.83333   0.53822   0.68453   0.00000  Uiso   1.00
O1045  O     0.83334   0.46178   0.81547   0.00000  Uiso   1.00
O1046  O     0.83334   0.53822   0.81547   0.00000  Uiso   1.00
O1047  O     0.83333   0.46178   0.68453   0.00000  Uiso   1.00
O1048  O     0.89404   0.37785   0.79993   0.00000  Uiso   1.00
Zn1049 Zn    0.83333   0.55104   0.75000   0.00000  Uiso   1.00
Zn1050 Zn    0.83333   0.44896   0.75000   0.00000  Uiso   1.00
C1051  C     0.08692   0.83318   0.74998   0.00000  Uiso   1.00
C1052  C     0.31230   0.85220   0.78584   0.00000  Uiso   1.00
C1053  C     0.31070   0.81529   0.71208   0.00000  Uiso   1.00
C1054  C     0.02252   0.85092   0.78735   0.00000  Uiso   1.00
C1055  C     0.20270   0.86048   0.55043   0.00000  Uiso   1.00
C1056  C     0.19704   0.80441   0.95438   0.00000  Uiso   1.00
C1057  C     0.14827   0.86787   0.95363   0.00000  Uiso   1.00
C1058  C     0.14368   0.80714   0.54435   0.00000  Uiso   1.00
C1059  C     0.19961   0.86066   0.59685   0.00000  Uiso   1.00
C1060  C     0.19365   0.80226   0.90769   0.00000  Uiso   1.00
C1061  C     0.14682   0.86727   0.90695   0.00000  Uiso   1.00
C1062  C     0.24637   0.83346   0.74960   0.00000  Uiso   1.00
C1063  C     0.14246   0.80539   0.59097   0.00000  Uiso   1.00
C1064  C     0.16934   0.83343   0.61638   0.00000  Uiso   1.00
C1065  C     0.16905   0.83411   0.88443   0.00000  Uiso   1.00
C1066  C     0.17408   0.83397   0.52479   0.00000  Uiso   1.00
C1067  C     0.17327   0.83592   0.97666   0.00000  Uiso   1.00
C1068  C     0.29054   0.83394   0.74873   0.00000  Uiso   1.00
C1069  C     0.04270   0.83260   0.75063   0.00000  Uiso   1.00
C1070  C     0.16686   0.83333   0.66418   0.00000  Uiso   1.00
C1071  C     0.16713   0.83343   0.83605   0.00000  Uiso   1.00
C1072  C     0.19649   0.69042   0.77424   0.00000  Uiso   1.00
C1073  C     0.13692   0.97619   0.72561   0.00000  Uiso   1.00
C1074  C     0.13688   0.69015   0.72567   0.00000  Uiso   1.00
C1075  C     0.19642   0.97648   0.77435   0.00000  Uiso   1.00
C1076  C     0.02096   0.81438   0.71347   0.00000  Uiso   1.00
H1077  H     0.21898   0.74222   0.80443   0.00000  Uiso   1.00
H1078  H     0.21635   0.74251   0.90222   0.00000  Uiso   1.00
H1079  H     0.10989   0.91961   0.90204   0.00000  Uiso   1.00
H1080  H     0.10981   0.75059   0.59406   0.00000  Uiso   1.00
H1081  H     0.02437   0.78513   0.65509   0.00000  Uiso   1.00
H1082  H     0.30901   0.88186   0.84403   0.00000  Uiso   1.00
H1083  H     0.25981   0.80889   0.67367   0.00000  Uiso   1.00
H1084  H     0.07251   0.85382   0.82696   0.00000  Uiso   1.00
H1085  H     0.11503   0.92454   0.69426   0.00000  Uiso   1.00
H1086  H     0.11473   0.74172   0.69507   0.00000  Uiso   1.00
H1087  H     0.21835   0.92498   0.80544   0.00000  Uiso   1.00
H1088  H     0.23384   0.88176   0.99910   0.00000  Uiso   1.00
H1089  H     0.24751   0.76849   0.96127   0.00000  Uiso   1.00
H1090  H     0.12941   0.89772   0.50790   0.00000  Uiso   1.00
H1091  H     0.08856   0.78064   0.53254   0.00000  Uiso   1.00
H1092  H     0.24610   0.90326   0.60643   0.00000  Uiso   1.00
N1093  N     0.16667   0.95240   0.75000   0.00000  Uiso   1.00
N1094  N     0.16667   0.71427   0.75000   0.00000  Uiso   1.00
O1095  O     0.10559   0.87154   0.74999   0.00000  Uiso   1.00
O1096  O     0.10625   0.95535   0.69961   0.00000  Uiso   1.00
O1097  O     0.10618   0.71065   0.69976   0.00000  Uiso   1.00
O1098  O     0.22707   0.95594   0.80034   0.00000  Uiso   1.00
O1099  O     0.23303   0.88703   0.53158   0.00000  Uiso   1.00
O1100  O     0.22333   0.77667   0.97932   0.00000  Uiso   1.00
O1101  O     0.12485   0.89962   0.97521   0.00000  Uiso   1.00
O1102  O     0.11512   0.78434   0.51686   0.00000  Uiso   1.00
O1103  O     0.22636   0.88589   0.62437   0.00000  Uiso   1.00
O1104  O     0.21442   0.77013   0.88409   0.00000  Uiso   1.00
O1105  O     0.12311   0.89777   0.88225   0.00000  Uiso   1.00
O1106  O     0.22774   0.79513   0.75000   0.00000  Uiso   1.00
O1107  O     0.11505   0.77762   0.61254   0.00000  Uiso   1.00
O1108  O     0.04357   0.79742   0.67874   0.00000  Uiso   1.00
O1109  O     0.28976   0.86921   0.82062   0.00000  Uiso   1.00
O1110  O     0.28919   0.79852   0.67469   0.00000  Uiso   1.00
O1111  O     0.04410   0.86688   0.82498   0.00000  Uiso   1.00
O1112  O     0.22774   0.87154   0.75000   0.00000  Uiso   1.00
O1113  O     0.10559   0.79513   0.74999   0.00000  Uiso   1.00
O1114  O     0.16666   0.87155   0.68453   0.00000  Uiso   1.00
O1115  O     0.16667   0.79511   0.81547   0.00000  Uiso   1.00
O1116  O     0.16667   0.87155   0.81547   0.00000  Uiso   1.00
O1117  O     0.16666   0.79511   0.68453   0.00000  Uiso   1.00
O1118  O     0.22737   0.71118   0.79993   0.00000  Uiso   1.00
Zn1119 Zn    0.16667   0.88437   0.75000   0.00000  Uiso   1.00
Zn1120 Zn    0.16667   0.78229   0.75000   0.00000  Uiso   1.00
C1121  C     0.42026   0.83318   0.74998   0.00000  Uiso   1.00
C1122  C     0.64564   0.85220   0.78584   0.00000  Uiso   1.00
C1123  C     0.64403   0.81529   0.71208   0.00000  Uiso   1.00
C1124  C     0.35585   0.85092   0.78735   0.00000  Uiso   1.00
C1125  C     0.53604   0.86048   0.55043   0.00000  Uiso   1.00
C1126  C     0.53037   0.80441   0.95438   0.00000  Uiso   1.00
C1127  C     0.48160   0.86787   0.95363   0.00000  Uiso   1.00
C1128  C     0.47701   0.80714   0.54435   0.00000  Uiso   1.00
C1129  C     0.53295   0.86066   0.59685   0.00000  Uiso   1.00
C1130  C     0.52698   0.80226   0.90769   0.00000  Uiso   1.00
C1131  C     0.48015   0.86727   0.90695   0.00000  Uiso   1.00
C1132  C     0.57970   0.83346   0.74960   0.00000  Uiso   1.00
C1133  C     0.47579   0.80539   0.59097   0.00000  Uiso   1.00
C1134  C     0.50267   0.83343   0.61638   0.00000  Uiso   1.00
C1135  C     0.50238   0.83411   0.88443   0.00000  Uiso   1.00
C1136  C     0.50741   0.83397   0.52479   0.00000  Uiso   1.00
C1137  C     0.50660   0.83592   0.97666   0.00000  Uiso   1.00
C1138  C     0.62387   0.83394   0.74873   0.00000  Uiso   1.00
C1139  C     0.37604   0.83260   0.75063   0.00000  Uiso   1.00
C1140  C     0.50020   0.83333   0.66418   0.00000  Uiso   1.00
C1141  C     0.50046   0.83343   0.83605   0.00000  Uiso   1.00
C1142  C     0.52983   0.69042   0.77424   0.00000  Uiso   1.00
C1143  C     0.47025   0.97619   0.72561   0.00000  Uiso   1.00
C1144  C     0.47022   0.69015   0.72567   0.00000  Uiso   1.00
C1145  C     0.52975   0.97648   0.77435   0.00000  Uiso   1.00
C1146  C     0.35430   0.81438   0.71347   0.00000  Uiso   1.00
H1147  H     0.55232   0.74222   0.80443   0.00000  Uiso   1.00
H1148  H     0.54968   0.74251   0.90222   0.00000  Uiso   1.00
H1149  H     0.44323   0.91961   0.90204   0.00000  Uiso   1.00
H1150  H     0.44314   0.75059   0.59406   0.00000  Uiso   1.00
H1151  H     0.35771   0.78513   0.65509   0.00000  Uiso   1.00
H1152  H     0.64234   0.88186   0.84403   0.00000  Uiso   1.00
H1153  H     0.59314   0.80889   0.67367   0.00000  Uiso   1.00
H1154  H     0.40584   0.85382   0.82696   0.00000  Uiso   1.00
H1155  H     0.44836   0.92454   0.69426   0.00000  Uiso   1.00
H1156  H     0.44806   0.74172   0.69507   0.00000  Uiso   1.00
H1157  H     0.55168   0.92498   0.80544   0.00000  Uiso   1.00
H1158  H     0.56717   0.88176   0.99910   0.00000  Uiso   1.00
H1159  H     0.58084   0.76849   0.96127   0.00000  Uiso   1.00
H1160  H     0.46275   0.89772   0.50790   0.00000  Uiso   1.00
H1161  H     0.42189   0.78064   0.53254   0.00000  Uiso   1.00
H1162  H     0.57944   0.90326   0.60643   0.00000  Uiso   1.00
N1163  N     0.50000   0.95240   0.75000   0.00000  Uiso   1.00
N1164  N     0.50000   0.71427   0.75000   0.00000  Uiso   1.00
O1165  O     0.43892   0.87154   0.74999   0.00000  Uiso   1.00
O1166  O     0.43958   0.95535   0.69961   0.00000  Uiso   1.00
O1167  O     0.43952   0.71065   0.69976   0.00000  Uiso   1.00
O1168  O     0.56040   0.95594   0.80034   0.00000  Uiso   1.00
O1169  O     0.56636   0.88703   0.53158   0.00000  Uiso   1.00
O1170  O     0.55667   0.77667   0.97932   0.00000  Uiso   1.00
O1171  O     0.45818   0.89962   0.97521   0.00000  Uiso   1.00
O1172  O     0.44845   0.78434   0.51686   0.00000  Uiso   1.00
O1173  O     0.55969   0.88589   0.62437   0.00000  Uiso   1.00
O1174  O     0.54776   0.77013   0.88409   0.00000  Uiso   1.00
O1175  O     0.45644   0.89777   0.88225   0.00000  Uiso   1.00
O1176  O     0.56108   0.79513   0.75000   0.00000  Uiso   1.00
O1177  O     0.44838   0.77762   0.61254   0.00000  Uiso   1.00
O1178  O     0.37690   0.79742   0.67874   0.00000  Uiso   1.00
O1179  O     0.62310   0.86921   0.82062   0.00000  Uiso   1.00
O1180  O     0.62252   0.79852   0.67469   0.00000  Uiso   1.00
O1181  O     0.37743   0.86688   0.82498   0.00000  Uiso   1.00
O1182  O     0.56108   0.87154   0.75000   0.00000  Uiso   1.00
O1183  O     0.43892   0.79513   0.74999   0.00000  Uiso   1.00
O1184  O     0.50000   0.87155   0.68453   0.00000  Uiso   1.00
O1185  O     0.50000   0.79511   0.81547   0.00000  Uiso   1.00
O1186  O     0.50000   0.87155   0.81547   0.00000  Uiso   1.00
O1187  O     0.50000   0.79511   0.68453   0.00000  Uiso   1.00
O1188  O     0.56071   0.71118   0.79993   0.00000  Uiso   1.00
Zn1189 Zn    0.50000   0.88437   0.75000   0.00000  Uiso   1.00
Zn1190 Zn    0.50000   0.78229   0.75000   0.00000  Uiso   1.00
C1191  C     0.75359   0.83318   0.74998   0.00000  Uiso   1.00
C1192  C     0.97897   0.85220   0.78584   0.00000  Uiso   1.00
C1193  C     0.97737   0.81529   0.71208   0.00000  Uiso   1.00
C1194  C     0.68918   0.85092   0.78735   0.00000  Uiso   1.00
C1195  C     0.86937   0.86048   0.55043   0.00000  Uiso   1.00
C1196  C     0.86370   0.80441   0.95438   0.00000  Uiso   1.00
C1197  C     0.81493   0.86787   0.95363   0.00000  Uiso   1.00
C1198  C     0.81035   0.80714   0.54435   0.00000  Uiso   1.00
C1199  C     0.86628   0.86066   0.59685   0.00000  Uiso   1.00
C1200  C     0.86032   0.80226   0.90769   0.00000  Uiso   1.00
C1201  C     0.81349   0.86727   0.90695   0.00000  Uiso   1.00
C1202  C     0.91304   0.83346   0.74960   0.00000  Uiso   1.00
C1203  C     0.80912   0.80539   0.59097   0.00000  Uiso   1.00
C1204  C     0.83600   0.83343   0.61638   0.00000  Uiso   1.00
C1205  C     0.83571   0.83411   0.88443   0.00000  Uiso   1.00
C1206  C     0.84075   0.83397   0.52479   0.00000  Uiso   1.00
C1207  C     0.83994   0.83592   0.97666   0.00000  Uiso   1.00
C1208  C     0.95721   0.83394   0.74873   0.00000  Uiso   1.00
C1209  C     0.70937   0.83260   0.75063   0.00000  Uiso   1.00
C1210  C     0.83353   0.83333   0.66418   0.00000  Uiso   1.00
C1211  C     0.83379   0.83343   0.83605   0.00000  Uiso   1.00
C1212  C     0.86316   0.69042   0.77424   0.00000  Uiso   1.00
C1213  C     0.80359   0.97619   0.72561   0.00000  Uiso   1.00
C1214  C     0.80355   0.69015   0.72567   0.00000  Uiso   1.00
C1215  C     0.86309   0.97648   0.77435   0.00000  Uiso   1.00
C1216  C     0.68763   0.81438   0.71347   0.00000  Uiso   1.00
H1217  H     0.88565   0.74222   0.80443   0.00000  Uiso   1.00
H1218  H     0.88301   0.74251   0.90222   0.00000  Uiso   1.00
H1219  H     0.77656   0.91961   0.90204   0.00000  Uiso   1.00
H1220  H     0.77647   0.75059   0.59406   0.00000  Uiso   1.00
H1221  H     0.69104   0.78513   0.65509   0.00000  Uiso   1.00
H1222  H     0.97567   0.88186   0.84403   0.00000  Uiso   1.00
H1223  H     0.92648   0.80889   0.67367   0.00000  Uiso   1.00
H1224  H     0.73917   0.85382   0.82696   0.00000  Uiso   1.00
H1225  H     0.78170   0.92454   0.69426   0.00000  Uiso   1.00
H1226  H     0.78139   0.74172   0.69507   0.00000  Uiso   1.00
H1227  H     0.88501   0.92498   0.80544   0.00000  Uiso   1.00
H1228  H     0.90050   0.88176   0.99910   0.00000  Uiso   1.00
H1229  H     0.91418   0.76849   0.96127   0.00000  Uiso   1.00
H1230  H     0.79608   0.89772   0.50790   0.00000  Uiso   1.00
H1231  H     0.75522   0.78064   0.53254   0.00000  Uiso   1.00
H1232  H     0.91277   0.90326   0.60643   0.00000  Uiso   1.00
N1233  N     0.83333   0.95240   0.75000   0.00000  Uiso   1.00
N1234  N     0.83333   0.71427   0.75000   0.00000  Uiso   1.00
O1235  O     0.77226   0.87154   0.74999   0.00000  Uiso   1.00
O1236  O     0.77292   0.95535   0.69961   0.00000  Uiso   1.00
O1237  O     0.77285   0.71065   0.69976   0.00000  Uiso   1.00
O1238  O     0.89373   0.95594   0.80034   0.00000  Uiso   1.00
O1239  O     0.89970   0.88703   0.53158   0.00000  Uiso   1.00
O1240  O     0.89000   0.77667   0.97932   0.00000  Uiso   1.00
O1241  O     0.79152   0.89962   0.97521   0.00000  Uiso   1.00
O1242  O     0.78179   0.78434   0.51686   0.00000  Uiso   1.00
O1243  O     0.89302   0.88589   0.62437   0.00000  Uiso   1.00
O1244  O     0.88109   0.77013   0.88409   0.00000  Uiso   1.00
O1245  O     0.78978   0.89777   0.88225   0.00000  Uiso   1.00
O1246  O     0.89441   0.79513   0.75000   0.00000  Uiso   1.00
O1247  O     0.78171   0.77762   0.61254   0.00000  Uiso   1.00
O1248  O     0.71023   0.79742   0.67874   0.00000  Uiso   1.00
O1249  O     0.95643   0.86921   0.82062   0.00000  Uiso   1.00
O1250  O     0.95586   0.79852   0.67469   0.00000  Uiso   1.00
O1251  O     0.71077   0.86688   0.82498   0.00000  Uiso   1.00
O1252  O     0.89441   0.87154   0.75000   0.00000  Uiso   1.00
O1253  O     0.77226   0.79513   0.74999   0.00000  Uiso   1.00
O1254  O     0.83333   0.87155   0.68453   0.00000  Uiso   1.00
O1255  O     0.83334   0.79511   0.81547   0.00000  Uiso   1.00
O1256  O     0.83334   0.87155   0.81547   0.00000  Uiso   1.00
O1257  O     0.83333   0.79511   0.68453   0.00000  Uiso   1.00
O1258  O     0.89404   0.71118   0.79993   0.00000  Uiso   1.00
Zn1259 Zn    0.83333   0.88437   0.75000   0.00000  Uiso   1.00
Zn1260 Zn    0.83333   0.78229   0.75000   0.00000  Uiso   1.00
loop_
_geom_bond_atom_site_label_1
_geom_bond_atom_site_label_2
_geom_bond_distance
_geom_bond_site_symmetry_2
_ccdc_geom_bond_type
C1     O63     1.288   .     A
C1     C19     1.412   .     S
C1     O45     1.291   .     A
C2     C18     1.400   .     A
C2     O59     1.387   .     S
C2     C74     1.389   .     S
C3     O60     1.386   .     S
C3     C18     1.410   .     A
C3     C96     1.390   .     S
C4     C19     1.409   .     A
C4     O61     1.384   .     S
C4     C142    1.389   1_455 S
C5     O49     1.386   .     S
C5     C9      1.400   .     A
C5     C16     1.413   .     A
C6     C10     1.402   .     A
C6     O50     1.383   .     S
C6     C17     1.398   .     A
C7     O51     1.386   .     S
C7     C11     1.399   .     A
C7     C17     1.412   .     A
C8     C13     1.402   .     A
C8     O52     1.384   .     S
C8     C16     1.401   .     A
C9     C14     1.405   .     A
C9     O53     1.386   .     S
C10    O54     1.380   .     S
C10    C15     1.407   .     A
C11    C15     1.409   .     A
C11    O55     1.386   .     S
C12    O62     1.288   .     A
C12    O56     1.290   .     A
C12    C18     1.410   .     S
C13    C14     1.402   .     A
C13    O57     1.382   .     S
C14    C20     1.439   .     S
C15    C21     1.450   .     S
C16    C647    1.444   1_554 S
C17    C646    1.444   .     S
C19    C26     1.400   .     A
C20    O64     1.297   .     A
C20    O67     1.297   .     A
C21    O66     1.297   .     A
C21    O65     1.302   .     A
C22    O68     1.374   .     S
C22    N44     1.378   .     A
C22    C445    1.415   1_545 S
C23    O46     1.375   .     S
C23    N43     1.378   .     A
C23    C234    1.415   .     S
C24    N44     1.378   .     A
C24    O47     1.375   .     S
C24    C443    1.415   1_545 S
C25    N43     1.377   .     A
C25    O48     1.375   .     S
C25    C232    1.415   .     S
C26    O58     1.386   .     S
C26    C143    1.390   1_455 S
H27    O68     0.979   .     S
H28    O54     0.991   .     S
H29    O55     0.989   .     S
H30    O57     0.990   .     S
H31    O58     0.989   .     S
H32    O59     0.989   .     S
H33    O60     0.988   .     S
H34    O61     0.988   .     S
H35    O46     0.980   .     S
H36    O47     0.979   .     S
H37    O48     0.980   .     S
H38    O679    0.988   .     S
H39    O50     0.990   .     S
H40    O681    0.988   1_554 S
H41    O52     0.990   .     S
H42    O53     0.989   .     S
N43    Zn69    2.036   .     S
N44    Zn70    2.036   .     S
O45    Zn69    1.984   .     S
O49    H668    0.988   1_554 S
O51    H670    0.988   .     S
O56    Zn70    1.984   .     S
O62    Zn69    1.988   .     S
O63    Zn70    1.988   .     S
O64    Zn69    2.001   .     S
O65    Zn70    2.001   .     S
O66    Zn69    2.001   .     S
O67    Zn70    2.001   .     S
C71    O133    1.288   .     A
C71    C89     1.412   .     S
C71    O115    1.291   .     A
C72    C88     1.400   .     A
C72    O129    1.387   .     S
C72    C144    1.389   .     S
C73    O130    1.386   .     S
C73    C88     1.410   .     A
C73    C166    1.390   .     S
C74    C89     1.409   .     A
C74    O131    1.384   .     S
C75    O119    1.386   .     S
C75    C79     1.400   .     A
C75    C86     1.413   .     A
C76    C80     1.402   .     A
C76    O120    1.383   .     S
C76    C87     1.398   .     A
C77    O121    1.386   .     S
C77    C81     1.399   .     A
C77    C87     1.412   .     A
C78    C83     1.402   .     A
C78    O122    1.384   .     S
C78    C86     1.401   .     A
C79    C84     1.405   .     A
C79    O123    1.386   .     S
C80    O124    1.380   .     S
C80    C85     1.407   .     A
C81    C85     1.409   .     A
C81    O125    1.386   .     S
C82    O132    1.288   .     A
C82    O126    1.290   .     A
C82    C88     1.410   .     S
C83    C84     1.402   .     A
C83    O127    1.382   .     S
C84    C90     1.439   .     S
C85    C91     1.450   .     S
C86    C717    1.444   1_554 S
C87    C716    1.444   .     S
C89    C96     1.400   .     A
C90    O134    1.297   .     A
C90    O137    1.297   .     A
C91    O136    1.297   .     A
C91    O135    1.302   .     A
C92    O138    1.374   .     S
C92    N114    1.378   .     A
C92    C515    1.415   1_545 S
C93    O116    1.375   .     S
C93    N113    1.378   .     A
C93    C304    1.415   .     S
C94    N114    1.378   .     A
C94    O117    1.375   .     S
C94    C513    1.415   1_545 S
C95    N113    1.377   .     A
C95    O118    1.375   .     S
C95    C302    1.415   .     S
C96    O128    1.386   .     S
H97    O138    0.979   .     S
H98    O124    0.991   .     S
H99    O125    0.989   .     S
H100   O127    0.990   .     S
H101   O128    0.989   .     S
H102   O129    0.989   .     S
H103   O130    0.988   .     S
H104   O131    0.988   .     S
H105   O116    0.980   .     S
H106   O117    0.979   .     S
H107   O118    0.980   .     S
H108   O749    0.988   .     S
H109   O120    0.990   .     S
H110   O751    0.988   1_554 S
H111   O122    0.990   .     S
H112   O123    0.989   .     S
N113   Zn139   2.036   .     S
N114   Zn140   2.036   .     S
O115   Zn139   1.984   .     S
O119   H738    0.988   1_554 S
O121   H740    0.988   .     S
O126   Zn140   1.984   .     S
O132   Zn139   1.988   .     S
O133   Zn140   1.988   .     S
O134   Zn139   2.001   .     S
O135   Zn140   2.001   .     S
O136   Zn139   2.001   .     S
O137   Zn140   2.001   .     S
C141   O203    1.288   .     A
C141   C159    1.412   .     S
C141   O185    1.291   .     A
C142   C158    1.400   .     A
C142   O199    1.387   .     S
C142   C4      1.389   1_655 S
C143   O200    1.386   .     S
C143   C158    1.410   .     A
C143   C26     1.390   1_655 S
C144   C159    1.409   .     A
C144   O201    1.384   .     S
C145   O189    1.386   .     S
C145   C149    1.400   .     A
C145   C156    1.413   .     A
C146   C150    1.402   .     A
C146   O190    1.383   .     S
C146   C157    1.398   .     A
C147   O191    1.386   .     S
C147   C151    1.399   .     A
C147   C157    1.412   .     A
C148   C153    1.402   .     A
C148   O192    1.384   .     S
C148   C156    1.401   .     A
C149   C154    1.405   .     A
C149   O193    1.386   .     S
C150   O194    1.380   .     S
C150   C155    1.407   .     A
C151   C155    1.409   .     A
C151   O195    1.386   .     S
C152   O202    1.288   .     A
C152   O196    1.290   .     A
C152   C158    1.410   .     S
C153   C154    1.402   .     A
C153   O197    1.382   .     S
C154   C160    1.439   .     S
C155   C161    1.450   .     S
C156   C787    1.444   1_554 S
C157   C786    1.444   .     S
C159   C166    1.400   .     A
C160   O204    1.297   .     A
C160   O207    1.297   .     A
C161   O206    1.297   .     A
C161   O205    1.302   .     A
C162   O208    1.374   .     S
C162   N184    1.378   .     A
C162   C585    1.415   1_545 S
C163   O186    1.375   .     S
C163   N183    1.378   .     A
C163   C374    1.415   .     S
C164   N184    1.378   .     A
C164   O187    1.375   .     S
C164   C583    1.415   1_545 S
C165   N183    1.377   .     A
C165   O188    1.375   .     S
C165   C372    1.415   .     S
C166   O198    1.386   .     S
H167   O208    0.979   .     S
H168   O194    0.991   .     S
H169   O195    0.989   .     S
H170   O197    0.990   .     S
H171   O198    0.989   .     S
H172   O199    0.989   .     S
H173   O200    0.988   .     S
H174   O201    0.988   .     S
H175   O186    0.980   .     S
H176   O187    0.979   .     S
H177   O188    0.980   .     S
H178   O819    0.988   .     S
H179   O190    0.990   .     S
H180   O821    0.988   1_554 S
H181   O192    0.990   .     S
H182   O193    0.989   .     S
N183   Zn209   2.036   .     S
N184   Zn210   2.036   .     S
O185   Zn209   1.984   .     S
O189   H808    0.988   1_554 S
O191   H810    0.988   .     S
O196   Zn210   1.984   .     S
O202   Zn209   1.988   .     S
O203   Zn210   1.988   .     S
O204   Zn209   2.001   .     S
O205   Zn210   2.001   .     S
O206   Zn209   2.001   .     S
O207   Zn210   2.001   .     S
C211   O273    1.288   .     A
C211   C229    1.412   .     S
C211   O255    1.291   .     A
C212   C228    1.400   .     A
C212   O269    1.387   .     S
C212   C284    1.389   .     S
C213   O270    1.386   .     S
C213   C228    1.410   .     A
C213   C306    1.390   .     S
C214   C229    1.409   .     A
C214   O271    1.384   .     S
C214   C352    1.389   1_455 S
C215   O259    1.386   .     S
C215   C219    1.400   .     A
C215   C226    1.413   .     A
C216   C220    1.402   .     A
C216   O260    1.383   .     S
C216   C227    1.398   .     A
C217   O261    1.386   .     S
C217   C221    1.399   .     A
C217   C227    1.412   .     A
C218   C223    1.402   .     A
C218   O262    1.384   .     S
C218   C226    1.401   .     A
C219   C224    1.405   .     A
C219   O263    1.386   .     S
C220   O264    1.380   .     S
C220   C225    1.407   .     A
C221   C225    1.409   .     A
C221   O265    1.386   .     S
C222   O272    1.288   .     A
C222   O266    1.290   .     A
C222   C228    1.410   .     S
C223   C224    1.402   .     A
C223   O267    1.382   .     S
C224   C230    1.439   .     S
C225   C231    1.450   .     S
C226   C857    1.444   1_554 S
C227   C856    1.444   .     S
C229   C236    1.400   .     A
C230   O274    1.297   .     A
C230   O277    1.297   .     A
C231   O276    1.297   .     A
C231   O275    1.302   .     A
C232   O278    1.374   .     S
C232   N254    1.378   .     A
C233   O256    1.375   .     S
C233   N253    1.378   .     A
C233   C444    1.415   .     S
C234   N254    1.378   .     A
C234   O257    1.375   .     S
C235   N253    1.377   .     A
C235   O258    1.375   .     S
C235   C442    1.415   .     S
C236   O268    1.386   .     S
C236   C353    1.390   1_455 S
H237   O278    0.979   .     S
H238   O264    0.991   .     S
H239   O265    0.989   .     S
H240   O267    0.990   .     S
H241   O268    0.989   .     S
H242   O269    0.989   .     S
H243   O270    0.988   .     S
H244   O271    0.988   .     S
H245   O256    0.980   .     S
H246   O257    0.979   .     S
H247   O258    0.980   .     S
H248   O889    0.988   .     S
H249   O260    0.990   .     S
H250   O891    0.988   1_554 S
H251   O262    0.990   .     S
H252   O263    0.989   .     S
N253   Zn279   2.036   .     S
N254   Zn280   2.036   .     S
O255   Zn279   1.984   .     S
O259   H878    0.988   1_554 S
O261   H880    0.988   .     S
O266   Zn280   1.984   .     S
O272   Zn279   1.988   .     S
O273   Zn280   1.988   .     S
O274   Zn279   2.001   .     S
O275   Zn280   2.001   .     S
O276   Zn279   2.001   .     S
O277   Zn280   2.001   .     S
C281   O343    1.288   .     A
C281   C299    1.412   .     S
C281   O325    1.291   .     A
C282   C298    1.400   .     A
C282   O339    1.387   .     S
C282   C354    1.389   .     S
C283   O340    1.386   .     S
C283   C298    1.410   .     A
C283   C376    1.390   .     S
C284   C299    1.409   .     A
C284   O341    1.384   .     S
C285   O329    1.386   .     S
C285   C289    1.400   .     A
C285   C296    1.413   .     A
C286   C290    1.402   .     A
C286   O330    1.383   .     S
C286   C297    1.398   .     A
C287   O331    1.386   .     S
C287   C291    1.399   .     A
C287   C297    1.412   .     A
C288   C293    1.402   .     A
C288   O332    1.384   .     S
C288   C296    1.401   .     A
C289   C294    1.405   .     A
C289   O333    1.386   .     S
C290   O334    1.380   .     S
C290   C295    1.407   .     A
C291   C295    1.409   .     A
C291   O335    1.386   .     S
C292   O342    1.288   .     A
C292   O336    1.290   .     A
C292   C298    1.410   .     S
C293   C294    1.402   .     A
C293   O337    1.382   .     S
C294   C300    1.439   .     S
C295   C301    1.450   .     S
C296   C927    1.444   1_554 S
C297   C926    1.444   .     S
C299   C306    1.400   .     A
C300   O344    1.297   .     A
C300   O347    1.297   .     A
C301   O346    1.297   .     A
C301   O345    1.302   .     A
C302   O348    1.374   .     S
C302   N324    1.378   .     A
C303   O326    1.375   .     S
C303   N323    1.378   .     A
C303   C514    1.415   .     S
C304   N324    1.378   .     A
C304   O327    1.375   .     S
C305   N323    1.377   .     A
C305   O328    1.375   .     S
C305   C512    1.415   .     S
C306   O338    1.386   .     S
H307   O348    0.979   .     S
H308   O334    0.991   .     S
H309   O335    0.989   .     S
H310   O337    0.990   .     S
H311   O338    0.989   .     S
H312   O339    0.989   .     S
H313   O340    0.988   .     S
H314   O341    0.988   .     S
H315   O326    0.980   .     S
H316   O327    0.979   .     S
H317   O328    0.980   .     S
H318   O959    0.988   .     S
H319   O330    0.990   .     S
H320   O961    0.988   1_554 S
H321   O332    0.990   .     S
H322   O333    0.989   .     S
N323   Zn349   2.036   .     S
N324   Zn350   2.036   .     S
O325   Zn349   1.984   .     S
O329   H948    0.988   1_554 S
O331   H950    0.988   .     S
O336   Zn350   1.984   .     S
O342   Zn349   1.988   .     S
O343   Zn350   1.988   .     S
O344   Zn349   2.001   .     S
O345   Zn350   2.001   .     S
O346   Zn349   2.001   .     S
O347   Zn350   2.001   .     S
C351   O413    1.288   .     A
C351   C369    1.412   .     S
C351   O395    1.291   .     A
C352   C368    1.400   .     A
C352   O409    1.387   .     S
C352   C214    1.389   1_655 S
C353   O410    1.386   .     S
C353   C368    1.410   .     A
C353   C236    1.390   1_655 S
C354   C369    1.409   .     A
C354   O411    1.384   .     S
C355   O399    1.386   .     S
C355   C359    1.400   .     A
C355   C366    1.413   .     A
C356   C360    1.402   .     A
C356   O400    1.383   .     S
C356   C367    1.398   .     A
C357   O401    1.386   .     S
C357   C361    1.399   .     A
C357   C367    1.412   .     A
C358   C363    1.402   .     A
C358   O402    1.384   .     S
C358   C366    1.401   .     A
C359   C364    1.405   .     A
C359   O403    1.386   .     S
C360   O404    1.380   .     S
C360   C365    1.407   .     A
C361   C365    1.409   .     A
C361   O405    1.386   .     S
C362   O412    1.288   .     A
C362   O406    1.290   .     A
C362   C368    1.410   .     S
C363   C364    1.402   .     A
C363   O407    1.382   .     S
C364   C370    1.439   .     S
C365   C371    1.450   .     S
C366   C997    1.444   1_554 S
C367   C996    1.444   .     S
C369   C376    1.400   .     A
C370   O414    1.297   .     A
C370   O417    1.297   .     A
C371   O416    1.297   .     A
C371   O415    1.302   .     A
C372   O418    1.374   .     S
C372   N394    1.378   .     A
C373   O396    1.375   .     S
C373   N393    1.378   .     A
C373   C584    1.415   .     S
C374   N394    1.378   .     A
C374   O397    1.375   .     S
C375   N393    1.377   .     A
C375   O398    1.375   .     S
C375   C582    1.415   .     S
C376   O408    1.386   .     S
H377   O418    0.979   .     S
H378   O404    0.991   .     S
H379   O405    0.989   .     S
H380   O407    0.990   .     S
H381   O408    0.989   .     S
H382   O409    0.989   .     S
H383   O410    0.988   .     S
H384   O411    0.988   .     S
H385   O396    0.980   .     S
H386   O397    0.979   .     S
H387   O398    0.980   .     S
H388   O1029   0.988   .     S
H389   O400    0.990   .     S
H390   O1031   0.988   1_554 S
H391   O402    0.990   .     S
H392   O403    0.989   .     S
N393   Zn419   2.036   .     S
N394   Zn420   2.036   .     S
O395   Zn419   1.984   .     S
O399   H1018   0.988   1_554 S
O401   H1020   0.988   .     S
O406   Zn420   1.984   .     S
O412   Zn419   1.988   .     S
O413   Zn420   1.988   .     S
O414   Zn419   2.001   .     S
O415   Zn420   2.001   .     S
O416   Zn419   2.001   .     S
O417   Zn420   2.001   .     S
C421   O483    1.288   .     A
C421   C439    1.412   .     S
C421   O465    1.291   .     A
C422   C438    1.400   .     A
C422   O479    1.387   .     S
C422   C494    1.389   .     S
C423   O480    1.386   .     S
C423   C438    1.410   .     A
C423   C516    1.390   .     S
C424   C439    1.409   .     A
C424   O481    1.384   .     S
C424   C562    1.389   1_455 S
C425   O469    1.386   .     S
C425   C429    1.400   .     A
C425   C436    1.413   .     A
C426   C430    1.402   .     A
C426   O470    1.383   .     S
C426   C437    1.398   .     A
C427   O471    1.386   .     S
C427   C431    1.399   .     A
C427   C437    1.412   .     A
C428   C433    1.402   .     A
C428   O472    1.384   .     S
C428   C436    1.401   .     A
C429   C434    1.405   .     A
C429   O473    1.386   .     S
C430   O474    1.380   .     S
C430   C435    1.407   .     A
C431   C435    1.409   .     A
C431   O475    1.386   .     S
C432   O482    1.288   .     A
C432   O476    1.290   .     A
C432   C438    1.410   .     S
C433   C434    1.402   .     A
C433   O477    1.382   .     S
C434   C440    1.439   .     S
C435   C441    1.450   .     S
C436   C1067   1.444   1_554 S
C437   C1066   1.444   .     S
C439   C446    1.400   .     A
C440   O484    1.297   .     A
C440   O487    1.297   .     A
C441   O486    1.297   .     A
C441   O485    1.302   .     A
C442   O488    1.374   .     S
C442   N464    1.378   .     A
C443   O466    1.375   .     S
C443   N463    1.378   .     A
C443   C24     1.415   1_565 S
C444   N464    1.378   .     A
C444   O467    1.375   .     S
C445   N463    1.377   .     A
C445   O468    1.375   .     S
C445   C22     1.415   1_565 S
C446   O478    1.386   .     S
C446   C563    1.390   1_455 S
H447   O488    0.979   .     S
H448   O474    0.991   .     S
H449   O475    0.989   .     S
H450   O477    0.990   .     S
H451   O478    0.989   .     S
H452   O479    0.989   .     S
H453   O480    0.988   .     S
H454   O481    0.988   .     S
H455   O466    0.980   .     S
H456   O467    0.979   .     S
H457   O468    0.980   .     S
H458   O1099   0.988   .     S
H459   O470    0.990   .     S
H460   O1101   0.988   1_554 S
H461   O472    0.990   .     S
H462   O473    0.989   .     S
N463   Zn489   2.036   .     S
N464   Zn490   2.036   .     S
O465   Zn489   1.984   .     S
O469   H1088   0.988   1_554 S
O471   H1090   0.988   .     S
O476   Zn490   1.984   .     S
O482   Zn489   1.988   .     S
O483   Zn490   1.988   .     S
O484   Zn489   2.001   .     S
O485   Zn490   2.001   .     S
O486   Zn489   2.001   .     S
O487   Zn490   2.001   .     S
C491   O553    1.288   .     A
C491   C509    1.412   .     S
C491   O535    1.291   .     A
C492   C508    1.400   .     A
C492   O549    1.387   .     S
C492   C564    1.389   .     S
C493   O550    1.386   .     S
C493   C508    1.410   .     A
C493   C586    1.390   .     S
C494   C509    1.409   .     A
C494   O551    1.384   .     S
C495   O539    1.386   .     S
C495   C499    1.400   .     A
C495   C506    1.413   .     A
C496   C500    1.402   .     A
C496   O540    1.383   .     S
C496   C507    1.398   .     A
C497   O541    1.386   .     S
C497   C501    1.399   .     A
C497   C507    1.412   .     A
C498   C503    1.402   .     A
C498   O542    1.384   .     S
C498   C506    1.401   .     A
C499   C504    1.405   .     A
C499   O543    1.386   .     S
C500   O544    1.380   .     S
C500   C505    1.407   .     A
C501   C505    1.409   .     A
C501   O545    1.386   .     S
C502   O552    1.288   .     A
C502   O546    1.290   .     A
C502   C508    1.410   .     S
C503   C504    1.402   .     A
C503   O547    1.382   .     S
C504   C510    1.439   .     S
C505   C511    1.450   .     S
C506   C1137   1.444   1_554 S
C507   C1136   1.444   .     S
C509   C516    1.400   .     A
C510   O554    1.297   .     A
C510   O557    1.297   .     A
C511   O556    1.297   .     A
C511   O555    1.302   .     A
C512   O558    1.374   .     S
C512   N534    1.378   .     A
C513   O536    1.375   .     S
C513   N533    1.378   .     A
C513   C94     1.415   1_565 S
C514   N534    1.378   .     A
C514   O537    1.375   .     S
C515   N533    1.377   .     A
C515   O538    1.375   .     S
C515   C92     1.415   1_565 S
C516   O548    1.386   .     S
H517   O558    0.979   .     S
H518   O544    0.991   .     S
H519   O545    0.989   .     S
H520   O547    0.990   .     S
H521   O548    0.989   .     S
H522   O549    0.989   .     S
H523   O550    0.988   .     S
H524   O551    0.988   .     S
H525   O536    0.980   .     S
H526   O537    0.979   .     S
H527   O538    0.980   .     S
H528   O1169   0.988   .     S
H529   O540    0.990   .     S
H530   O1171   0.988   1_554 S
H531   O542    0.990   .     S
H532   O543    0.989   .     S
N533   Zn559   2.036   .     S
N534   Zn560   2.036   .     S
O535   Zn559   1.984   .     S
O539   H1158   0.988   1_554 S
O541   H1160   0.988   .     S
O546   Zn560   1.984   .     S
O552   Zn559   1.988   .     S
O553   Zn560   1.988   .     S
O554   Zn559   2.001   .     S
O555   Zn560   2.001   .     S
O556   Zn559   2.001   .     S
O557   Zn560   2.001   .     S
C561   O623    1.288   .     A
C561   C579    1.412   .     S
C561   O605    1.291   .     A
C562   C578    1.400   .     A
C562   O619    1.387   .     S
C562   C424    1.389   1_655 S
C563   O620    1.386   .     S
C563   C578    1.410   .     A
C563   C446    1.390   1_655 S
C564   C579    1.409   .     A
C564   O621    1.384   .     S
C565   O609    1.386   .     S
C565   C569    1.400   .     A
C565   C576    1.413   .     A
C566   C570    1.402   .     A
C566   O610    1.383   .     S
C566   C577    1.398   .     A
C567   O611    1.386   .     S
C567   C571    1.399   .     A
C567   C577    1.412   .     A
C568   C573    1.402   .     A
C568   O612    1.384   .     S
C568   C576    1.401   .     A
C569   C574    1.405   .     A
C569   O613    1.386   .     S
C570   O614    1.380   .     S
C570   C575    1.407   .     A
C571   C575    1.409   .     A
C571   O615    1.386   .     S
C572   O622    1.288   .     A
C572   O616    1.290   .     A
C572   C578    1.410   .     S
C573   C574    1.402   .     A
C573   O617    1.382   .     S
C574   C580    1.439   .     S
C575   C581    1.450   .     S
C576   C1207   1.444   1_554 S
C577   C1206   1.444   .     S
C579   C586    1.400   .     A
C580   O624    1.297   .     A
C580   O627    1.297   .     A
C581   O626    1.297   .     A
C581   O625    1.302   .     A
C582   O628    1.374   .     S
C582   N604    1.378   .     A
C583   O606    1.375   .     S
C583   N603    1.378   .     A
C583   C164    1.415   1_565 S
C584   N604    1.378   .     A
C584   O607    1.375   .     S
C585   N603    1.377   .     A
C585   O608    1.375   .     S
C585   C162    1.415   1_565 S
C586   O618    1.386   .     S
H587   O628    0.979   .     S
H588   O614    0.991   .     S
H589   O615    0.989   .     S
H590   O617    0.990   .     S
H591   O618    0.989   .     S
H592   O619    0.989   .     S
H593   O620    0.988   .     S
H594   O621    0.988   .     S
H595   O606    0.980   .     S
H596   O607    0.979   .     S
H597   O608    0.980   .     S
H598   O1239   0.988   .     S
H599   O610    0.990   .     S
H600   O1241   0.988   1_554 S
H601   O612    0.990   .     S
H602   O613    0.989   .     S
N603   Zn629   2.036   .     S
N604   Zn630   2.036   .     S
O605   Zn629   1.984   .     S
O609   H1228   0.988   1_554 S
O611   H1230   0.988   .     S
O616   Zn630   1.984   .     S
O622   Zn629   1.988   .     S
O623   Zn630   1.988   .     S
O624   Zn629   2.001   .     S
O625   Zn630   2.001   .     S
O626   Zn629   2.001   .     S
O627   Zn630   2.001   .     S
C631   O693    1.288   .     A
C631   C649    1.412   .     S
C631   O675    1.291   .     A
C632   C648    1.400   .     A
C632   O689    1.387   .     S
C632   C704    1.389   .     S
C633   O690    1.386   .     S
C633   C648    1.410   .     A
C633   C726    1.390   .     S
C634   C649    1.409   .     A
C634   O691    1.384   .     S
C634   C772    1.389   1_455 S
C635   O679    1.386   .     S
C635   C639    1.400   .     A
C635   C646    1.413   .     A
C636   C640    1.402   .     A
C636   O680    1.383   .     S
C636   C647    1.398   .     A
C637   O681    1.386   .     S
C637   C641    1.399   .     A
C637   C647    1.412   .     A
C638   C643    1.402   .     A
C638   O682    1.384   .     S
C638   C646    1.401   .     A
C639   C644    1.405   .     A
C639   O683    1.386   .     S
C640   O684    1.380   .     S
C640   C645    1.407   .     A
C641   C645    1.409   .     A
C641   O685    1.386   .     S
C642   O692    1.288   .     A
C642   O686    1.290   .     A
C642   C648    1.410   .     S
C643   C644    1.402   .     A
C643   O687    1.382   .     S
C644   C650    1.439   .     S
C645   C651    1.450   .     S
C647   C16     1.444   1_556 S
C649   C656    1.400   .     A
C650   O694    1.297   .     A
C650   O697    1.297   .     A
C651   O696    1.297   .     A
C651   O695    1.302   .     A
C652   O698    1.374   .     S
C652   N674    1.378   .     A
C652   C1075   1.415   1_545 S
C653   O676    1.375   .     S
C653   N673    1.378   .     A
C653   C864    1.415   .     S
C654   N674    1.378   .     A
C654   O677    1.375   .     S
C654   C1073   1.415   1_545 S
C655   N673    1.377   .     A
C655   O678    1.375   .     S
C655   C862    1.415   .     S
C656   O688    1.386   .     S
C656   C773    1.390   1_455 S
H657   O698    0.979   .     S
H658   O684    0.991   .     S
H659   O685    0.989   .     S
H660   O687    0.990   .     S
H661   O688    0.989   .     S
H662   O689    0.989   .     S
H663   O690    0.988   .     S
H664   O691    0.988   .     S
H665   O676    0.980   .     S
H666   O677    0.979   .     S
H667   O678    0.980   .     S
H668   O49     0.988   1_556 S
H669   O680    0.990   .     S
H671   O682    0.990   .     S
H672   O683    0.989   .     S
N673   Zn699   2.036   .     S
N674   Zn700   2.036   .     S
O675   Zn699   1.984   .     S
O681   H40     0.988   1_556 S
O686   Zn700   1.984   .     S
O692   Zn699   1.988   .     S
O693   Zn700   1.988   .     S
O694   Zn699   2.001   .     S
O695   Zn700   2.001   .     S
O696   Zn699   2.001   .     S
O697   Zn700   2.001   .     S
C701   O763    1.288   .     A
C701   C719    1.412   .     S
C701   O745    1.291   .     A
C702   C718    1.400   .     A
C702   O759    1.387   .     S
C702   C774    1.389   .     S
C703   O760    1.386   .     S
C703   C718    1.410   .     A
C703   C796    1.390   .     S
C704   C719    1.409   .     A
C704   O761    1.384   .     S
C705   O749    1.386   .     S
C705   C709    1.400   .     A
C705   C716    1.413   .     A
C706   C710    1.402   .     A
C706   O750    1.383   .     S
C706   C717    1.398   .     A
C707   O751    1.386   .     S
C707   C711    1.399   .     A
C707   C717    1.412   .     A
C708   C713    1.402   .     A
C708   O752    1.384   .     S
C708   C716    1.401   .     A
C709   C714    1.405   .     A
C709   O753    1.386   .     S
C710   O754    1.380   .     S
C710   C715    1.407   .     A
C711   C715    1.409   .     A
C711   O755    1.386   .     S
C712   O762    1.288   .     A
C712   O756    1.290   .     A
C712   C718    1.410   .     S
C713   C714    1.402   .     A
C713   O757    1.382   .     S
C714   C720    1.439   .     S
C715   C721    1.450   .     S
C717   C86     1.444   1_556 S
C719   C726    1.400   .     A
C720   O764    1.297   .     A
C720   O767    1.297   .     A
C721   O766    1.297   .     A
C721   O765    1.302   .     A
C722   O768    1.374   .     S
C722   N744    1.378   .     A
C722   C1145   1.415   1_545 S
C723   O746    1.375   .     S
C723   N743    1.378   .     A
C723   C934    1.415   .     S
C724   N744    1.378   .     A
C724   O747    1.375   .     S
C724   C1143   1.415   1_545 S
C725   N743    1.377   .     A
C725   O748    1.375   .     S
C725   C932    1.415   .     S
C726   O758    1.386   .     S
H727   O768    0.979   .     S
H728   O754    0.991   .     S
H729   O755    0.989   .     S
H730   O757    0.990   .     S
H731   O758    0.989   .     S
H732   O759    0.989   .     S
H733   O760    0.988   .     S
H734   O761    0.988   .     S
H735   O746    0.980   .     S
H736   O747    0.979   .     S
H737   O748    0.980   .     S
H738   O119    0.988   1_556 S
H739   O750    0.990   .     S
H741   O752    0.990   .     S
H742   O753    0.989   .     S
N743   Zn769   2.036   .     S
N744   Zn770   2.036   .     S
O745   Zn769   1.984   .     S
O751   H110    0.988   1_556 S
O756   Zn770   1.984   .     S
O762   Zn769   1.988   .     S
O763   Zn770   1.988   .     S
O764   Zn769   2.001   .     S
O765   Zn770   2.001   .     S
O766   Zn769   2.001   .     S
O767   Zn770   2.001   .     S
C771   O833    1.288   .     A
C771   C789    1.412   .     S
C771   O815    1.291   .     A
C772   C788    1.400   .     A
C772   O829    1.387   .     S
C772   C634    1.389   1_655 S
C773   O830    1.386   .     S
C773   C788    1.410   .     A
C773   C656    1.390   1_655 S
C774   C789    1.409   .     A
C774   O831    1.384   .     S
C775   O819    1.386   .     S
C775   C779    1.400   .     A
C775   C786    1.413   .     A
C776   C780    1.402   .     A
C776   O820    1.383   .     S
C776   C787    1.398   .     A
C777   O821    1.386   .     S
C777   C781    1.399   .     A
C777   C787    1.412   .     A
C778   C783    1.402   .     A
C778   O822    1.384   .     S
C778   C786    1.401   .     A
C779   C784    1.405   .     A
C779   O823    1.386   .     S
C780   O824    1.380   .     S
C780   C785    1.407   .     A
C781   C785    1.409   .     A
C781   O825    1.386   .     S
C782   O832    1.288   .     A
C782   O826    1.290   .     A
C782   C788    1.410   .     S
C783   C784    1.402   .     A
C783   O827    1.382   .     S
C784   C790    1.439   .     S
C785   C791    1.450   .     S
C787   C156    1.444   1_556 S
C789   C796    1.400   .     A
C790   O834    1.297   .     A
C790   O837    1.297   .     A
C791   O836    1.297   .     A
C791   O835    1.302   .     A
C792   O838    1.374   .     S
C792   N814    1.378   .     A
C792   C1215   1.415   1_545 S
C793   O816    1.375   .     S
C793   N813    1.378   .     A
C793   C1004   1.415   .     S
C794   N814    1.378   .     A
C794   O817    1.375   .     S
C794   C1213   1.415   1_545 S
C795   N813    1.377   .     A
C795   O818    1.375   .     S
C795   C1002   1.415   .     S
C796   O828    1.386   .     S
H797   O838    0.979   .     S
H798   O824    0.991   .     S
H799   O825    0.989   .     S
H800   O827    0.990   .     S
H801   O828    0.989   .     S
H802   O829    0.989   .     S
H803   O830    0.988   .     S
H804   O831    0.988   .     S
H805   O816    0.980   .     S
H806   O817    0.979   .     S
H807   O818    0.980   .     S
H808   O189    0.988   1_556 S
H809   O820    0.990   .     S
H811   O822    0.990   .     S
H812   O823    0.989   .     S
N813   Zn839   2.036   .     S
N814   Zn840   2.036   .     S
O815   Zn839   1.984   .     S
O821   H180    0.988   1_556 S
O826   Zn840   1.984   .     S
O832   Zn839   1.988   .     S
O833   Zn840   1.988   .     S
O834   Zn839   2.001   .     S
O835   Zn840   2.001   .     S
O836   Zn839   2.001   .     S
O837   Zn840   2.001   .     S
C841   O903    1.288   .     A
C841   C859    1.412   .     S
C841   O885    1.291   .     A
C842   C858    1.400   .     A
C842   O899    1.387   .     S
C842   C914    1.389   .     S
C843   O900    1.386   .     S
C843   C858    1.410   .     A
C843   C936    1.390   .     S
C844   C859    1.409   .     A
C844   O901    1.384   .     S
C844   C982    1.389   1_455 S
C845   O889    1.386   .     S
C845   C849    1.400   .     A
C845   C856    1.413   .     A
C846   C850    1.402   .     A
C846   O890    1.383   .     S
C846   C857    1.398   .     A
C847   O891    1.386   .     S
C847   C851    1.399   .     A
C847   C857    1.412   .     A
C848   C853    1.402   .     A
C848   O892    1.384   .     S
C848   C856    1.401   .     A
C849   C854    1.405   .     A
C849   O893    1.386   .     S
C850   O894    1.380   .     S
C850   C855    1.407   .     A
C851   C855    1.409   .     A
C851   O895    1.386   .     S
C852   O902    1.288   .     A
C852   O896    1.290   .     A
C852   C858    1.410   .     S
C853   C854    1.402   .     A
C853   O897    1.382   .     S
C854   C860    1.439   .     S
C855   C861    1.450   .     S
C857   C226    1.444   1_556 S
C859   C866    1.400   .     A
C860   O904    1.297   .     A
C860   O907    1.297   .     A
C861   O906    1.297   .     A
C861   O905    1.302   .     A
C862   O908    1.374   .     S
C862   N884    1.378   .     A
C863   O886    1.375   .     S
C863   N883    1.378   .     A
C863   C1074   1.415   .     S
C864   N884    1.378   .     A
C864   O887    1.375   .     S
C865   N883    1.377   .     A
C865   O888    1.375   .     S
C865   C1072   1.415   .     S
C866   O898    1.386   .     S
C866   C983    1.390   1_455 S
H867   O908    0.979   .     S
H868   O894    0.991   .     S
H869   O895    0.989   .     S
H870   O897    0.990   .     S
H871   O898    0.989   .     S
H872   O899    0.989   .     S
H873   O900    0.988   .     S
H874   O901    0.988   .     S
H875   O886    0.980   .     S
H876   O887    0.979   .     S
H877   O888    0.980   .     S
H878   O259    0.988   1_556 S
H879   O890    0.990   .     S
H881   O892    0.990   .     S
H882   O893    0.989   .     S
N883   Zn909   2.036   .     S
N884   Zn910   2.036   .     S
O885   Zn909   1.984   .     S
O891   H250    0.988   1_556 S
O896   Zn910   1.984   .     S
O902   Zn909   1.988   .     S
O903   Zn910   1.988   .     S
O904   Zn909   2.001   .     S
O905   Zn910   2.001   .     S
O906   Zn909   2.001   .     S
O907   Zn910   2.001   .     S
C911   O973    1.288   .     A
C911   C929    1.412   .     S
C911   O955    1.291   .     A
C912   C928    1.400   .     A
C912   O969    1.387   .     S
C912   C984    1.389   .     S
C913   O970    1.386   .     S
C913   C928    1.410   .     A
C913   C1006   1.390   .     S
C914   C929    1.409   .     A
C914   O971    1.384   .     S
C915   O959    1.386   .     S
C915   C919    1.400   .     A
C915   C926    1.413   .     A
C916   C920    1.402   .     A
C916   O960    1.383   .     S
C916   C927    1.398   .     A
C917   O961    1.386   .     S
C917   C921    1.399   .     A
C917   C927    1.412   .     A
C918   C923    1.402   .     A
C918   O962    1.384   .     S
C918   C926    1.401   .     A
C919   C924    1.405   .     A
C919   O963    1.386   .     S
C920   O964    1.380   .     S
C920   C925    1.407   .     A
C921   C925    1.409   .     A
C921   O965    1.386   .     S
C922   O972    1.288   .     A
C922   O966    1.290   .     A
C922   C928    1.410   .     S
C923   C924    1.402   .     A
C923   O967    1.382   .     S
C924   C930    1.439   .     S
C925   C931    1.450   .     S
C927   C296    1.444   1_556 S
C929   C936    1.400   .     A
C930   O974    1.297   .     A
C930   O977    1.297   .     A
C931   O976    1.297   .     A
C931   O975    1.302   .     A
C932   O978    1.374   .     S
C932   N954    1.378   .     A
C933   O956    1.375   .     S
C933   N953    1.378   .     A
C933   C1144   1.415   .     S
C934   N954    1.378   .     A
C934   O957    1.375   .     S
C935   N953    1.377   .     A
C935   O958    1.375   .     S
C935   C1142   1.415   .     S
C936   O968    1.386   .     S
H937   O978    0.979   .     S
H938   O964    0.991   .     S
H939   O965    0.989   .     S
H940   O967    0.990   .     S
H941   O968    0.989   .     S
H942   O969    0.989   .     S
H943   O970    0.988   .     S
H944   O971    0.988   .     S
H945   O956    0.980   .     S
H946   O957    0.979   .     S
H947   O958    0.980   .     S
H948   O329    0.988   1_556 S
H949   O960    0.990   .     S
H951   O962    0.990   .     S
H952   O963    0.989   .     S
N953   Zn979   2.036   .     S
N954   Zn980   2.036   .     S
O955   Zn979   1.984   .     S
O961   H320    0.988   1_556 S
O966   Zn980   1.984   .     S
O972   Zn979   1.988   .     S
O973   Zn980   1.988   .     S
O974   Zn979   2.001   .     S
O975   Zn980   2.001   .     S
O976   Zn979   2.001   .     S
O977   Zn980   2.001   .     S
C981   O1043   1.288   .     A
C981   C999    1.412   .     S
C981   O1025   1.291   .     A
C982   C998    1.400   .     A
C982   O1039   1.387   .     S
C982   C844    1.389   1_655 S
C983   O1040   1.386   .     S
C983   C998    1.410   .     A
C983   C866    1.390   1_655 S
C984   C999    1.409   .     A
C984   O1041   1.384   .     S
C985   O1029   1.386   .     S
C985   C989    1.400   .     A
C985   C996    1.413   .     A
C986   C990    1.402   .     A
C986   O1030   1.383   .     S
C986   C997    1.398   .     A
C987   O1031   1.386   .     S
C987   C991    1.399   .     A
C987   C997    1.412   .     A
C988   C993    1.402   .     A
C988   O1032   1.384   .     S
C988   C996    1.401   .     A
C989   C994    1.405   .     A
C989   O1033   1.386   .     S
C990   O1034   1.380   .     S
C990   C995    1.407   .     A
C991   C995    1.409   .     A
C991   O1035   1.386   .     S
C992   O1042   1.288   .     A
C992   O1036   1.290   .     A
C992   C998    1.410   .     S
C993   C994    1.402   .     A
C993   O1037   1.382   .     S
C994   C1000   1.439   .     S
C995   C1001   1.450   .     S
C997   C366    1.444   1_556 S
C999   C1006   1.400   .     A
C1000  O1044   1.297   .     A
C1000  O1047   1.297   .     A
C1001  O1046   1.297   .     A
C1001  O1045   1.302   .     A
C1002  O1048   1.374   .     S
C1002  N1024   1.378   .     A
C1003  O1026   1.375   .     S
C1003  N1023   1.378   .     A
C1003  C1214   1.415   .     S
C1004  N1024   1.378   .     A
C1004  O1027   1.375   .     S
C1005  N1023   1.377   .     A
C1005  O1028   1.375   .     S
C1005  C1212   1.415   .     S
C1006  O1038   1.386   .     S
H1007  O1048   0.979   .     S
H1008  O1034   0.991   .     S
H1009  O1035   0.989   .     S
H1010  O1037   0.990   .     S
H1011  O1038   0.989   .     S
H1012  O1039   0.989   .     S
H1013  O1040   0.988   .     S
H1014  O1041   0.988   .     S
H1015  O1026   0.980   .     S
H1016  O1027   0.979   .     S
H1017  O1028   0.980   .     S
H1018  O399    0.988   1_556 S
H1019  O1030   0.990   .     S
H1021  O1032   0.990   .     S
H1022  O1033   0.989   .     S
N1023  Zn1049  2.036   .     S
N1024  Zn1050  2.036   .     S
O1025  Zn1049  1.984   .     S
O1031  H390    0.988   1_556 S
O1036  Zn1050  1.984   .     S
O1042  Zn1049  1.988   .     S
O1043  Zn1050  1.988   .     S
O1044  Zn1049  2.001   .     S
O1045  Zn1050  2.001   .     S
O1046  Zn1049  2.001   .     S
O1047  Zn1050  2.001   .     S
C1051  O1113   1.288   .     A
C1051  C1069   1.412   .     S
C1051  O1095   1.291   .     A
C1052  C1068   1.400   .     A
C1052  O1109   1.387   .     S
C1052  C1124   1.389   .     S
C1053  O1110   1.386   .     S
C1053  C1068   1.410   .     A
C1053  C1146   1.390   .     S
C1054  C1069   1.409   .     A
C1054  O1111   1.384   .     S
C1054  C1192   1.389   1_455 S
C1055  O1099   1.386   .     S
C1055  C1059   1.400   .     A
C1055  C1066   1.413   .     A
C1056  C1060   1.402   .     A
C1056  O1100   1.383   .     S
C1056  C1067   1.398   .     A
C1057  O1101   1.386   .     S
C1057  C1061   1.399   .     A
C1057  C1067   1.412   .     A
C1058  C1063   1.402   .     A
C1058  O1102   1.384   .     S
C1058  C1066   1.401   .     A
C1059  C1064   1.405   .     A
C1059  O1103   1.386   .     S
C1060  O1104   1.380   .     S
C1060  C1065   1.407   .     A
C1061  C1065   1.409   .     A
C1061  O1105   1.386   .     S
C1062  O1112   1.288   .     A
C1062  O1106   1.290   .     A
C1062  C1068   1.410   .     S
C1063  C1064   1.402   .     A
C1063  O1107   1.382   .     S
C1064  C1070   1.439   .     S
C1065  C1071   1.450   .     S
C1067  C436    1.444   1_556 S
C1069  C1076   1.400   .     A
C1070  O1114   1.297   .     A
C1070  O1117   1.297   .     A
C1071  O1116   1.297   .     A
C1071  O1115   1.302   .     A
C1072  O1118   1.374   .     S
C1072  N1094   1.378   .     A
C1073  O1096   1.375   .     S
C1073  N1093   1.378   .     A
C1073  C654    1.415   1_565 S
C1074  N1094   1.378   .     A
C1074  O1097   1.375   .     S
C1075  N1093   1.377   .     A
C1075  O1098   1.375   .     S
C1075  C652    1.415   1_565 S
C1076  O1108   1.386   .     S
C1076  C1193   1.390   1_455 S
H1077  O1118   0.979   .     S
H1078  O1104   0.991   .     S
H1079  O1105   0.989   .     S
H1080  O1107   0.990   .     S
H1081  O1108   0.989   .     S
H1082  O1109   0.989   .     S
H1083  O1110   0.988   .     S
H1084  O1111   0.988   .     S
H1085  O1096   0.980   .     S
H1086  O1097   0.979   .     S
H1087  O1098   0.980   .     S
H1088  O469    0.988   1_556 S
H1089  O1100   0.990   .     S
H1091  O1102   0.990   .     S
H1092  O1103   0.989   .     S
N1093  Zn1119  2.036   .     S
N1094  Zn1120  2.036   .     S
O1095  Zn1119  1.984   .     S
O1101  H460    0.988   1_556 S
O1106  Zn1120  1.984   .     S
O1112  Zn1119  1.988   .     S
O1113  Zn1120  1.988   .     S
O1114  Zn1119  2.001   .     S
O1115  Zn1120  2.001   .     S
O1116  Zn1119  2.001   .     S
O1117  Zn1120  2.001   .     S
C1121  O1183   1.288   .     A
C1121  C1139   1.412   .     S
C1121  O1165   1.291   .     A
C1122  C1138   1.400   .     A
C1122  O1179   1.387   .     S
C1122  C1194   1.389   .     S
C1123  O1180   1.386   .     S
C1123  C1138   1.410   .     A
C1123  C1216   1.390   .     S
C1124  C1139   1.409   .     A
C1124  O1181   1.384   .     S
C1125  O1169   1.386   .     S
C1125  C1129   1.400   .     A
C1125  C1136   1.413   .     A
C1126  C1130   1.402   .     A
C1126  O1170   1.383   .     S
C1126  C1137   1.398   .     A
C1127  O1171   1.386   .     S
C1127  C1131   1.399   .     A
C1127  C1137   1.412   .     A
C1128  C1133   1.402   .     A
C1128  O1172   1.384   .     S
C1128  C1136   1.401   .     A
C1129  C1134   1.405   .     A
C1129  O1173   1.386   .     S
C1130  O1174   1.380   .     S
C1130  C1135   1.407   .     A
C1131  C1135   1.409   .     A
C1131  O1175   1.386   .     S
C1132  O1182   1.288   .     A
C1132  O1176   1.290   .     A
C1132  C1138   1.410   .     S
C1133  C1134   1.402   .     A
C1133  O1177   1.382   .     S
C1134  C1140   1.439   .     S
C1135  C1141   1.450   .     S
C1137  C506    1.444   1_556 S
C1139  C1146   1.400   .     A
C1140  O1184   1.297   .     A
C1140  O1187   1.297   .     A
C1141  O1186   1.297   .     A
C1141  O1185   1.302   .     A
C1142  O1188   1.374   .     S
C1142  N1164   1.378   .     A
C1143  O1166   1.375   .     S
C1143  N1163   1.378   .     A
C1143  C724    1.415   1_565 S
C1144  N1164   1.378   .     A
C1144  O1167   1.375   .     S
C1145  N1163   1.377   .     A
C1145  O1168   1.375   .     S
C1145  C722    1.415   1_565 S
C1146  O1178   1.386   .     S
H1147  O1188   0.979   .     S
H1148  O1174   0.991   .     S
H1149  O1175   0.989   .     S
H1150  O1177   0.990   .     S
H1151  O1178   0.989   .     S
H1152  O1179   0.989   .     S
H1153  O1180   0.988   .     S
H1154  O1181   0.988   .     S
H1155  O1166   0.980   .     S
H1156  O1167   0.979   .     S
H1157  O1168   0.980   .     S
H1158  O539    0.988   1_556 S
H1159  O1170   0.990   .     S
H1161  O1172   0.990   .     S
H1162  O1173   0.989   .     S
N1163  Zn1189  2.036   .     S
N1164  Zn1190  2.036   .     S
O1165  Zn1189  1.984   .     S
O1171  H530    0.988   1_556 S
O1176  Zn1190  1.984   .     S
O1182  Zn1189  1.988   .     S
O1183  Zn1190  1.988   .     S
O1184  Zn1189  2.001   .     S
O1185  Zn1190  2.001   .     S
O1186  Zn1189  2.001   .     S
O1187  Zn1190  2.001   .     S
C1191  O1253   1.288   .     A
C1191  C1209   1.412   .     S
C1191  O1235   1.291   .     A
C1192  C1208   1.400   .     A
C1192  O1249   1.387   .     S
C1192  C1054   1.389   1_655 S
C1193  O1250   1.386   .     S
C1193  C1208   1.410   .     A
C1193  C1076   1.390   1_655 S
C1194  C1209   1.409   .     A
C1194  O1251   1.384   .     S
C1195  O1239   1.386   .     S
C1195  C1199   1.400   .     A
C1195  C1206   1.413   .     A
C1196  C1200   1.402   .     A
C1196  O1240   1.383   .     S
C1196  C1207   1.398   .     A
C1197  O1241   1.386   .     S
C1197  C1201   1.399   .     A
C1197  C1207   1.412   .     A
C1198  C1203   1.402   .     A
C1198  O1242   1.384   .     S
C1198  C1206   1.401   .     A
C1199  C1204   1.405   .     A
C1199  O1243   1.386   .     S
C1200  O1244   1.380   .     S
C1200  C1205   1.407   .     A
C1201  C1205   1.409   .     A
C1201  O1245   1.386   .     S
C1202  O1252   1.288   .     A
C1202  O1246   1.290   .     A
C1202  C1208   1.410   .     S
C1203  C1204   1.402   .     A
C1203  O1247   1.382   .     S
C1204  C1210   1.439   .     S
C1205  C1211   1.450   .     S
C1207  C576    1.444   1_556 S
C1209  C1216   1.400   .     A
C1210  O1254   1.297   .     A
C1210  O1257   1.297   .     A
C1211  O1256   1.297   .     A
C1211  O1255   1.302   .     A
C1212  O1258   1.374   .     S
C1212  N1234   1.378   .     A
C1213  O1236   1.375   .     S
C1213  N1233   1.378   .     A
C1213  C794    1.415   1_565 S
C1214  N1234   1.378   .     A
C1214  O1237   1.375   .     S
C1215  N1233   1.377   .     A
C1215  O1238   1.375   .     S
C1215  C792    1.415   1_565 S
C1216  O1248   1.386   .     S
H1217  O1258   0.979   .     S
H1218  O1244   0.991   .     S
H1219  O1245   0.989   .     S
H1220  O1247   0.990   .     S
H1221  O1248   0.989   .     S
H1222  O1249   0.989   .     S
H1223  O1250   0.988   .     S
H1224  O1251   0.988   .     S
H1225  O1236   0.980   .     S
H1226  O1237   0.979   .     S
H1227  O1238   0.980   .     S
H1228  O609    0.988   1_556 S
H1229  O1240   0.990   .     S
H1231  O1242   0.990   .     S
H1232  O1243   0.989   .     S
N1233  Zn1259  2.036   .     S
N1234  Zn1260  2.036   .     S
O1235  Zn1259  1.984   .     S
O1241  H600    0.988   1_556 S
O1246  Zn1260  1.984   .     S
O1252  Zn1259  1.988   .     S
O1253  Zn1260  1.988   .     S
O1254  Zn1259  2.001   .     S
O1255  Zn1260  2.001   .     S
O1256  Zn1259  2.001   .     S
O1257  Zn1260  2.001   .     S
