data_str_m3_o1_o10_pcu_sym.88
_audit_creation_date              2020-01-03
_audit_creation_method            'Materials Studio'
_symmetry_space_group_name_H-M    'P1'
_symmetry_Int_Tables_number       1
_symmetry_cell_setting            triclinic
loop_
_symmetry_equiv_pos_as_xyz
  x,y,z
_cell_length_a                    25.9982
_cell_length_b                    32.1108
_cell_length_c                    29.9712
_cell_angle_alpha                 90.8018
_cell_angle_beta                  99.2195
_cell_angle_gamma                 93.4949
loop_
_atom_site_label
_atom_site_type_symbol
_atom_site_fract_x
_atom_site_fract_y
_atom_site_fract_z
_atom_site_U_iso_or_equiv
_atom_site_adp_type
_atom_site_occupancy
C1     C     0.16711   0.08681   0.16648   0.00000  Uiso   1.00
C2     C     0.18266   0.02274   0.20709   0.00000  Uiso   1.00
C3     C     0.16557   0.29073   0.16703   0.00000  Uiso   1.00
C4     C     0.16776   0.04260   0.16630   0.00000  Uiso   1.00
C5     C     0.19981   0.19362   0.02923   0.00000  Uiso   1.00
C6     C     0.13353   0.13970   0.30410   0.00000  Uiso   1.00
C7     C     0.20197   0.19217   0.31520   0.00000  Uiso   1.00
C8     C     0.13137   0.14116   0.01813   0.00000  Uiso   1.00
C9     C     0.32054   0.13305   0.11077   0.00000  Uiso   1.00
C10    C     0.01279   0.20027   0.22257   0.00000  Uiso   1.00
C11    C     0.22794   0.22884   0.05706   0.00000  Uiso   1.00
C12    C     0.16623   0.24653   0.16686   0.00000  Uiso   1.00
C13    C     0.10542   0.10448   0.27628   0.00000  Uiso   1.00
C14    C     0.24726   0.21547   0.30043   0.00000  Uiso   1.00
C15    C     0.08607   0.11786   0.03290   0.00000  Uiso   1.00
C16    C     0.06729   0.16655   0.15478   0.00000  Uiso   1.00
C17    C     0.26604   0.16678   0.17855   0.00000  Uiso   1.00
C18    C     0.01226   0.16054   0.14949   0.00000  Uiso   1.00
C19    C     0.32108   0.17279   0.18385   0.00000  Uiso   1.00
C20    C     0.15232   0.01998   0.12579   0.00000  Uiso   1.00
C21    C     0.18101   0.31336   0.20755   0.00000  Uiso   1.00
C22    C     0.15067   0.31060   0.12624   0.00000  Uiso   1.00
H23    H     0.14103   0.03500   0.09398   0.00000  Uiso   1.00
H24    H     0.01075   0.09628   0.01529   0.00000  Uiso   1.00
H25    H     0.19231   0.29833   0.23935   0.00000  Uiso   1.00
H26    H     0.13756   0.29323   0.09483   0.00000  Uiso   1.00
H27    H     0.19577   0.04011   0.23851   0.00000  Uiso   1.00
H28    H     0.28213   0.07807   0.08971   0.00000  Uiso   1.00
H29    H     0.05117   0.25527   0.24364   0.00000  Uiso   1.00
H30    H     0.23449   0.29101   0.06912   0.00000  Uiso   1.00
H31    H     0.09888   0.04230   0.26426   0.00000  Uiso   1.00
H32    H     0.32259   0.23703   0.31804   0.00000  Uiso   1.00
N33    N     0.16665   0.16666   0.28573   0.00000  Uiso   1.00
N34    N     0.16668   0.16668   0.04760   0.00000  Uiso   1.00
O35    O     0.16666   0.10558   0.20487   0.00000  Uiso   1.00
O36    O     0.29895   0.09343   0.11867   0.00000  Uiso   1.00
O37    O     0.01585   0.18747   0.26100   0.00000  Uiso   1.00
O38    O     0.03435   0.23991   0.21467   0.00000  Uiso   1.00
O39    O     0.26736   0.22352   0.08391   0.00000  Uiso   1.00
O40    O     0.21146   0.26908   0.04937   0.00000  Uiso   1.00
O41    O     0.06602   0.10979   0.24940   0.00000  Uiso   1.00
O42    O     0.12190   0.06424   0.28402   0.00000  Uiso   1.00
O43    O     0.24215   0.23605   0.26649   0.00000  Uiso   1.00
O44    O     0.29618   0.21605   0.32795   0.00000  Uiso   1.00
O45    O     0.09119   0.09729   0.06684   0.00000  Uiso   1.00
O46    O     0.16667   0.22775   0.12846   0.00000  Uiso   1.00
O47    O     0.03716   0.11726   0.00538   0.00000  Uiso   1.00
O48    O     0.16666   0.10559   0.12843   0.00000  Uiso   1.00
O49    O     0.16667   0.22774   0.20490   0.00000  Uiso   1.00
O50    O     0.09058   0.16666   0.19595   0.00000  Uiso   1.00
O51    O     0.24275   0.16667   0.13739   0.00000  Uiso   1.00
O52    O     0.09058   0.16667   0.11950   0.00000  Uiso   1.00
O53    O     0.24275   0.16666   0.21383   0.00000  Uiso   1.00
O54    O     0.31751   0.14584   0.07234   0.00000  Uiso   1.00
Zn55   Zn    0.16667   0.16666   0.21771   0.00000  Uiso   1.00
Zn56   Zn    0.16667   0.16667   0.11563   0.00000  Uiso   1.00
C57    C     0.50044   0.08681   0.16648   0.00000  Uiso   1.00
C58    C     0.51599   0.02274   0.20709   0.00000  Uiso   1.00
C59    C     0.49890   0.29073   0.16703   0.00000  Uiso   1.00
C60    C     0.50110   0.04260   0.16630   0.00000  Uiso   1.00
C61    C     0.53314   0.19362   0.02923   0.00000  Uiso   1.00
C62    C     0.46686   0.13970   0.30410   0.00000  Uiso   1.00
C63    C     0.53530   0.19217   0.31520   0.00000  Uiso   1.00
C64    C     0.46470   0.14116   0.01813   0.00000  Uiso   1.00
C65    C     0.65387   0.13305   0.11077   0.00000  Uiso   1.00
C66    C     0.34613   0.20027   0.22257   0.00000  Uiso   1.00
C67    C     0.56128   0.22884   0.05706   0.00000  Uiso   1.00
C68    C     0.49956   0.24653   0.16686   0.00000  Uiso   1.00
C69    C     0.43875   0.10448   0.27628   0.00000  Uiso   1.00
C70    C     0.58060   0.21547   0.30043   0.00000  Uiso   1.00
C71    C     0.41941   0.11786   0.03290   0.00000  Uiso   1.00
C72    C     0.40063   0.16655   0.15478   0.00000  Uiso   1.00
C73    C     0.59937   0.16678   0.17855   0.00000  Uiso   1.00
C74    C     0.34559   0.16054   0.14949   0.00000  Uiso   1.00
C75    C     0.65441   0.17279   0.18385   0.00000  Uiso   1.00
C76    C     0.48566   0.01998   0.12579   0.00000  Uiso   1.00
C77    C     0.51434   0.31336   0.20755   0.00000  Uiso   1.00
C78    C     0.48401   0.31060   0.12624   0.00000  Uiso   1.00
H79    H     0.47436   0.03500   0.09398   0.00000  Uiso   1.00
H80    H     0.34409   0.09628   0.01529   0.00000  Uiso   1.00
H81    H     0.52564   0.29833   0.23935   0.00000  Uiso   1.00
H82    H     0.47089   0.29323   0.09483   0.00000  Uiso   1.00
H83    H     0.52911   0.04011   0.23851   0.00000  Uiso   1.00
H84    H     0.61547   0.07807   0.08971   0.00000  Uiso   1.00
H85    H     0.38450   0.25527   0.24364   0.00000  Uiso   1.00
H86    H     0.56782   0.29101   0.06912   0.00000  Uiso   1.00
H87    H     0.43222   0.04230   0.26426   0.00000  Uiso   1.00
H88    H     0.65593   0.23703   0.31804   0.00000  Uiso   1.00
N89    N     0.49999   0.16666   0.28573   0.00000  Uiso   1.00
N90    N     0.50001   0.16668   0.04760   0.00000  Uiso   1.00
O91    O     0.50000   0.10558   0.20487   0.00000  Uiso   1.00
O92    O     0.63228   0.09343   0.11867   0.00000  Uiso   1.00
O93    O     0.34918   0.18747   0.26100   0.00000  Uiso   1.00
O94    O     0.36769   0.23991   0.21467   0.00000  Uiso   1.00
O95    O     0.60070   0.22352   0.08391   0.00000  Uiso   1.00
O96    O     0.54479   0.26908   0.04937   0.00000  Uiso   1.00
O97    O     0.39935   0.10979   0.24940   0.00000  Uiso   1.00
O98    O     0.45523   0.06424   0.28402   0.00000  Uiso   1.00
O99    O     0.57548   0.23605   0.26649   0.00000  Uiso   1.00
O100   O     0.62952   0.21605   0.32795   0.00000  Uiso   1.00
O101   O     0.42452   0.09729   0.06684   0.00000  Uiso   1.00
O102   O     0.50000   0.22775   0.12846   0.00000  Uiso   1.00
O103   O     0.37049   0.11726   0.00538   0.00000  Uiso   1.00
O104   O     0.50000   0.10559   0.12843   0.00000  Uiso   1.00
O105   O     0.50000   0.22774   0.20490   0.00000  Uiso   1.00
O106   O     0.42392   0.16666   0.19595   0.00000  Uiso   1.00
O107   O     0.57608   0.16667   0.13739   0.00000  Uiso   1.00
O108   O     0.42392   0.16667   0.11950   0.00000  Uiso   1.00
O109   O     0.57608   0.16666   0.21383   0.00000  Uiso   1.00
O110   O     0.65085   0.14584   0.07234   0.00000  Uiso   1.00
Zn111  Zn    0.50000   0.16666   0.21771   0.00000  Uiso   1.00
Zn112  Zn    0.50000   0.16667   0.11563   0.00000  Uiso   1.00
C113   C     0.83377   0.08681   0.16648   0.00000  Uiso   1.00
C114   C     0.84933   0.02274   0.20709   0.00000  Uiso   1.00
C115   C     0.83224   0.29073   0.16703   0.00000  Uiso   1.00
C116   C     0.83443   0.04260   0.16630   0.00000  Uiso   1.00
C117   C     0.86648   0.19362   0.02923   0.00000  Uiso   1.00
C118   C     0.80020   0.13970   0.30410   0.00000  Uiso   1.00
C119   C     0.86863   0.19217   0.31520   0.00000  Uiso   1.00
C120   C     0.79804   0.14116   0.01813   0.00000  Uiso   1.00
C121   C     0.98721   0.13305   0.11077   0.00000  Uiso   1.00
C122   C     0.67946   0.20027   0.22257   0.00000  Uiso   1.00
C123   C     0.89461   0.22884   0.05706   0.00000  Uiso   1.00
C124   C     0.83289   0.24653   0.16686   0.00000  Uiso   1.00
C125   C     0.77208   0.10448   0.27628   0.00000  Uiso   1.00
C126   C     0.91393   0.21547   0.30043   0.00000  Uiso   1.00
C127   C     0.75274   0.11786   0.03290   0.00000  Uiso   1.00
C128   C     0.73396   0.16655   0.15478   0.00000  Uiso   1.00
C129   C     0.93271   0.16678   0.17855   0.00000  Uiso   1.00
C130   C     0.67892   0.16054   0.14949   0.00000  Uiso   1.00
C131   C     0.98774   0.17279   0.18385   0.00000  Uiso   1.00
C132   C     0.81899   0.01998   0.12579   0.00000  Uiso   1.00
C133   C     0.84768   0.31336   0.20755   0.00000  Uiso   1.00
C134   C     0.81734   0.31060   0.12624   0.00000  Uiso   1.00
H135   H     0.80770   0.03500   0.09398   0.00000  Uiso   1.00
H136   H     0.67742   0.09628   0.01529   0.00000  Uiso   1.00
H137   H     0.85897   0.29833   0.23935   0.00000  Uiso   1.00
H138   H     0.80423   0.29323   0.09483   0.00000  Uiso   1.00
H139   H     0.86244   0.04011   0.23851   0.00000  Uiso   1.00
H140   H     0.94880   0.07807   0.08971   0.00000  Uiso   1.00
H141   H     0.71784   0.25527   0.24364   0.00000  Uiso   1.00
H142   H     0.90115   0.29101   0.06912   0.00000  Uiso   1.00
H143   H     0.76555   0.04230   0.26426   0.00000  Uiso   1.00
H144   H     0.98926   0.23703   0.31804   0.00000  Uiso   1.00
N145   N     0.83332   0.16666   0.28573   0.00000  Uiso   1.00
N146   N     0.83335   0.16668   0.04760   0.00000  Uiso   1.00
O147   O     0.83333   0.10558   0.20487   0.00000  Uiso   1.00
O148   O     0.96561   0.09343   0.11867   0.00000  Uiso   1.00
O149   O     0.68252   0.18747   0.26100   0.00000  Uiso   1.00
O150   O     0.70102   0.23991   0.21467   0.00000  Uiso   1.00
O151   O     0.93403   0.22352   0.08391   0.00000  Uiso   1.00
O152   O     0.87812   0.26908   0.04937   0.00000  Uiso   1.00
O153   O     0.73268   0.10979   0.24940   0.00000  Uiso   1.00
O154   O     0.78856   0.06424   0.28402   0.00000  Uiso   1.00
O155   O     0.90882   0.23605   0.26649   0.00000  Uiso   1.00
O156   O     0.96285   0.21605   0.32795   0.00000  Uiso   1.00
O157   O     0.75785   0.09729   0.06684   0.00000  Uiso   1.00
O158   O     0.83334   0.22775   0.12846   0.00000  Uiso   1.00
O159   O     0.70382   0.11726   0.00538   0.00000  Uiso   1.00
O160   O     0.83333   0.10559   0.12843   0.00000  Uiso   1.00
O161   O     0.83334   0.22774   0.20490   0.00000  Uiso   1.00
O162   O     0.75725   0.16666   0.19595   0.00000  Uiso   1.00
O163   O     0.90942   0.16667   0.13739   0.00000  Uiso   1.00
O164   O     0.75725   0.16667   0.11950   0.00000  Uiso   1.00
O165   O     0.90942   0.16666   0.21383   0.00000  Uiso   1.00
O166   O     0.98418   0.14584   0.07234   0.00000  Uiso   1.00
Zn167  Zn    0.83333   0.16666   0.21771   0.00000  Uiso   1.00
Zn168  Zn    0.83333   0.16667   0.11563   0.00000  Uiso   1.00
C169   C     0.16711   0.42014   0.16648   0.00000  Uiso   1.00
C170   C     0.18266   0.35607   0.20709   0.00000  Uiso   1.00
C171   C     0.16557   0.62406   0.16703   0.00000  Uiso   1.00
C172   C     0.16776   0.37594   0.16630   0.00000  Uiso   1.00
C173   C     0.19981   0.52696   0.02923   0.00000  Uiso   1.00
C174   C     0.13353   0.47304   0.30410   0.00000  Uiso   1.00
C175   C     0.20197   0.52550   0.31520   0.00000  Uiso   1.00
C176   C     0.13137   0.47450   0.01813   0.00000  Uiso   1.00
C177   C     0.32054   0.46638   0.11077   0.00000  Uiso   1.00
C178   C     0.01279   0.53361   0.22257   0.00000  Uiso   1.00
C179   C     0.22794   0.56217   0.05706   0.00000  Uiso   1.00
C180   C     0.16623   0.57986   0.16686   0.00000  Uiso   1.00
C181   C     0.10542   0.43781   0.27628   0.00000  Uiso   1.00
C182   C     0.24726   0.54880   0.30043   0.00000  Uiso   1.00
C183   C     0.08607   0.45119   0.03290   0.00000  Uiso   1.00
C184   C     0.06729   0.49988   0.15478   0.00000  Uiso   1.00
C185   C     0.26604   0.50012   0.17855   0.00000  Uiso   1.00
C186   C     0.01226   0.49387   0.14949   0.00000  Uiso   1.00
C187   C     0.32108   0.50612   0.18385   0.00000  Uiso   1.00
C188   C     0.15232   0.35331   0.12579   0.00000  Uiso   1.00
C189   C     0.18101   0.64669   0.20755   0.00000  Uiso   1.00
C190   C     0.15067   0.64393   0.12624   0.00000  Uiso   1.00
H191   H     0.14103   0.36834   0.09398   0.00000  Uiso   1.00
H192   H     0.01075   0.42962   0.01529   0.00000  Uiso   1.00
H193   H     0.19231   0.63166   0.23935   0.00000  Uiso   1.00
H194   H     0.13756   0.62656   0.09483   0.00000  Uiso   1.00
H195   H     0.19577   0.37344   0.23851   0.00000  Uiso   1.00
H196   H     0.28213   0.41140   0.08971   0.00000  Uiso   1.00
H197   H     0.05117   0.58860   0.24364   0.00000  Uiso   1.00
H198   H     0.23449   0.62434   0.06912   0.00000  Uiso   1.00
H199   H     0.09888   0.37563   0.26426   0.00000  Uiso   1.00
H200   H     0.32259   0.57036   0.31804   0.00000  Uiso   1.00
N201   N     0.16665   0.49999   0.28573   0.00000  Uiso   1.00
N202   N     0.16668   0.50001   0.04760   0.00000  Uiso   1.00
O203   O     0.16666   0.43892   0.20487   0.00000  Uiso   1.00
O204   O     0.29895   0.42676   0.11867   0.00000  Uiso   1.00
O205   O     0.01585   0.52080   0.26100   0.00000  Uiso   1.00
O206   O     0.03435   0.57324   0.21467   0.00000  Uiso   1.00
O207   O     0.26736   0.55685   0.08391   0.00000  Uiso   1.00
O208   O     0.21146   0.60241   0.04937   0.00000  Uiso   1.00
O209   O     0.06602   0.44312   0.24940   0.00000  Uiso   1.00
O210   O     0.12190   0.39757   0.28402   0.00000  Uiso   1.00
O211   O     0.24215   0.56938   0.26649   0.00000  Uiso   1.00
O212   O     0.29618   0.54938   0.32795   0.00000  Uiso   1.00
O213   O     0.09119   0.43062   0.06684   0.00000  Uiso   1.00
O214   O     0.16667   0.56108   0.12846   0.00000  Uiso   1.00
O215   O     0.03716   0.45059   0.00538   0.00000  Uiso   1.00
O216   O     0.16666   0.43893   0.12843   0.00000  Uiso   1.00
O217   O     0.16667   0.56107   0.20490   0.00000  Uiso   1.00
O218   O     0.09058   0.50000   0.19595   0.00000  Uiso   1.00
O219   O     0.24275   0.50000   0.13739   0.00000  Uiso   1.00
O220   O     0.09058   0.50000   0.11950   0.00000  Uiso   1.00
O221   O     0.24275   0.50000   0.21383   0.00000  Uiso   1.00
O222   O     0.31751   0.47917   0.07234   0.00000  Uiso   1.00
Zn223  Zn    0.16667   0.49999   0.21771   0.00000  Uiso   1.00
Zn224  Zn    0.16667   0.50001   0.11563   0.00000  Uiso   1.00
C225   C     0.50044   0.42014   0.16648   0.00000  Uiso   1.00
C226   C     0.51599   0.35607   0.20709   0.00000  Uiso   1.00
C227   C     0.49890   0.62406   0.16703   0.00000  Uiso   1.00
C228   C     0.50110   0.37594   0.16630   0.00000  Uiso   1.00
C229   C     0.53314   0.52696   0.02923   0.00000  Uiso   1.00
C230   C     0.46686   0.47304   0.30410   0.00000  Uiso   1.00
C231   C     0.53530   0.52550   0.31520   0.00000  Uiso   1.00
C232   C     0.46470   0.47450   0.01813   0.00000  Uiso   1.00
C233   C     0.65387   0.46638   0.11077   0.00000  Uiso   1.00
C234   C     0.34613   0.53361   0.22257   0.00000  Uiso   1.00
C235   C     0.56128   0.56217   0.05706   0.00000  Uiso   1.00
C236   C     0.49956   0.57986   0.16686   0.00000  Uiso   1.00
C237   C     0.43875   0.43781   0.27628   0.00000  Uiso   1.00
C238   C     0.58060   0.54880   0.30043   0.00000  Uiso   1.00
C239   C     0.41941   0.45119   0.03290   0.00000  Uiso   1.00
C240   C     0.40063   0.49988   0.15478   0.00000  Uiso   1.00
C241   C     0.59937   0.50012   0.17855   0.00000  Uiso   1.00
C242   C     0.34559   0.49387   0.14949   0.00000  Uiso   1.00
C243   C     0.65441   0.50612   0.18385   0.00000  Uiso   1.00
C244   C     0.48566   0.35331   0.12579   0.00000  Uiso   1.00
C245   C     0.51434   0.64669   0.20755   0.00000  Uiso   1.00
C246   C     0.48401   0.64393   0.12624   0.00000  Uiso   1.00
H247   H     0.47436   0.36834   0.09398   0.00000  Uiso   1.00
H248   H     0.34409   0.42962   0.01529   0.00000  Uiso   1.00
H249   H     0.52564   0.63166   0.23935   0.00000  Uiso   1.00
H250   H     0.47089   0.62656   0.09483   0.00000  Uiso   1.00
H251   H     0.52911   0.37344   0.23851   0.00000  Uiso   1.00
H252   H     0.61547   0.41140   0.08971   0.00000  Uiso   1.00
H253   H     0.38450   0.58860   0.24364   0.00000  Uiso   1.00
H254   H     0.56782   0.62434   0.06912   0.00000  Uiso   1.00
H255   H     0.43222   0.37563   0.26426   0.00000  Uiso   1.00
H256   H     0.65593   0.57036   0.31804   0.00000  Uiso   1.00
N257   N     0.49999   0.49999   0.28573   0.00000  Uiso   1.00
N258   N     0.50001   0.50001   0.04760   0.00000  Uiso   1.00
O259   O     0.50000   0.43892   0.20487   0.00000  Uiso   1.00
O260   O     0.63228   0.42676   0.11867   0.00000  Uiso   1.00
O261   O     0.34918   0.52080   0.26100   0.00000  Uiso   1.00
O262   O     0.36769   0.57324   0.21467   0.00000  Uiso   1.00
O263   O     0.60070   0.55685   0.08391   0.00000  Uiso   1.00
O264   O     0.54479   0.60241   0.04937   0.00000  Uiso   1.00
O265   O     0.39935   0.44312   0.24940   0.00000  Uiso   1.00
O266   O     0.45523   0.39757   0.28402   0.00000  Uiso   1.00
O267   O     0.57548   0.56938   0.26649   0.00000  Uiso   1.00
O268   O     0.62952   0.54938   0.32795   0.00000  Uiso   1.00
O269   O     0.42452   0.43062   0.06684   0.00000  Uiso   1.00
O270   O     0.50000   0.56108   0.12846   0.00000  Uiso   1.00
O271   O     0.37049   0.45059   0.00538   0.00000  Uiso   1.00
O272   O     0.50000   0.43893   0.12843   0.00000  Uiso   1.00
O273   O     0.50000   0.56107   0.20490   0.00000  Uiso   1.00
O274   O     0.42392   0.50000   0.19595   0.00000  Uiso   1.00
O275   O     0.57608   0.50000   0.13739   0.00000  Uiso   1.00
O276   O     0.42392   0.50000   0.11950   0.00000  Uiso   1.00
O277   O     0.57608   0.50000   0.21383   0.00000  Uiso   1.00
O278   O     0.65085   0.47917   0.07234   0.00000  Uiso   1.00
Zn279  Zn    0.50000   0.49999   0.21771   0.00000  Uiso   1.00
Zn280  Zn    0.50000   0.50001   0.11563   0.00000  Uiso   1.00
C281   C     0.83377   0.42014   0.16648   0.00000  Uiso   1.00
C282   C     0.84933   0.35607   0.20709   0.00000  Uiso   1.00
C283   C     0.83224   0.62406   0.16703   0.00000  Uiso   1.00
C284   C     0.83443   0.37594   0.16630   0.00000  Uiso   1.00
C285   C     0.86648   0.52696   0.02923   0.00000  Uiso   1.00
C286   C     0.80020   0.47304   0.30410   0.00000  Uiso   1.00
C287   C     0.86863   0.52550   0.31520   0.00000  Uiso   1.00
C288   C     0.79804   0.47450   0.01813   0.00000  Uiso   1.00
C289   C     0.98721   0.46638   0.11077   0.00000  Uiso   1.00
C290   C     0.67946   0.53361   0.22257   0.00000  Uiso   1.00
C291   C     0.89461   0.56217   0.05706   0.00000  Uiso   1.00
C292   C     0.83289   0.57986   0.16686   0.00000  Uiso   1.00
C293   C     0.77208   0.43781   0.27628   0.00000  Uiso   1.00
C294   C     0.91393   0.54880   0.30043   0.00000  Uiso   1.00
C295   C     0.75274   0.45119   0.03290   0.00000  Uiso   1.00
C296   C     0.73396   0.49988   0.15478   0.00000  Uiso   1.00
C297   C     0.93271   0.50012   0.17855   0.00000  Uiso   1.00
C298   C     0.67892   0.49387   0.14949   0.00000  Uiso   1.00
C299   C     0.98774   0.50612   0.18385   0.00000  Uiso   1.00
C300   C     0.81899   0.35331   0.12579   0.00000  Uiso   1.00
C301   C     0.84768   0.64669   0.20755   0.00000  Uiso   1.00
C302   C     0.81734   0.64393   0.12624   0.00000  Uiso   1.00
H303   H     0.80770   0.36834   0.09398   0.00000  Uiso   1.00
H304   H     0.67742   0.42962   0.01529   0.00000  Uiso   1.00
H305   H     0.85897   0.63166   0.23935   0.00000  Uiso   1.00
H306   H     0.80423   0.62656   0.09483   0.00000  Uiso   1.00
H307   H     0.86244   0.37344   0.23851   0.00000  Uiso   1.00
H308   H     0.94880   0.41140   0.08971   0.00000  Uiso   1.00
H309   H     0.71784   0.58860   0.24364   0.00000  Uiso   1.00
H310   H     0.90115   0.62434   0.06912   0.00000  Uiso   1.00
H311   H     0.76555   0.37563   0.26426   0.00000  Uiso   1.00
H312   H     0.98926   0.57036   0.31804   0.00000  Uiso   1.00
N313   N     0.83332   0.49999   0.28573   0.00000  Uiso   1.00
N314   N     0.83335   0.50001   0.04760   0.00000  Uiso   1.00
O315   O     0.83333   0.43892   0.20487   0.00000  Uiso   1.00
O316   O     0.96561   0.42676   0.11867   0.00000  Uiso   1.00
O317   O     0.68252   0.52080   0.26100   0.00000  Uiso   1.00
O318   O     0.70102   0.57324   0.21467   0.00000  Uiso   1.00
O319   O     0.93403   0.55685   0.08391   0.00000  Uiso   1.00
O320   O     0.87812   0.60241   0.04937   0.00000  Uiso   1.00
O321   O     0.73268   0.44312   0.24940   0.00000  Uiso   1.00
O322   O     0.78856   0.39757   0.28402   0.00000  Uiso   1.00
O323   O     0.90882   0.56938   0.26649   0.00000  Uiso   1.00
O324   O     0.96285   0.54938   0.32795   0.00000  Uiso   1.00
O325   O     0.75785   0.43062   0.06684   0.00000  Uiso   1.00
O326   O     0.83334   0.56108   0.12846   0.00000  Uiso   1.00
O327   O     0.70382   0.45059   0.00538   0.00000  Uiso   1.00
O328   O     0.83333   0.43893   0.12843   0.00000  Uiso   1.00
O329   O     0.83334   0.56107   0.20490   0.00000  Uiso   1.00
O330   O     0.75725   0.50000   0.19595   0.00000  Uiso   1.00
O331   O     0.90942   0.50000   0.13739   0.00000  Uiso   1.00
O332   O     0.75725   0.50000   0.11950   0.00000  Uiso   1.00
O333   O     0.90942   0.50000   0.21383   0.00000  Uiso   1.00
O334   O     0.98418   0.47917   0.07234   0.00000  Uiso   1.00
Zn335  Zn    0.83333   0.49999   0.21771   0.00000  Uiso   1.00
Zn336  Zn    0.83333   0.50001   0.11563   0.00000  Uiso   1.00
C337   C     0.16711   0.75347   0.16648   0.00000  Uiso   1.00
C338   C     0.18266   0.68940   0.20709   0.00000  Uiso   1.00
C339   C     0.16557   0.95740   0.16703   0.00000  Uiso   1.00
C340   C     0.16776   0.70927   0.16630   0.00000  Uiso   1.00
C341   C     0.19981   0.86029   0.02923   0.00000  Uiso   1.00
C342   C     0.13353   0.80637   0.30410   0.00000  Uiso   1.00
C343   C     0.20197   0.85884   0.31520   0.00000  Uiso   1.00
C344   C     0.13137   0.80783   0.01813   0.00000  Uiso   1.00
C345   C     0.32054   0.79972   0.11077   0.00000  Uiso   1.00
C346   C     0.01279   0.86694   0.22257   0.00000  Uiso   1.00
C347   C     0.22794   0.89550   0.05706   0.00000  Uiso   1.00
C348   C     0.16623   0.91319   0.16686   0.00000  Uiso   1.00
C349   C     0.10542   0.77115   0.27628   0.00000  Uiso   1.00
C350   C     0.24726   0.88214   0.30043   0.00000  Uiso   1.00
C351   C     0.08607   0.78452   0.03290   0.00000  Uiso   1.00
C352   C     0.06729   0.83321   0.15478   0.00000  Uiso   1.00
C353   C     0.26604   0.83345   0.17855   0.00000  Uiso   1.00
C354   C     0.01226   0.82721   0.14949   0.00000  Uiso   1.00
C355   C     0.32108   0.83945   0.18385   0.00000  Uiso   1.00
C356   C     0.15232   0.68664   0.12579   0.00000  Uiso   1.00
C357   C     0.18101   0.98002   0.20755   0.00000  Uiso   1.00
C358   C     0.15067   0.97726   0.12624   0.00000  Uiso   1.00
H359   H     0.14103   0.70167   0.09398   0.00000  Uiso   1.00
H360   H     0.01075   0.76295   0.01529   0.00000  Uiso   1.00
H361   H     0.19231   0.96500   0.23935   0.00000  Uiso   1.00
H362   H     0.13756   0.95989   0.09483   0.00000  Uiso   1.00
H363   H     0.19577   0.70677   0.23851   0.00000  Uiso   1.00
H364   H     0.28213   0.74473   0.08971   0.00000  Uiso   1.00
H365   H     0.05117   0.92193   0.24364   0.00000  Uiso   1.00
H366   H     0.23449   0.95767   0.06912   0.00000  Uiso   1.00
H367   H     0.09888   0.70897   0.26426   0.00000  Uiso   1.00
H368   H     0.32259   0.90369   0.31804   0.00000  Uiso   1.00
N369   N     0.16665   0.83332   0.28573   0.00000  Uiso   1.00
N370   N     0.16668   0.83334   0.04760   0.00000  Uiso   1.00
O371   O     0.16666   0.77225   0.20487   0.00000  Uiso   1.00
O372   O     0.29895   0.76009   0.11867   0.00000  Uiso   1.00
O373   O     0.01585   0.85414   0.26100   0.00000  Uiso   1.00
O374   O     0.03435   0.90658   0.21467   0.00000  Uiso   1.00
O375   O     0.26736   0.89018   0.08391   0.00000  Uiso   1.00
O376   O     0.21146   0.93575   0.04937   0.00000  Uiso   1.00
O377   O     0.06602   0.77645   0.24940   0.00000  Uiso   1.00
O378   O     0.12190   0.73090   0.28402   0.00000  Uiso   1.00
O379   O     0.24215   0.90271   0.26649   0.00000  Uiso   1.00
O380   O     0.29618   0.88272   0.32795   0.00000  Uiso   1.00
O381   O     0.09119   0.76395   0.06684   0.00000  Uiso   1.00
O382   O     0.16667   0.89442   0.12846   0.00000  Uiso   1.00
O383   O     0.03716   0.78393   0.00538   0.00000  Uiso   1.00
O384   O     0.16666   0.77226   0.12843   0.00000  Uiso   1.00
O385   O     0.16667   0.89441   0.20490   0.00000  Uiso   1.00
O386   O     0.09058   0.83333   0.19595   0.00000  Uiso   1.00
O387   O     0.24275   0.83334   0.13739   0.00000  Uiso   1.00
O388   O     0.09058   0.83334   0.11950   0.00000  Uiso   1.00
O389   O     0.24275   0.83333   0.21383   0.00000  Uiso   1.00
O390   O     0.31751   0.81250   0.07234   0.00000  Uiso   1.00
Zn391  Zn    0.16667   0.83333   0.21771   0.00000  Uiso   1.00
Zn392  Zn    0.16667   0.83334   0.11563   0.00000  Uiso   1.00
C393   C     0.50044   0.75347   0.16648   0.00000  Uiso   1.00
C394   C     0.51599   0.68940   0.20709   0.00000  Uiso   1.00
C395   C     0.49890   0.95740   0.16703   0.00000  Uiso   1.00
C396   C     0.50110   0.70927   0.16630   0.00000  Uiso   1.00
C397   C     0.53314   0.86029   0.02923   0.00000  Uiso   1.00
C398   C     0.46686   0.80637   0.30410   0.00000  Uiso   1.00
C399   C     0.53530   0.85884   0.31520   0.00000  Uiso   1.00
C400   C     0.46470   0.80783   0.01813   0.00000  Uiso   1.00
C401   C     0.65387   0.79972   0.11077   0.00000  Uiso   1.00
C402   C     0.34613   0.86694   0.22257   0.00000  Uiso   1.00
C403   C     0.56128   0.89550   0.05706   0.00000  Uiso   1.00
C404   C     0.49956   0.91319   0.16686   0.00000  Uiso   1.00
C405   C     0.43875   0.77115   0.27628   0.00000  Uiso   1.00
C406   C     0.58060   0.88214   0.30043   0.00000  Uiso   1.00
C407   C     0.41941   0.78452   0.03290   0.00000  Uiso   1.00
C408   C     0.40063   0.83321   0.15478   0.00000  Uiso   1.00
C409   C     0.59937   0.83345   0.17855   0.00000  Uiso   1.00
C410   C     0.34559   0.82721   0.14949   0.00000  Uiso   1.00
C411   C     0.65441   0.83945   0.18385   0.00000  Uiso   1.00
C412   C     0.48566   0.68664   0.12579   0.00000  Uiso   1.00
C413   C     0.51434   0.98002   0.20755   0.00000  Uiso   1.00
C414   C     0.48401   0.97726   0.12624   0.00000  Uiso   1.00
H415   H     0.47436   0.70167   0.09398   0.00000  Uiso   1.00
H416   H     0.34409   0.76295   0.01529   0.00000  Uiso   1.00
H417   H     0.52564   0.96500   0.23935   0.00000  Uiso   1.00
H418   H     0.47089   0.95989   0.09483   0.00000  Uiso   1.00
H419   H     0.52911   0.70677   0.23851   0.00000  Uiso   1.00
H420   H     0.61547   0.74473   0.08971   0.00000  Uiso   1.00
H421   H     0.38450   0.92193   0.24364   0.00000  Uiso   1.00
H422   H     0.56782   0.95767   0.06912   0.00000  Uiso   1.00
H423   H     0.43222   0.70897   0.26426   0.00000  Uiso   1.00
H424   H     0.65593   0.90369   0.31804   0.00000  Uiso   1.00
N425   N     0.49999   0.83332   0.28573   0.00000  Uiso   1.00
N426   N     0.50001   0.83334   0.04760   0.00000  Uiso   1.00
O427   O     0.50000   0.77225   0.20487   0.00000  Uiso   1.00
O428   O     0.63228   0.76009   0.11867   0.00000  Uiso   1.00
O429   O     0.34918   0.85414   0.26100   0.00000  Uiso   1.00
O430   O     0.36769   0.90658   0.21467   0.00000  Uiso   1.00
O431   O     0.60070   0.89018   0.08391   0.00000  Uiso   1.00
O432   O     0.54479   0.93575   0.04937   0.00000  Uiso   1.00
O433   O     0.39935   0.77645   0.24940   0.00000  Uiso   1.00
O434   O     0.45523   0.73090   0.28402   0.00000  Uiso   1.00
O435   O     0.57548   0.90271   0.26649   0.00000  Uiso   1.00
O436   O     0.62952   0.88272   0.32795   0.00000  Uiso   1.00
O437   O     0.42452   0.76395   0.06684   0.00000  Uiso   1.00
O438   O     0.50000   0.89442   0.12846   0.00000  Uiso   1.00
O439   O     0.37049   0.78393   0.00538   0.00000  Uiso   1.00
O440   O     0.50000   0.77226   0.12843   0.00000  Uiso   1.00
O441   O     0.50000   0.89441   0.20490   0.00000  Uiso   1.00
O442   O     0.42392   0.83333   0.19595   0.00000  Uiso   1.00
O443   O     0.57608   0.83334   0.13739   0.00000  Uiso   1.00
O444   O     0.42392   0.83334   0.11950   0.00000  Uiso   1.00
O445   O     0.57608   0.83333   0.21383   0.00000  Uiso   1.00
O446   O     0.65085   0.81250   0.07234   0.00000  Uiso   1.00
Zn447  Zn    0.50000   0.83333   0.21771   0.00000  Uiso   1.00
Zn448  Zn    0.50000   0.83334   0.11563   0.00000  Uiso   1.00
C449   C     0.83377   0.75347   0.16648   0.00000  Uiso   1.00
C450   C     0.84933   0.68940   0.20709   0.00000  Uiso   1.00
C451   C     0.83224   0.95740   0.16703   0.00000  Uiso   1.00
C452   C     0.83443   0.70927   0.16630   0.00000  Uiso   1.00
C453   C     0.86648   0.86029   0.02923   0.00000  Uiso   1.00
C454   C     0.80020   0.80637   0.30410   0.00000  Uiso   1.00
C455   C     0.86863   0.85884   0.31520   0.00000  Uiso   1.00
C456   C     0.79804   0.80783   0.01813   0.00000  Uiso   1.00
C457   C     0.98721   0.79972   0.11077   0.00000  Uiso   1.00
C458   C     0.67946   0.86694   0.22257   0.00000  Uiso   1.00
C459   C     0.89461   0.89550   0.05706   0.00000  Uiso   1.00
C460   C     0.83289   0.91319   0.16686   0.00000  Uiso   1.00
C461   C     0.77208   0.77115   0.27628   0.00000  Uiso   1.00
C462   C     0.91393   0.88214   0.30043   0.00000  Uiso   1.00
C463   C     0.75274   0.78452   0.03290   0.00000  Uiso   1.00
C464   C     0.73396   0.83321   0.15478   0.00000  Uiso   1.00
C465   C     0.93271   0.83345   0.17855   0.00000  Uiso   1.00
C466   C     0.67892   0.82721   0.14949   0.00000  Uiso   1.00
C467   C     0.98774   0.83945   0.18385   0.00000  Uiso   1.00
C468   C     0.81899   0.68664   0.12579   0.00000  Uiso   1.00
C469   C     0.84768   0.98002   0.20755   0.00000  Uiso   1.00
C470   C     0.81734   0.97726   0.12624   0.00000  Uiso   1.00
H471   H     0.80770   0.70167   0.09398   0.00000  Uiso   1.00
H472   H     0.67742   0.76295   0.01529   0.00000  Uiso   1.00
H473   H     0.85897   0.96500   0.23935   0.00000  Uiso   1.00
H474   H     0.80423   0.95989   0.09483   0.00000  Uiso   1.00
H475   H     0.86244   0.70677   0.23851   0.00000  Uiso   1.00
H476   H     0.94880   0.74473   0.08971   0.00000  Uiso   1.00
H477   H     0.71784   0.92193   0.24364   0.00000  Uiso   1.00
H478   H     0.90115   0.95767   0.06912   0.00000  Uiso   1.00
H479   H     0.76555   0.70897   0.26426   0.00000  Uiso   1.00
H480   H     0.98926   0.90369   0.31804   0.00000  Uiso   1.00
N481   N     0.83332   0.83332   0.28573   0.00000  Uiso   1.00
N482   N     0.83335   0.83334   0.04760   0.00000  Uiso   1.00
O483   O     0.83333   0.77225   0.20487   0.00000  Uiso   1.00
O484   O     0.96561   0.76009   0.11867   0.00000  Uiso   1.00
O485   O     0.68252   0.85414   0.26100   0.00000  Uiso   1.00
O486   O     0.70102   0.90658   0.21467   0.00000  Uiso   1.00
O487   O     0.93403   0.89018   0.08391   0.00000  Uiso   1.00
O488   O     0.87812   0.93575   0.04937   0.00000  Uiso   1.00
O489   O     0.73268   0.77645   0.24940   0.00000  Uiso   1.00
O490   O     0.78856   0.73090   0.28402   0.00000  Uiso   1.00
O491   O     0.90882   0.90271   0.26649   0.00000  Uiso   1.00
O492   O     0.96285   0.88272   0.32795   0.00000  Uiso   1.00
O493   O     0.75785   0.76395   0.06684   0.00000  Uiso   1.00
O494   O     0.83334   0.89442   0.12846   0.00000  Uiso   1.00
O495   O     0.70382   0.78393   0.00538   0.00000  Uiso   1.00
O496   O     0.83333   0.77226   0.12843   0.00000  Uiso   1.00
O497   O     0.83334   0.89441   0.20490   0.00000  Uiso   1.00
O498   O     0.75725   0.83333   0.19595   0.00000  Uiso   1.00
O499   O     0.90942   0.83334   0.13739   0.00000  Uiso   1.00
O500   O     0.75725   0.83334   0.11950   0.00000  Uiso   1.00
O501   O     0.90942   0.83333   0.21383   0.00000  Uiso   1.00
O502   O     0.98418   0.81250   0.07234   0.00000  Uiso   1.00
Zn503  Zn    0.83333   0.83333   0.21771   0.00000  Uiso   1.00
Zn504  Zn    0.83333   0.83334   0.11563   0.00000  Uiso   1.00
C505   C     0.16711   0.08681   0.49981   0.00000  Uiso   1.00
C506   C     0.18266   0.02274   0.54043   0.00000  Uiso   1.00
C507   C     0.16557   0.29073   0.50037   0.00000  Uiso   1.00
C508   C     0.16776   0.04260   0.49963   0.00000  Uiso   1.00
C509   C     0.19981   0.19362   0.36256   0.00000  Uiso   1.00
C510   C     0.13353   0.13970   0.63744   0.00000  Uiso   1.00
C511   C     0.20197   0.19217   0.64854   0.00000  Uiso   1.00
C512   C     0.13137   0.14116   0.35146   0.00000  Uiso   1.00
C513   C     0.32054   0.13305   0.44410   0.00000  Uiso   1.00
C514   C     0.01279   0.20027   0.55590   0.00000  Uiso   1.00
C515   C     0.22794   0.22884   0.39039   0.00000  Uiso   1.00
C516   C     0.16623   0.24653   0.50019   0.00000  Uiso   1.00
C517   C     0.10542   0.10448   0.60961   0.00000  Uiso   1.00
C518   C     0.24726   0.21547   0.63376   0.00000  Uiso   1.00
C519   C     0.08607   0.11786   0.36624   0.00000  Uiso   1.00
C520   C     0.06729   0.16655   0.48812   0.00000  Uiso   1.00
C521   C     0.26604   0.16678   0.51188   0.00000  Uiso   1.00
C522   C     0.01226   0.16054   0.48282   0.00000  Uiso   1.00
C523   C     0.32108   0.17279   0.51718   0.00000  Uiso   1.00
C524   C     0.15232   0.01998   0.45912   0.00000  Uiso   1.00
C525   C     0.18101   0.31336   0.54088   0.00000  Uiso   1.00
C526   C     0.15067   0.31060   0.45957   0.00000  Uiso   1.00
H527   H     0.14103   0.03500   0.42731   0.00000  Uiso   1.00
H528   H     0.01075   0.09628   0.34862   0.00000  Uiso   1.00
H529   H     0.19231   0.29833   0.57269   0.00000  Uiso   1.00
H530   H     0.13756   0.29323   0.42816   0.00000  Uiso   1.00
H531   H     0.19577   0.04011   0.57184   0.00000  Uiso   1.00
H532   H     0.28213   0.07807   0.42305   0.00000  Uiso   1.00
H533   H     0.05117   0.25527   0.57697   0.00000  Uiso   1.00
H534   H     0.23449   0.29101   0.40246   0.00000  Uiso   1.00
H535   H     0.09888   0.04230   0.59760   0.00000  Uiso   1.00
H536   H     0.32259   0.23703   0.65137   0.00000  Uiso   1.00
N537   N     0.16665   0.16666   0.61907   0.00000  Uiso   1.00
N538   N     0.16668   0.16668   0.38093   0.00000  Uiso   1.00
O539   O     0.16666   0.10558   0.53821   0.00000  Uiso   1.00
O540   O     0.29895   0.09343   0.45201   0.00000  Uiso   1.00
O541   O     0.01585   0.18747   0.59433   0.00000  Uiso   1.00
O542   O     0.03435   0.23991   0.54801   0.00000  Uiso   1.00
O543   O     0.26736   0.22352   0.41725   0.00000  Uiso   1.00
O544   O     0.21146   0.26908   0.38270   0.00000  Uiso   1.00
O545   O     0.06602   0.10979   0.58273   0.00000  Uiso   1.00
O546   O     0.12190   0.06424   0.61735   0.00000  Uiso   1.00
O547   O     0.24215   0.23605   0.59983   0.00000  Uiso   1.00
O548   O     0.29618   0.21605   0.66128   0.00000  Uiso   1.00
O549   O     0.09119   0.09729   0.40018   0.00000  Uiso   1.00
O550   O     0.16667   0.22775   0.46179   0.00000  Uiso   1.00
O551   O     0.03716   0.11726   0.33871   0.00000  Uiso   1.00
O552   O     0.16666   0.10559   0.46176   0.00000  Uiso   1.00
O553   O     0.16667   0.22774   0.53824   0.00000  Uiso   1.00
O554   O     0.09058   0.16666   0.52928   0.00000  Uiso   1.00
O555   O     0.24275   0.16667   0.47072   0.00000  Uiso   1.00
O556   O     0.09058   0.16667   0.45284   0.00000  Uiso   1.00
O557   O     0.24275   0.16666   0.54716   0.00000  Uiso   1.00
O558   O     0.31751   0.14584   0.40567   0.00000  Uiso   1.00
Zn559  Zn    0.16667   0.16666   0.55104   0.00000  Uiso   1.00
Zn560  Zn    0.16667   0.16667   0.44896   0.00000  Uiso   1.00
C561   C     0.50044   0.08681   0.49981   0.00000  Uiso   1.00
C562   C     0.51599   0.02274   0.54043   0.00000  Uiso   1.00
C563   C     0.49890   0.29073   0.50037   0.00000  Uiso   1.00
C564   C     0.50110   0.04260   0.49963   0.00000  Uiso   1.00
C565   C     0.53314   0.19362   0.36256   0.00000  Uiso   1.00
C566   C     0.46686   0.13970   0.63744   0.00000  Uiso   1.00
C567   C     0.53530   0.19217   0.64854   0.00000  Uiso   1.00
C568   C     0.46470   0.14116   0.35146   0.00000  Uiso   1.00
C569   C     0.65387   0.13305   0.44410   0.00000  Uiso   1.00
C570   C     0.34613   0.20027   0.55590   0.00000  Uiso   1.00
C571   C     0.56128   0.22884   0.39039   0.00000  Uiso   1.00
C572   C     0.49956   0.24653   0.50019   0.00000  Uiso   1.00
C573   C     0.43875   0.10448   0.60961   0.00000  Uiso   1.00
C574   C     0.58060   0.21547   0.63376   0.00000  Uiso   1.00
C575   C     0.41941   0.11786   0.36624   0.00000  Uiso   1.00
C576   C     0.40063   0.16655   0.48812   0.00000  Uiso   1.00
C577   C     0.59937   0.16678   0.51188   0.00000  Uiso   1.00
C578   C     0.34559   0.16054   0.48282   0.00000  Uiso   1.00
C579   C     0.65441   0.17279   0.51718   0.00000  Uiso   1.00
C580   C     0.48566   0.01998   0.45912   0.00000  Uiso   1.00
C581   C     0.51434   0.31336   0.54088   0.00000  Uiso   1.00
C582   C     0.48401   0.31060   0.45957   0.00000  Uiso   1.00
H583   H     0.47436   0.03500   0.42731   0.00000  Uiso   1.00
H584   H     0.34409   0.09628   0.34862   0.00000  Uiso   1.00
H585   H     0.52564   0.29833   0.57269   0.00000  Uiso   1.00
H586   H     0.47089   0.29323   0.42816   0.00000  Uiso   1.00
H587   H     0.52911   0.04011   0.57184   0.00000  Uiso   1.00
H588   H     0.61547   0.07807   0.42305   0.00000  Uiso   1.00
H589   H     0.38450   0.25527   0.57697   0.00000  Uiso   1.00
H590   H     0.56782   0.29101   0.40246   0.00000  Uiso   1.00
H591   H     0.43222   0.04230   0.59760   0.00000  Uiso   1.00
H592   H     0.65593   0.23703   0.65137   0.00000  Uiso   1.00
N593   N     0.49999   0.16666   0.61907   0.00000  Uiso   1.00
N594   N     0.50001   0.16668   0.38093   0.00000  Uiso   1.00
O595   O     0.50000   0.10558   0.53821   0.00000  Uiso   1.00
O596   O     0.63228   0.09343   0.45201   0.00000  Uiso   1.00
O597   O     0.34918   0.18747   0.59433   0.00000  Uiso   1.00
O598   O     0.36769   0.23991   0.54801   0.00000  Uiso   1.00
O599   O     0.60070   0.22352   0.41725   0.00000  Uiso   1.00
O600   O     0.54479   0.26908   0.38270   0.00000  Uiso   1.00
O601   O     0.39935   0.10979   0.58273   0.00000  Uiso   1.00
O602   O     0.45523   0.06424   0.61735   0.00000  Uiso   1.00
O603   O     0.57548   0.23605   0.59983   0.00000  Uiso   1.00
O604   O     0.62952   0.21605   0.66128   0.00000  Uiso   1.00
O605   O     0.42452   0.09729   0.40018   0.00000  Uiso   1.00
O606   O     0.50000   0.22775   0.46179   0.00000  Uiso   1.00
O607   O     0.37049   0.11726   0.33871   0.00000  Uiso   1.00
O608   O     0.50000   0.10559   0.46176   0.00000  Uiso   1.00
O609   O     0.50000   0.22774   0.53824   0.00000  Uiso   1.00
O610   O     0.42392   0.16666   0.52928   0.00000  Uiso   1.00
O611   O     0.57608   0.16667   0.47072   0.00000  Uiso   1.00
O612   O     0.42392   0.16667   0.45284   0.00000  Uiso   1.00
O613   O     0.57608   0.16666   0.54716   0.00000  Uiso   1.00
O614   O     0.65085   0.14584   0.40567   0.00000  Uiso   1.00
Zn615  Zn    0.50000   0.16666   0.55104   0.00000  Uiso   1.00
Zn616  Zn    0.50000   0.16667   0.44896   0.00000  Uiso   1.00
C617   C     0.83377   0.08681   0.49981   0.00000  Uiso   1.00
C618   C     0.84933   0.02274   0.54043   0.00000  Uiso   1.00
C619   C     0.83224   0.29073   0.50037   0.00000  Uiso   1.00
C620   C     0.83443   0.04260   0.49963   0.00000  Uiso   1.00
C621   C     0.86648   0.19362   0.36256   0.00000  Uiso   1.00
C622   C     0.80020   0.13970   0.63744   0.00000  Uiso   1.00
C623   C     0.86863   0.19217   0.64854   0.00000  Uiso   1.00
C624   C     0.79804   0.14116   0.35146   0.00000  Uiso   1.00
C625   C     0.98721   0.13305   0.44410   0.00000  Uiso   1.00
C626   C     0.67946   0.20027   0.55590   0.00000  Uiso   1.00
C627   C     0.89461   0.22884   0.39039   0.00000  Uiso   1.00
C628   C     0.83289   0.24653   0.50019   0.00000  Uiso   1.00
C629   C     0.77208   0.10448   0.60961   0.00000  Uiso   1.00
C630   C     0.91393   0.21547   0.63376   0.00000  Uiso   1.00
C631   C     0.75274   0.11786   0.36624   0.00000  Uiso   1.00
C632   C     0.73396   0.16655   0.48812   0.00000  Uiso   1.00
C633   C     0.93271   0.16678   0.51188   0.00000  Uiso   1.00
C634   C     0.67892   0.16054   0.48282   0.00000  Uiso   1.00
C635   C     0.98774   0.17279   0.51718   0.00000  Uiso   1.00
C636   C     0.81899   0.01998   0.45912   0.00000  Uiso   1.00
C637   C     0.84768   0.31336   0.54088   0.00000  Uiso   1.00
C638   C     0.81734   0.31060   0.45957   0.00000  Uiso   1.00
H639   H     0.80770   0.03500   0.42731   0.00000  Uiso   1.00
H640   H     0.67742   0.09628   0.34862   0.00000  Uiso   1.00
H641   H     0.85897   0.29833   0.57269   0.00000  Uiso   1.00
H642   H     0.80423   0.29323   0.42816   0.00000  Uiso   1.00
H643   H     0.86244   0.04011   0.57184   0.00000  Uiso   1.00
H644   H     0.94880   0.07807   0.42305   0.00000  Uiso   1.00
H645   H     0.71784   0.25527   0.57697   0.00000  Uiso   1.00
H646   H     0.90115   0.29101   0.40246   0.00000  Uiso   1.00
H647   H     0.76555   0.04230   0.59760   0.00000  Uiso   1.00
H648   H     0.98926   0.23703   0.65137   0.00000  Uiso   1.00
N649   N     0.83332   0.16666   0.61907   0.00000  Uiso   1.00
N650   N     0.83335   0.16668   0.38093   0.00000  Uiso   1.00
O651   O     0.83333   0.10558   0.53821   0.00000  Uiso   1.00
O652   O     0.96561   0.09343   0.45201   0.00000  Uiso   1.00
O653   O     0.68252   0.18747   0.59433   0.00000  Uiso   1.00
O654   O     0.70102   0.23991   0.54801   0.00000  Uiso   1.00
O655   O     0.93403   0.22352   0.41725   0.00000  Uiso   1.00
O656   O     0.87812   0.26908   0.38270   0.00000  Uiso   1.00
O657   O     0.73268   0.10979   0.58273   0.00000  Uiso   1.00
O658   O     0.78856   0.06424   0.61735   0.00000  Uiso   1.00
O659   O     0.90882   0.23605   0.59983   0.00000  Uiso   1.00
O660   O     0.96285   0.21605   0.66128   0.00000  Uiso   1.00
O661   O     0.75785   0.09729   0.40018   0.00000  Uiso   1.00
O662   O     0.83334   0.22775   0.46179   0.00000  Uiso   1.00
O663   O     0.70382   0.11726   0.33871   0.00000  Uiso   1.00
O664   O     0.83333   0.10559   0.46176   0.00000  Uiso   1.00
O665   O     0.83334   0.22774   0.53824   0.00000  Uiso   1.00
O666   O     0.75725   0.16666   0.52928   0.00000  Uiso   1.00
O667   O     0.90942   0.16667   0.47072   0.00000  Uiso   1.00
O668   O     0.75725   0.16667   0.45284   0.00000  Uiso   1.00
O669   O     0.90942   0.16666   0.54716   0.00000  Uiso   1.00
O670   O     0.98418   0.14584   0.40567   0.00000  Uiso   1.00
Zn671  Zn    0.83333   0.16666   0.55104   0.00000  Uiso   1.00
Zn672  Zn    0.83333   0.16667   0.44896   0.00000  Uiso   1.00
C673   C     0.16711   0.42014   0.49981   0.00000  Uiso   1.00
C674   C     0.18266   0.35607   0.54043   0.00000  Uiso   1.00
C675   C     0.16557   0.62406   0.50037   0.00000  Uiso   1.00
C676   C     0.16776   0.37594   0.49963   0.00000  Uiso   1.00
C677   C     0.19981   0.52696   0.36256   0.00000  Uiso   1.00
C678   C     0.13353   0.47304   0.63744   0.00000  Uiso   1.00
C679   C     0.20197   0.52550   0.64854   0.00000  Uiso   1.00
C680   C     0.13137   0.47450   0.35146   0.00000  Uiso   1.00
C681   C     0.32054   0.46638   0.44410   0.00000  Uiso   1.00
C682   C     0.01279   0.53361   0.55590   0.00000  Uiso   1.00
C683   C     0.22794   0.56217   0.39039   0.00000  Uiso   1.00
C684   C     0.16623   0.57986   0.50019   0.00000  Uiso   1.00
C685   C     0.10542   0.43781   0.60961   0.00000  Uiso   1.00
C686   C     0.24726   0.54880   0.63376   0.00000  Uiso   1.00
C687   C     0.08607   0.45119   0.36624   0.00000  Uiso   1.00
C688   C     0.06729   0.49988   0.48812   0.00000  Uiso   1.00
C689   C     0.26604   0.50012   0.51188   0.00000  Uiso   1.00
C690   C     0.01226   0.49387   0.48282   0.00000  Uiso   1.00
C691   C     0.32108   0.50612   0.51718   0.00000  Uiso   1.00
C692   C     0.15232   0.35331   0.45912   0.00000  Uiso   1.00
C693   C     0.18101   0.64669   0.54088   0.00000  Uiso   1.00
C694   C     0.15067   0.64393   0.45957   0.00000  Uiso   1.00
H695   H     0.14103   0.36834   0.42731   0.00000  Uiso   1.00
H696   H     0.01075   0.42962   0.34862   0.00000  Uiso   1.00
H697   H     0.19231   0.63166   0.57269   0.00000  Uiso   1.00
H698   H     0.13756   0.62656   0.42816   0.00000  Uiso   1.00
H699   H     0.19577   0.37344   0.57184   0.00000  Uiso   1.00
H700   H     0.28213   0.41140   0.42305   0.00000  Uiso   1.00
H701   H     0.05117   0.58860   0.57697   0.00000  Uiso   1.00
H702   H     0.23449   0.62434   0.40246   0.00000  Uiso   1.00
H703   H     0.09888   0.37563   0.59760   0.00000  Uiso   1.00
H704   H     0.32259   0.57036   0.65137   0.00000  Uiso   1.00
N705   N     0.16665   0.49999   0.61907   0.00000  Uiso   1.00
N706   N     0.16668   0.50001   0.38093   0.00000  Uiso   1.00
O707   O     0.16666   0.43892   0.53821   0.00000  Uiso   1.00
O708   O     0.29895   0.42676   0.45201   0.00000  Uiso   1.00
O709   O     0.01585   0.52080   0.59433   0.00000  Uiso   1.00
O710   O     0.03435   0.57324   0.54801   0.00000  Uiso   1.00
O711   O     0.26736   0.55685   0.41725   0.00000  Uiso   1.00
O712   O     0.21146   0.60241   0.38270   0.00000  Uiso   1.00
O713   O     0.06602   0.44312   0.58273   0.00000  Uiso   1.00
O714   O     0.12190   0.39757   0.61735   0.00000  Uiso   1.00
O715   O     0.24215   0.56938   0.59983   0.00000  Uiso   1.00
O716   O     0.29618   0.54938   0.66128   0.00000  Uiso   1.00
O717   O     0.09119   0.43062   0.40018   0.00000  Uiso   1.00
O718   O     0.16667   0.56108   0.46179   0.00000  Uiso   1.00
O719   O     0.03716   0.45059   0.33871   0.00000  Uiso   1.00
O720   O     0.16666   0.43893   0.46176   0.00000  Uiso   1.00
O721   O     0.16667   0.56107   0.53824   0.00000  Uiso   1.00
O722   O     0.09058   0.50000   0.52928   0.00000  Uiso   1.00
O723   O     0.24275   0.50000   0.47072   0.00000  Uiso   1.00
O724   O     0.09058   0.50000   0.45284   0.00000  Uiso   1.00
O725   O     0.24275   0.50000   0.54716   0.00000  Uiso   1.00
O726   O     0.31751   0.47917   0.40567   0.00000  Uiso   1.00
Zn727  Zn    0.16667   0.49999   0.55104   0.00000  Uiso   1.00
Zn728  Zn    0.16667   0.50001   0.44896   0.00000  Uiso   1.00
C729   C     0.50044   0.42014   0.49981   0.00000  Uiso   1.00
C730   C     0.51599   0.35607   0.54043   0.00000  Uiso   1.00
C731   C     0.49890   0.62406   0.50037   0.00000  Uiso   1.00
C732   C     0.50110   0.37594   0.49963   0.00000  Uiso   1.00
C733   C     0.53314   0.52696   0.36256   0.00000  Uiso   1.00
C734   C     0.46686   0.47304   0.63744   0.00000  Uiso   1.00
C735   C     0.53530   0.52550   0.64854   0.00000  Uiso   1.00
C736   C     0.46470   0.47450   0.35146   0.00000  Uiso   1.00
C737   C     0.65387   0.46638   0.44410   0.00000  Uiso   1.00
C738   C     0.34613   0.53361   0.55590   0.00000  Uiso   1.00
C739   C     0.56128   0.56217   0.39039   0.00000  Uiso   1.00
C740   C     0.49956   0.57986   0.50019   0.00000  Uiso   1.00
C741   C     0.43875   0.43781   0.60961   0.00000  Uiso   1.00
C742   C     0.58060   0.54880   0.63376   0.00000  Uiso   1.00
C743   C     0.41941   0.45119   0.36624   0.00000  Uiso   1.00
C744   C     0.40063   0.49988   0.48812   0.00000  Uiso   1.00
C745   C     0.59937   0.50012   0.51188   0.00000  Uiso   1.00
C746   C     0.34559   0.49387   0.48282   0.00000  Uiso   1.00
C747   C     0.65441   0.50612   0.51718   0.00000  Uiso   1.00
C748   C     0.48566   0.35331   0.45912   0.00000  Uiso   1.00
C749   C     0.51434   0.64669   0.54088   0.00000  Uiso   1.00
C750   C     0.48401   0.64393   0.45957   0.00000  Uiso   1.00
H751   H     0.47436   0.36834   0.42731   0.00000  Uiso   1.00
H752   H     0.34409   0.42962   0.34862   0.00000  Uiso   1.00
H753   H     0.52564   0.63166   0.57269   0.00000  Uiso   1.00
H754   H     0.47089   0.62656   0.42816   0.00000  Uiso   1.00
H755   H     0.52911   0.37344   0.57184   0.00000  Uiso   1.00
H756   H     0.61547   0.41140   0.42305   0.00000  Uiso   1.00
H757   H     0.38450   0.58860   0.57697   0.00000  Uiso   1.00
H758   H     0.56782   0.62434   0.40246   0.00000  Uiso   1.00
H759   H     0.43222   0.37563   0.59760   0.00000  Uiso   1.00
H760   H     0.65593   0.57036   0.65137   0.00000  Uiso   1.00
N761   N     0.49999   0.49999   0.61907   0.00000  Uiso   1.00
N762   N     0.50001   0.50001   0.38093   0.00000  Uiso   1.00
O763   O     0.50000   0.43892   0.53821   0.00000  Uiso   1.00
O764   O     0.63228   0.42676   0.45201   0.00000  Uiso   1.00
O765   O     0.34918   0.52080   0.59433   0.00000  Uiso   1.00
O766   O     0.36769   0.57324   0.54801   0.00000  Uiso   1.00
O767   O     0.60070   0.55685   0.41725   0.00000  Uiso   1.00
O768   O     0.54479   0.60241   0.38270   0.00000  Uiso   1.00
O769   O     0.39935   0.44312   0.58273   0.00000  Uiso   1.00
O770   O     0.45523   0.39757   0.61735   0.00000  Uiso   1.00
O771   O     0.57548   0.56938   0.59983   0.00000  Uiso   1.00
O772   O     0.62952   0.54938   0.66128   0.00000  Uiso   1.00
O773   O     0.42452   0.43062   0.40018   0.00000  Uiso   1.00
O774   O     0.50000   0.56108   0.46179   0.00000  Uiso   1.00
O775   O     0.37049   0.45059   0.33871   0.00000  Uiso   1.00
O776   O     0.50000   0.43893   0.46176   0.00000  Uiso   1.00
O777   O     0.50000   0.56107   0.53824   0.00000  Uiso   1.00
O778   O     0.42392   0.50000   0.52928   0.00000  Uiso   1.00
O779   O     0.57608   0.50000   0.47072   0.00000  Uiso   1.00
O780   O     0.42392   0.50000   0.45284   0.00000  Uiso   1.00
O781   O     0.57608   0.50000   0.54716   0.00000  Uiso   1.00
O782   O     0.65085   0.47917   0.40567   0.00000  Uiso   1.00
Zn783  Zn    0.50000   0.49999   0.55104   0.00000  Uiso   1.00
Zn784  Zn    0.50000   0.50001   0.44896   0.00000  Uiso   1.00
C785   C     0.83377   0.42014   0.49981   0.00000  Uiso   1.00
C786   C     0.84933   0.35607   0.54043   0.00000  Uiso   1.00
C787   C     0.83224   0.62406   0.50037   0.00000  Uiso   1.00
C788   C     0.83443   0.37594   0.49963   0.00000  Uiso   1.00
C789   C     0.86648   0.52696   0.36256   0.00000  Uiso   1.00
C790   C     0.80020   0.47304   0.63744   0.00000  Uiso   1.00
C791   C     0.86863   0.52550   0.64854   0.00000  Uiso   1.00
C792   C     0.79804   0.47450   0.35146   0.00000  Uiso   1.00
C793   C     0.98721   0.46638   0.44410   0.00000  Uiso   1.00
C794   C     0.67946   0.53361   0.55590   0.00000  Uiso   1.00
C795   C     0.89461   0.56217   0.39039   0.00000  Uiso   1.00
C796   C     0.83289   0.57986   0.50019   0.00000  Uiso   1.00
C797   C     0.77208   0.43781   0.60961   0.00000  Uiso   1.00
C798   C     0.91393   0.54880   0.63376   0.00000  Uiso   1.00
C799   C     0.75274   0.45119   0.36624   0.00000  Uiso   1.00
C800   C     0.73396   0.49988   0.48812   0.00000  Uiso   1.00
C801   C     0.93271   0.50012   0.51188   0.00000  Uiso   1.00
C802   C     0.67892   0.49387   0.48282   0.00000  Uiso   1.00
C803   C     0.98774   0.50612   0.51718   0.00000  Uiso   1.00
C804   C     0.81899   0.35331   0.45912   0.00000  Uiso   1.00
C805   C     0.84768   0.64669   0.54088   0.00000  Uiso   1.00
C806   C     0.81734   0.64393   0.45957   0.00000  Uiso   1.00
H807   H     0.80770   0.36834   0.42731   0.00000  Uiso   1.00
H808   H     0.67742   0.42962   0.34862   0.00000  Uiso   1.00
H809   H     0.85897   0.63166   0.57269   0.00000  Uiso   1.00
H810   H     0.80423   0.62656   0.42816   0.00000  Uiso   1.00
H811   H     0.86244   0.37344   0.57184   0.00000  Uiso   1.00
H812   H     0.94880   0.41140   0.42305   0.00000  Uiso   1.00
H813   H     0.71784   0.58860   0.57697   0.00000  Uiso   1.00
H814   H     0.90115   0.62434   0.40246   0.00000  Uiso   1.00
H815   H     0.76555   0.37563   0.59760   0.00000  Uiso   1.00
H816   H     0.98926   0.57036   0.65137   0.00000  Uiso   1.00
N817   N     0.83332   0.49999   0.61907   0.00000  Uiso   1.00
N818   N     0.83335   0.50001   0.38093   0.00000  Uiso   1.00
O819   O     0.83333   0.43892   0.53821   0.00000  Uiso   1.00
O820   O     0.96561   0.42676   0.45201   0.00000  Uiso   1.00
O821   O     0.68252   0.52080   0.59433   0.00000  Uiso   1.00
O822   O     0.70102   0.57324   0.54801   0.00000  Uiso   1.00
O823   O     0.93403   0.55685   0.41725   0.00000  Uiso   1.00
O824   O     0.87812   0.60241   0.38270   0.00000  Uiso   1.00
O825   O     0.73268   0.44312   0.58273   0.00000  Uiso   1.00
O826   O     0.78856   0.39757   0.61735   0.00000  Uiso   1.00
O827   O     0.90882   0.56938   0.59983   0.00000  Uiso   1.00
O828   O     0.96285   0.54938   0.66128   0.00000  Uiso   1.00
O829   O     0.75785   0.43062   0.40018   0.00000  Uiso   1.00
O830   O     0.83334   0.56108   0.46179   0.00000  Uiso   1.00
O831   O     0.70382   0.45059   0.33871   0.00000  Uiso   1.00
O832   O     0.83333   0.43893   0.46176   0.00000  Uiso   1.00
O833   O     0.83334   0.56107   0.53824   0.00000  Uiso   1.00
O834   O     0.75725   0.50000   0.52928   0.00000  Uiso   1.00
O835   O     0.90942   0.50000   0.47072   0.00000  Uiso   1.00
O836   O     0.75725   0.50000   0.45284   0.00000  Uiso   1.00
O837   O     0.90942   0.50000   0.54716   0.00000  Uiso   1.00
O838   O     0.98418   0.47917   0.40567   0.00000  Uiso   1.00
Zn839  Zn    0.83333   0.49999   0.55104   0.00000  Uiso   1.00
Zn840  Zn    0.83333   0.50001   0.44896   0.00000  Uiso   1.00
C841   C     0.16711   0.75347   0.49981   0.00000  Uiso   1.00
C842   C     0.18266   0.68940   0.54043   0.00000  Uiso   1.00
C843   C     0.16557   0.95740   0.50037   0.00000  Uiso   1.00
C844   C     0.16776   0.70927   0.49963   0.00000  Uiso   1.00
C845   C     0.19981   0.86029   0.36256   0.00000  Uiso   1.00
C846   C     0.13353   0.80637   0.63744   0.00000  Uiso   1.00
C847   C     0.20197   0.85884   0.64854   0.00000  Uiso   1.00
C848   C     0.13137   0.80783   0.35146   0.00000  Uiso   1.00
C849   C     0.32054   0.79972   0.44410   0.00000  Uiso   1.00
C850   C     0.01279   0.86694   0.55590   0.00000  Uiso   1.00
C851   C     0.22794   0.89550   0.39039   0.00000  Uiso   1.00
C852   C     0.16623   0.91319   0.50019   0.00000  Uiso   1.00
C853   C     0.10542   0.77115   0.60961   0.00000  Uiso   1.00
C854   C     0.24726   0.88214   0.63376   0.00000  Uiso   1.00
C855   C     0.08607   0.78452   0.36624   0.00000  Uiso   1.00
C856   C     0.06729   0.83321   0.48812   0.00000  Uiso   1.00
C857   C     0.26604   0.83345   0.51188   0.00000  Uiso   1.00
C858   C     0.01226   0.82721   0.48282   0.00000  Uiso   1.00
C859   C     0.32108   0.83945   0.51718   0.00000  Uiso   1.00
C860   C     0.15232   0.68664   0.45912   0.00000  Uiso   1.00
C861   C     0.18101   0.98002   0.54088   0.00000  Uiso   1.00
C862   C     0.15067   0.97726   0.45957   0.00000  Uiso   1.00
H863   H     0.14103   0.70167   0.42731   0.00000  Uiso   1.00
H864   H     0.01075   0.76295   0.34862   0.00000  Uiso   1.00
H865   H     0.19231   0.96500   0.57269   0.00000  Uiso   1.00
H866   H     0.13756   0.95989   0.42816   0.00000  Uiso   1.00
H867   H     0.19577   0.70677   0.57184   0.00000  Uiso   1.00
H868   H     0.28213   0.74473   0.42305   0.00000  Uiso   1.00
H869   H     0.05117   0.92193   0.57697   0.00000  Uiso   1.00
H870   H     0.23449   0.95767   0.40246   0.00000  Uiso   1.00
H871   H     0.09888   0.70897   0.59760   0.00000  Uiso   1.00
H872   H     0.32259   0.90369   0.65137   0.00000  Uiso   1.00
N873   N     0.16665   0.83332   0.61907   0.00000  Uiso   1.00
N874   N     0.16668   0.83334   0.38093   0.00000  Uiso   1.00
O875   O     0.16666   0.77225   0.53821   0.00000  Uiso   1.00
O876   O     0.29895   0.76009   0.45201   0.00000  Uiso   1.00
O877   O     0.01585   0.85414   0.59433   0.00000  Uiso   1.00
O878   O     0.03435   0.90658   0.54801   0.00000  Uiso   1.00
O879   O     0.26736   0.89018   0.41725   0.00000  Uiso   1.00
O880   O     0.21146   0.93575   0.38270   0.00000  Uiso   1.00
O881   O     0.06602   0.77645   0.58273   0.00000  Uiso   1.00
O882   O     0.12190   0.73090   0.61735   0.00000  Uiso   1.00
O883   O     0.24215   0.90271   0.59983   0.00000  Uiso   1.00
O884   O     0.29618   0.88272   0.66128   0.00000  Uiso   1.00
O885   O     0.09119   0.76395   0.40018   0.00000  Uiso   1.00
O886   O     0.16667   0.89442   0.46179   0.00000  Uiso   1.00
O887   O     0.03716   0.78393   0.33871   0.00000  Uiso   1.00
O888   O     0.16666   0.77226   0.46176   0.00000  Uiso   1.00
O889   O     0.16667   0.89441   0.53824   0.00000  Uiso   1.00
O890   O     0.09058   0.83333   0.52928   0.00000  Uiso   1.00
O891   O     0.24275   0.83334   0.47072   0.00000  Uiso   1.00
O892   O     0.09058   0.83334   0.45284   0.00000  Uiso   1.00
O893   O     0.24275   0.83333   0.54716   0.00000  Uiso   1.00
O894   O     0.31751   0.81250   0.40567   0.00000  Uiso   1.00
Zn895  Zn    0.16667   0.83333   0.55104   0.00000  Uiso   1.00
Zn896  Zn    0.16667   0.83334   0.44896   0.00000  Uiso   1.00
C897   C     0.50044   0.75347   0.49981   0.00000  Uiso   1.00
C898   C     0.51599   0.68940   0.54043   0.00000  Uiso   1.00
C899   C     0.49890   0.95740   0.50037   0.00000  Uiso   1.00
C900   C     0.50110   0.70927   0.49963   0.00000  Uiso   1.00
C901   C     0.53314   0.86029   0.36256   0.00000  Uiso   1.00
C902   C     0.46686   0.80637   0.63744   0.00000  Uiso   1.00
C903   C     0.53530   0.85884   0.64854   0.00000  Uiso   1.00
C904   C     0.46470   0.80783   0.35146   0.00000  Uiso   1.00
C905   C     0.65387   0.79972   0.44410   0.00000  Uiso   1.00
C906   C     0.34613   0.86694   0.55590   0.00000  Uiso   1.00
C907   C     0.56128   0.89550   0.39039   0.00000  Uiso   1.00
C908   C     0.49956   0.91319   0.50019   0.00000  Uiso   1.00
C909   C     0.43875   0.77115   0.60961   0.00000  Uiso   1.00
C910   C     0.58060   0.88214   0.63376   0.00000  Uiso   1.00
C911   C     0.41941   0.78452   0.36624   0.00000  Uiso   1.00
C912   C     0.40063   0.83321   0.48812   0.00000  Uiso   1.00
C913   C     0.59937   0.83345   0.51188   0.00000  Uiso   1.00
C914   C     0.34559   0.82721   0.48282   0.00000  Uiso   1.00
C915   C     0.65441   0.83945   0.51718   0.00000  Uiso   1.00
C916   C     0.48566   0.68664   0.45912   0.00000  Uiso   1.00
C917   C     0.51434   0.98002   0.54088   0.00000  Uiso   1.00
C918   C     0.48401   0.97726   0.45957   0.00000  Uiso   1.00
H919   H     0.47436   0.70167   0.42731   0.00000  Uiso   1.00
H920   H     0.34409   0.76295   0.34862   0.00000  Uiso   1.00
H921   H     0.52564   0.96500   0.57269   0.00000  Uiso   1.00
H922   H     0.47089   0.95989   0.42816   0.00000  Uiso   1.00
H923   H     0.52911   0.70677   0.57184   0.00000  Uiso   1.00
H924   H     0.61547   0.74473   0.42305   0.00000  Uiso   1.00
H925   H     0.38450   0.92193   0.57697   0.00000  Uiso   1.00
H926   H     0.56782   0.95767   0.40246   0.00000  Uiso   1.00
H927   H     0.43222   0.70897   0.59760   0.00000  Uiso   1.00
H928   H     0.65593   0.90369   0.65137   0.00000  Uiso   1.00
N929   N     0.49999   0.83332   0.61907   0.00000  Uiso   1.00
N930   N     0.50001   0.83334   0.38093   0.00000  Uiso   1.00
O931   O     0.50000   0.77225   0.53821   0.00000  Uiso   1.00
O932   O     0.63228   0.76009   0.45201   0.00000  Uiso   1.00
O933   O     0.34918   0.85414   0.59433   0.00000  Uiso   1.00
O934   O     0.36769   0.90658   0.54801   0.00000  Uiso   1.00
O935   O     0.60070   0.89018   0.41725   0.00000  Uiso   1.00
O936   O     0.54479   0.93575   0.38270   0.00000  Uiso   1.00
O937   O     0.39935   0.77645   0.58273   0.00000  Uiso   1.00
O938   O     0.45523   0.73090   0.61735   0.00000  Uiso   1.00
O939   O     0.57548   0.90271   0.59983   0.00000  Uiso   1.00
O940   O     0.62952   0.88272   0.66128   0.00000  Uiso   1.00
O941   O     0.42452   0.76395   0.40018   0.00000  Uiso   1.00
O942   O     0.50000   0.89442   0.46179   0.00000  Uiso   1.00
O943   O     0.37049   0.78393   0.33871   0.00000  Uiso   1.00
O944   O     0.50000   0.77226   0.46176   0.00000  Uiso   1.00
O945   O     0.50000   0.89441   0.53824   0.00000  Uiso   1.00
O946   O     0.42392   0.83333   0.52928   0.00000  Uiso   1.00
O947   O     0.57608   0.83334   0.47072   0.00000  Uiso   1.00
O948   O     0.42392   0.83334   0.45284   0.00000  Uiso   1.00
O949   O     0.57608   0.83333   0.54716   0.00000  Uiso   1.00
O950   O     0.65085   0.81250   0.40567   0.00000  Uiso   1.00
Zn951  Zn    0.50000   0.83333   0.55104   0.00000  Uiso   1.00
Zn952  Zn    0.50000   0.83334   0.44896   0.00000  Uiso   1.00
C953   C     0.83377   0.75347   0.49981   0.00000  Uiso   1.00
C954   C     0.84933   0.68940   0.54043   0.00000  Uiso   1.00
C955   C     0.83224   0.95740   0.50037   0.00000  Uiso   1.00
C956   C     0.83443   0.70927   0.49963   0.00000  Uiso   1.00
C957   C     0.86648   0.86029   0.36256   0.00000  Uiso   1.00
C958   C     0.80020   0.80637   0.63744   0.00000  Uiso   1.00
C959   C     0.86863   0.85884   0.64854   0.00000  Uiso   1.00
C960   C     0.79804   0.80783   0.35146   0.00000  Uiso   1.00
C961   C     0.98721   0.79972   0.44410   0.00000  Uiso   1.00
C962   C     0.67946   0.86694   0.55590   0.00000  Uiso   1.00
C963   C     0.89461   0.89550   0.39039   0.00000  Uiso   1.00
C964   C     0.83289   0.91319   0.50019   0.00000  Uiso   1.00
C965   C     0.77208   0.77115   0.60961   0.00000  Uiso   1.00
C966   C     0.91393   0.88214   0.63376   0.00000  Uiso   1.00
C967   C     0.75274   0.78452   0.36624   0.00000  Uiso   1.00
C968   C     0.73396   0.83321   0.48812   0.00000  Uiso   1.00
C969   C     0.93271   0.83345   0.51188   0.00000  Uiso   1.00
C970   C     0.67892   0.82721   0.48282   0.00000  Uiso   1.00
C971   C     0.98774   0.83945   0.51718   0.00000  Uiso   1.00
C972   C     0.81899   0.68664   0.45912   0.00000  Uiso   1.00
C973   C     0.84768   0.98002   0.54088   0.00000  Uiso   1.00
C974   C     0.81734   0.97726   0.45957   0.00000  Uiso   1.00
H975   H     0.80770   0.70167   0.42731   0.00000  Uiso   1.00
H976   H     0.67742   0.76295   0.34862   0.00000  Uiso   1.00
H977   H     0.85897   0.96500   0.57269   0.00000  Uiso   1.00
H978   H     0.80423   0.95989   0.42816   0.00000  Uiso   1.00
H979   H     0.86244   0.70677   0.57184   0.00000  Uiso   1.00
H980   H     0.94880   0.74473   0.42305   0.00000  Uiso   1.00
H981   H     0.71784   0.92193   0.57697   0.00000  Uiso   1.00
H982   H     0.90115   0.95767   0.40246   0.00000  Uiso   1.00
H983   H     0.76555   0.70897   0.59760   0.00000  Uiso   1.00
H984   H     0.98926   0.90369   0.65137   0.00000  Uiso   1.00
N985   N     0.83332   0.83332   0.61907   0.00000  Uiso   1.00
N986   N     0.83335   0.83334   0.38093   0.00000  Uiso   1.00
O987   O     0.83333   0.77225   0.53821   0.00000  Uiso   1.00
O988   O     0.96561   0.76009   0.45201   0.00000  Uiso   1.00
O989   O     0.68252   0.85414   0.59433   0.00000  Uiso   1.00
O990   O     0.70102   0.90658   0.54801   0.00000  Uiso   1.00
O991   O     0.93403   0.89018   0.41725   0.00000  Uiso   1.00
O992   O     0.87812   0.93575   0.38270   0.00000  Uiso   1.00
O993   O     0.73268   0.77645   0.58273   0.00000  Uiso   1.00
O994   O     0.78856   0.73090   0.61735   0.00000  Uiso   1.00
O995   O     0.90882   0.90271   0.59983   0.00000  Uiso   1.00
O996   O     0.96285   0.88272   0.66128   0.00000  Uiso   1.00
O997   O     0.75785   0.76395   0.40018   0.00000  Uiso   1.00
O998   O     0.83334   0.89442   0.46179   0.00000  Uiso   1.00
O999   O     0.70382   0.78393   0.33871   0.00000  Uiso   1.00
O1000  O     0.83333   0.77226   0.46176   0.00000  Uiso   1.00
O1001  O     0.83334   0.89441   0.53824   0.00000  Uiso   1.00
O1002  O     0.75725   0.83333   0.52928   0.00000  Uiso   1.00
O1003  O     0.90942   0.83334   0.47072   0.00000  Uiso   1.00
O1004  O     0.75725   0.83334   0.45284   0.00000  Uiso   1.00
O1005  O     0.90942   0.83333   0.54716   0.00000  Uiso   1.00
O1006  O     0.98418   0.81250   0.40567   0.00000  Uiso   1.00
Zn1007 Zn    0.83333   0.83333   0.55104   0.00000  Uiso   1.00
Zn1008 Zn    0.83333   0.83334   0.44896   0.00000  Uiso   1.00
C1009  C     0.16711   0.08681   0.83314   0.00000  Uiso   1.00
C1010  C     0.18266   0.02274   0.87376   0.00000  Uiso   1.00
C1011  C     0.16557   0.29073   0.83370   0.00000  Uiso   1.00
C1012  C     0.16776   0.04260   0.83297   0.00000  Uiso   1.00
C1013  C     0.19981   0.19362   0.69590   0.00000  Uiso   1.00
C1014  C     0.13353   0.13970   0.97077   0.00000  Uiso   1.00
C1015  C     0.20197   0.19217   0.98187   0.00000  Uiso   1.00
C1016  C     0.13137   0.14116   0.68480   0.00000  Uiso   1.00
C1017  C     0.32054   0.13305   0.77744   0.00000  Uiso   1.00
C1018  C     0.01279   0.20027   0.88923   0.00000  Uiso   1.00
C1019  C     0.22794   0.22884   0.72373   0.00000  Uiso   1.00
C1020  C     0.16623   0.24653   0.83353   0.00000  Uiso   1.00
C1021  C     0.10542   0.10448   0.94295   0.00000  Uiso   1.00
C1022  C     0.24726   0.21547   0.96710   0.00000  Uiso   1.00
C1023  C     0.08607   0.11786   0.69957   0.00000  Uiso   1.00
C1024  C     0.06729   0.16655   0.82145   0.00000  Uiso   1.00
C1025  C     0.26604   0.16678   0.84522   0.00000  Uiso   1.00
C1026  C     0.01226   0.16054   0.81616   0.00000  Uiso   1.00
C1027  C     0.32108   0.17279   0.85051   0.00000  Uiso   1.00
C1028  C     0.15232   0.01998   0.79245   0.00000  Uiso   1.00
C1029  C     0.18101   0.31336   0.87422   0.00000  Uiso   1.00
C1030  C     0.15067   0.31060   0.79291   0.00000  Uiso   1.00
H1031  H     0.14103   0.03500   0.76065   0.00000  Uiso   1.00
H1032  H     0.01075   0.09628   0.68195   0.00000  Uiso   1.00
H1033  H     0.19231   0.29833   0.90602   0.00000  Uiso   1.00
H1034  H     0.13756   0.29323   0.76150   0.00000  Uiso   1.00
H1035  H     0.19577   0.04011   0.90517   0.00000  Uiso   1.00
H1036  H     0.28213   0.07807   0.75638   0.00000  Uiso   1.00
H1037  H     0.05117   0.25527   0.91030   0.00000  Uiso   1.00
H1038  H     0.23449   0.29101   0.73579   0.00000  Uiso   1.00
H1039  H     0.09888   0.04230   0.93093   0.00000  Uiso   1.00
H1040  H     0.32259   0.23703   0.98470   0.00000  Uiso   1.00
N1041  N     0.16665   0.16666   0.95240   0.00000  Uiso   1.00
N1042  N     0.16668   0.16668   0.71427   0.00000  Uiso   1.00
O1043  O     0.16666   0.10558   0.87154   0.00000  Uiso   1.00
O1044  O     0.29895   0.09343   0.78534   0.00000  Uiso   1.00
O1045  O     0.01585   0.18747   0.92767   0.00000  Uiso   1.00
O1046  O     0.03435   0.23991   0.88134   0.00000  Uiso   1.00
O1047  O     0.26736   0.22352   0.75058   0.00000  Uiso   1.00
O1048  O     0.21146   0.26908   0.71603   0.00000  Uiso   1.00
O1049  O     0.06602   0.10979   0.91607   0.00000  Uiso   1.00
O1050  O     0.12190   0.06424   0.95068   0.00000  Uiso   1.00
O1051  O     0.24215   0.23605   0.93316   0.00000  Uiso   1.00
O1052  O     0.29618   0.21605   0.99461   0.00000  Uiso   1.00
O1053  O     0.09119   0.09729   0.73351   0.00000  Uiso   1.00
O1054  O     0.16667   0.22775   0.79513   0.00000  Uiso   1.00
O1055  O     0.03716   0.11726   0.67204   0.00000  Uiso   1.00
O1056  O     0.16666   0.10559   0.79510   0.00000  Uiso   1.00
O1057  O     0.16667   0.22774   0.87157   0.00000  Uiso   1.00
O1058  O     0.09058   0.16666   0.86261   0.00000  Uiso   1.00
O1059  O     0.24275   0.16667   0.80405   0.00000  Uiso   1.00
O1060  O     0.09058   0.16667   0.78617   0.00000  Uiso   1.00
O1061  O     0.24275   0.16666   0.88050   0.00000  Uiso   1.00
O1062  O     0.31751   0.14584   0.73900   0.00000  Uiso   1.00
Zn1063 Zn    0.16667   0.16666   0.88437   0.00000  Uiso   1.00
Zn1064 Zn    0.16667   0.16667   0.78229   0.00000  Uiso   1.00
C1065  C     0.50044   0.08681   0.83314   0.00000  Uiso   1.00
C1066  C     0.51599   0.02274   0.87376   0.00000  Uiso   1.00
C1067  C     0.49890   0.29073   0.83370   0.00000  Uiso   1.00
C1068  C     0.50110   0.04260   0.83297   0.00000  Uiso   1.00
C1069  C     0.53314   0.19362   0.69590   0.00000  Uiso   1.00
C1070  C     0.46686   0.13970   0.97077   0.00000  Uiso   1.00
C1071  C     0.53530   0.19217   0.98187   0.00000  Uiso   1.00
C1072  C     0.46470   0.14116   0.68480   0.00000  Uiso   1.00
C1073  C     0.65387   0.13305   0.77744   0.00000  Uiso   1.00
C1074  C     0.34613   0.20027   0.88923   0.00000  Uiso   1.00
C1075  C     0.56128   0.22884   0.72373   0.00000  Uiso   1.00
C1076  C     0.49956   0.24653   0.83353   0.00000  Uiso   1.00
C1077  C     0.43875   0.10448   0.94295   0.00000  Uiso   1.00
C1078  C     0.58060   0.21547   0.96710   0.00000  Uiso   1.00
C1079  C     0.41941   0.11786   0.69957   0.00000  Uiso   1.00
C1080  C     0.40063   0.16655   0.82145   0.00000  Uiso   1.00
C1081  C     0.59937   0.16678   0.84522   0.00000  Uiso   1.00
C1082  C     0.34559   0.16054   0.81616   0.00000  Uiso   1.00
C1083  C     0.65441   0.17279   0.85051   0.00000  Uiso   1.00
C1084  C     0.48566   0.01998   0.79245   0.00000  Uiso   1.00
C1085  C     0.51434   0.31336   0.87422   0.00000  Uiso   1.00
C1086  C     0.48401   0.31060   0.79291   0.00000  Uiso   1.00
H1087  H     0.47436   0.03500   0.76065   0.00000  Uiso   1.00
H1088  H     0.34409   0.09628   0.68195   0.00000  Uiso   1.00
H1089  H     0.52564   0.29833   0.90602   0.00000  Uiso   1.00
H1090  H     0.47089   0.29323   0.76150   0.00000  Uiso   1.00
H1091  H     0.52911   0.04011   0.90517   0.00000  Uiso   1.00
H1092  H     0.61547   0.07807   0.75638   0.00000  Uiso   1.00
H1093  H     0.38450   0.25527   0.91030   0.00000  Uiso   1.00
H1094  H     0.56782   0.29101   0.73579   0.00000  Uiso   1.00
H1095  H     0.43222   0.04230   0.93093   0.00000  Uiso   1.00
H1096  H     0.65593   0.23703   0.98470   0.00000  Uiso   1.00
N1097  N     0.49999   0.16666   0.95240   0.00000  Uiso   1.00
N1098  N     0.50001   0.16668   0.71427   0.00000  Uiso   1.00
O1099  O     0.50000   0.10558   0.87154   0.00000  Uiso   1.00
O1100  O     0.63228   0.09343   0.78534   0.00000  Uiso   1.00
O1101  O     0.34918   0.18747   0.92767   0.00000  Uiso   1.00
O1102  O     0.36769   0.23991   0.88134   0.00000  Uiso   1.00
O1103  O     0.60070   0.22352   0.75058   0.00000  Uiso   1.00
O1104  O     0.54479   0.26908   0.71603   0.00000  Uiso   1.00
O1105  O     0.39935   0.10979   0.91607   0.00000  Uiso   1.00
O1106  O     0.45523   0.06424   0.95068   0.00000  Uiso   1.00
O1107  O     0.57548   0.23605   0.93316   0.00000  Uiso   1.00
O1108  O     0.62952   0.21605   0.99461   0.00000  Uiso   1.00
O1109  O     0.42452   0.09729   0.73351   0.00000  Uiso   1.00
O1110  O     0.50000   0.22775   0.79513   0.00000  Uiso   1.00
O1111  O     0.37049   0.11726   0.67204   0.00000  Uiso   1.00
O1112  O     0.50000   0.10559   0.79510   0.00000  Uiso   1.00
O1113  O     0.50000   0.22774   0.87157   0.00000  Uiso   1.00
O1114  O     0.42392   0.16666   0.86261   0.00000  Uiso   1.00
O1115  O     0.57608   0.16667   0.80405   0.00000  Uiso   1.00
O1116  O     0.42392   0.16667   0.78617   0.00000  Uiso   1.00
O1117  O     0.57608   0.16666   0.88050   0.00000  Uiso   1.00
O1118  O     0.65085   0.14584   0.73900   0.00000  Uiso   1.00
Zn1119 Zn    0.50000   0.16666   0.88437   0.00000  Uiso   1.00
Zn1120 Zn    0.50000   0.16667   0.78229   0.00000  Uiso   1.00
C1121  C     0.83377   0.08681   0.83314   0.00000  Uiso   1.00
C1122  C     0.84933   0.02274   0.87376   0.00000  Uiso   1.00
C1123  C     0.83224   0.29073   0.83370   0.00000  Uiso   1.00
C1124  C     0.83443   0.04260   0.83297   0.00000  Uiso   1.00
C1125  C     0.86648   0.19362   0.69590   0.00000  Uiso   1.00
C1126  C     0.80020   0.13970   0.97077   0.00000  Uiso   1.00
C1127  C     0.86863   0.19217   0.98187   0.00000  Uiso   1.00
C1128  C     0.79804   0.14116   0.68480   0.00000  Uiso   1.00
C1129  C     0.98721   0.13305   0.77744   0.00000  Uiso   1.00
C1130  C     0.67946   0.20027   0.88923   0.00000  Uiso   1.00
C1131  C     0.89461   0.22884   0.72373   0.00000  Uiso   1.00
C1132  C     0.83289   0.24653   0.83353   0.00000  Uiso   1.00
C1133  C     0.77208   0.10448   0.94295   0.00000  Uiso   1.00
C1134  C     0.91393   0.21547   0.96710   0.00000  Uiso   1.00
C1135  C     0.75274   0.11786   0.69957   0.00000  Uiso   1.00
C1136  C     0.73396   0.16655   0.82145   0.00000  Uiso   1.00
C1137  C     0.93271   0.16678   0.84522   0.00000  Uiso   1.00
C1138  C     0.67892   0.16054   0.81616   0.00000  Uiso   1.00
C1139  C     0.98774   0.17279   0.85051   0.00000  Uiso   1.00
C1140  C     0.81899   0.01998   0.79245   0.00000  Uiso   1.00
C1141  C     0.84768   0.31336   0.87422   0.00000  Uiso   1.00
C1142  C     0.81734   0.31060   0.79291   0.00000  Uiso   1.00
H1143  H     0.80770   0.03500   0.76065   0.00000  Uiso   1.00
H1144  H     0.67742   0.09628   0.68195   0.00000  Uiso   1.00
H1145  H     0.85897   0.29833   0.90602   0.00000  Uiso   1.00
H1146  H     0.80423   0.29323   0.76150   0.00000  Uiso   1.00
H1147  H     0.86244   0.04011   0.90517   0.00000  Uiso   1.00
H1148  H     0.94880   0.07807   0.75638   0.00000  Uiso   1.00
H1149  H     0.71784   0.25527   0.91030   0.00000  Uiso   1.00
H1150  H     0.90115   0.29101   0.73579   0.00000  Uiso   1.00
H1151  H     0.76555   0.04230   0.93093   0.00000  Uiso   1.00
H1152  H     0.98926   0.23703   0.98470   0.00000  Uiso   1.00
N1153  N     0.83332   0.16666   0.95240   0.00000  Uiso   1.00
N1154  N     0.83335   0.16668   0.71427   0.00000  Uiso   1.00
O1155  O     0.83333   0.10558   0.87154   0.00000  Uiso   1.00
O1156  O     0.96561   0.09343   0.78534   0.00000  Uiso   1.00
O1157  O     0.68252   0.18747   0.92767   0.00000  Uiso   1.00
O1158  O     0.70102   0.23991   0.88134   0.00000  Uiso   1.00
O1159  O     0.93403   0.22352   0.75058   0.00000  Uiso   1.00
O1160  O     0.87812   0.26908   0.71603   0.00000  Uiso   1.00
O1161  O     0.73268   0.10979   0.91607   0.00000  Uiso   1.00
O1162  O     0.78856   0.06424   0.95068   0.00000  Uiso   1.00
O1163  O     0.90882   0.23605   0.93316   0.00000  Uiso   1.00
O1164  O     0.96285   0.21605   0.99461   0.00000  Uiso   1.00
O1165  O     0.75785   0.09729   0.73351   0.00000  Uiso   1.00
O1166  O     0.83334   0.22775   0.79513   0.00000  Uiso   1.00
O1167  O     0.70382   0.11726   0.67204   0.00000  Uiso   1.00
O1168  O     0.83333   0.10559   0.79510   0.00000  Uiso   1.00
O1169  O     0.83334   0.22774   0.87157   0.00000  Uiso   1.00
O1170  O     0.75725   0.16666   0.86261   0.00000  Uiso   1.00
O1171  O     0.90942   0.16667   0.80405   0.00000  Uiso   1.00
O1172  O     0.75725   0.16667   0.78617   0.00000  Uiso   1.00
O1173  O     0.90942   0.16666   0.88050   0.00000  Uiso   1.00
O1174  O     0.98418   0.14584   0.73900   0.00000  Uiso   1.00
Zn1175 Zn    0.83333   0.16666   0.88437   0.00000  Uiso   1.00
Zn1176 Zn    0.83333   0.16667   0.78229   0.00000  Uiso   1.00
C1177  C     0.16711   0.42014   0.83314   0.00000  Uiso   1.00
C1178  C     0.18266   0.35607   0.87376   0.00000  Uiso   1.00
C1179  C     0.16557   0.62406   0.83370   0.00000  Uiso   1.00
C1180  C     0.16776   0.37594   0.83297   0.00000  Uiso   1.00
C1181  C     0.19981   0.52696   0.69590   0.00000  Uiso   1.00
C1182  C     0.13353   0.47304   0.97077   0.00000  Uiso   1.00
C1183  C     0.20197   0.52550   0.98187   0.00000  Uiso   1.00
C1184  C     0.13137   0.47450   0.68480   0.00000  Uiso   1.00
C1185  C     0.32054   0.46638   0.77744   0.00000  Uiso   1.00
C1186  C     0.01279   0.53361   0.88923   0.00000  Uiso   1.00
C1187  C     0.22794   0.56217   0.72373   0.00000  Uiso   1.00
C1188  C     0.16623   0.57986   0.83353   0.00000  Uiso   1.00
C1189  C     0.10542   0.43781   0.94295   0.00000  Uiso   1.00
C1190  C     0.24726   0.54880   0.96710   0.00000  Uiso   1.00
C1191  C     0.08607   0.45119   0.69957   0.00000  Uiso   1.00
C1192  C     0.06729   0.49988   0.82145   0.00000  Uiso   1.00
C1193  C     0.26604   0.50012   0.84522   0.00000  Uiso   1.00
C1194  C     0.01226   0.49387   0.81616   0.00000  Uiso   1.00
C1195  C     0.32108   0.50612   0.85051   0.00000  Uiso   1.00
C1196  C     0.15232   0.35331   0.79245   0.00000  Uiso   1.00
C1197  C     0.18101   0.64669   0.87422   0.00000  Uiso   1.00
C1198  C     0.15067   0.64393   0.79291   0.00000  Uiso   1.00
H1199  H     0.14103   0.36834   0.76065   0.00000  Uiso   1.00
H1200  H     0.01075   0.42962   0.68195   0.00000  Uiso   1.00
H1201  H     0.19231   0.63166   0.90602   0.00000  Uiso   1.00
H1202  H     0.13756   0.62656   0.76150   0.00000  Uiso   1.00
H1203  H     0.19577   0.37344   0.90517   0.00000  Uiso   1.00
H1204  H     0.28213   0.41140   0.75638   0.00000  Uiso   1.00
H1205  H     0.05117   0.58860   0.91030   0.00000  Uiso   1.00
H1206  H     0.23449   0.62434   0.73579   0.00000  Uiso   1.00
H1207  H     0.09888   0.37563   0.93093   0.00000  Uiso   1.00
H1208  H     0.32259   0.57036   0.98470   0.00000  Uiso   1.00
N1209  N     0.16665   0.49999   0.95240   0.00000  Uiso   1.00
N1210  N     0.16668   0.50001   0.71427   0.00000  Uiso   1.00
O1211  O     0.16666   0.43892   0.87154   0.00000  Uiso   1.00
O1212  O     0.29895   0.42676   0.78534   0.00000  Uiso   1.00
O1213  O     0.01585   0.52080   0.92767   0.00000  Uiso   1.00
O1214  O     0.03435   0.57324   0.88134   0.00000  Uiso   1.00
O1215  O     0.26736   0.55685   0.75058   0.00000  Uiso   1.00
O1216  O     0.21146   0.60241   0.71603   0.00000  Uiso   1.00
O1217  O     0.06602   0.44312   0.91607   0.00000  Uiso   1.00
O1218  O     0.12190   0.39757   0.95068   0.00000  Uiso   1.00
O1219  O     0.24215   0.56938   0.93316   0.00000  Uiso   1.00
O1220  O     0.29618   0.54938   0.99461   0.00000  Uiso   1.00
O1221  O     0.09119   0.43062   0.73351   0.00000  Uiso   1.00
O1222  O     0.16667   0.56108   0.79513   0.00000  Uiso   1.00
O1223  O     0.03716   0.45059   0.67204   0.00000  Uiso   1.00
O1224  O     0.16666   0.43893   0.79510   0.00000  Uiso   1.00
O1225  O     0.16667   0.56107   0.87157   0.00000  Uiso   1.00
O1226  O     0.09058   0.50000   0.86261   0.00000  Uiso   1.00
O1227  O     0.24275   0.50000   0.80405   0.00000  Uiso   1.00
O1228  O     0.09058   0.50000   0.78617   0.00000  Uiso   1.00
O1229  O     0.24275   0.50000   0.88050   0.00000  Uiso   1.00
O1230  O     0.31751   0.47917   0.73900   0.00000  Uiso   1.00
Zn1231 Zn    0.16667   0.49999   0.88437   0.00000  Uiso   1.00
Zn1232 Zn    0.16667   0.50001   0.78229   0.00000  Uiso   1.00
C1233  C     0.50044   0.42014   0.83314   0.00000  Uiso   1.00
C1234  C     0.51599   0.35607   0.87376   0.00000  Uiso   1.00
C1235  C     0.49890   0.62406   0.83370   0.00000  Uiso   1.00
C1236  C     0.50110   0.37594   0.83297   0.00000  Uiso   1.00
C1237  C     0.53314   0.52696   0.69590   0.00000  Uiso   1.00
C1238  C     0.46686   0.47304   0.97077   0.00000  Uiso   1.00
C1239  C     0.53530   0.52550   0.98187   0.00000  Uiso   1.00
C1240  C     0.46470   0.47450   0.68480   0.00000  Uiso   1.00
C1241  C     0.65387   0.46638   0.77744   0.00000  Uiso   1.00
C1242  C     0.34613   0.53361   0.88923   0.00000  Uiso   1.00
C1243  C     0.56128   0.56217   0.72373   0.00000  Uiso   1.00
C1244  C     0.49956   0.57986   0.83353   0.00000  Uiso   1.00
C1245  C     0.43875   0.43781   0.94295   0.00000  Uiso   1.00
C1246  C     0.58060   0.54880   0.96710   0.00000  Uiso   1.00
C1247  C     0.41941   0.45119   0.69957   0.00000  Uiso   1.00
C1248  C     0.40063   0.49988   0.82145   0.00000  Uiso   1.00
C1249  C     0.59937   0.50012   0.84522   0.00000  Uiso   1.00
C1250  C     0.34559   0.49387   0.81616   0.00000  Uiso   1.00
C1251  C     0.65441   0.50612   0.85051   0.00000  Uiso   1.00
C1252  C     0.48566   0.35331   0.79245   0.00000  Uiso   1.00
C1253  C     0.51434   0.64669   0.87422   0.00000  Uiso   1.00
C1254  C     0.48401   0.64393   0.79291   0.00000  Uiso   1.00
H1255  H     0.47436   0.36834   0.76065   0.00000  Uiso   1.00
H1256  H     0.34409   0.42962   0.68195   0.00000  Uiso   1.00
H1257  H     0.52564   0.63166   0.90602   0.00000  Uiso   1.00
H1258  H     0.47089   0.62656   0.76150   0.00000  Uiso   1.00
H1259  H     0.52911   0.37344   0.90517   0.00000  Uiso   1.00
H1260  H     0.61547   0.41140   0.75638   0.00000  Uiso   1.00
H1261  H     0.38450   0.58860   0.91030   0.00000  Uiso   1.00
H1262  H     0.56782   0.62434   0.73579   0.00000  Uiso   1.00
H1263  H     0.43222   0.37563   0.93093   0.00000  Uiso   1.00
H1264  H     0.65593   0.57036   0.98470   0.00000  Uiso   1.00
N1265  N     0.49999   0.49999   0.95240   0.00000  Uiso   1.00
N1266  N     0.50001   0.50001   0.71427   0.00000  Uiso   1.00
O1267  O     0.50000   0.43892   0.87154   0.00000  Uiso   1.00
O1268  O     0.63228   0.42676   0.78534   0.00000  Uiso   1.00
O1269  O     0.34918   0.52080   0.92767   0.00000  Uiso   1.00
O1270  O     0.36769   0.57324   0.88134   0.00000  Uiso   1.00
O1271  O     0.60070   0.55685   0.75058   0.00000  Uiso   1.00
O1272  O     0.54479   0.60241   0.71603   0.00000  Uiso   1.00
O1273  O     0.39935   0.44312   0.91607   0.00000  Uiso   1.00
O1274  O     0.45523   0.39757   0.95068   0.00000  Uiso   1.00
O1275  O     0.57548   0.56938   0.93316   0.00000  Uiso   1.00
O1276  O     0.62952   0.54938   0.99461   0.00000  Uiso   1.00
O1277  O     0.42452   0.43062   0.73351   0.00000  Uiso   1.00
O1278  O     0.50000   0.56108   0.79513   0.00000  Uiso   1.00
O1279  O     0.37049   0.45059   0.67204   0.00000  Uiso   1.00
O1280  O     0.50000   0.43893   0.79510   0.00000  Uiso   1.00
O1281  O     0.50000   0.56107   0.87157   0.00000  Uiso   1.00
O1282  O     0.42392   0.50000   0.86261   0.00000  Uiso   1.00
O1283  O     0.57608   0.50000   0.80405   0.00000  Uiso   1.00
O1284  O     0.42392   0.50000   0.78617   0.00000  Uiso   1.00
O1285  O     0.57608   0.50000   0.88050   0.00000  Uiso   1.00
O1286  O     0.65085   0.47917   0.73900   0.00000  Uiso   1.00
Zn1287 Zn    0.50000   0.49999   0.88437   0.00000  Uiso   1.00
Zn1288 Zn    0.50000   0.50001   0.78229   0.00000  Uiso   1.00
C1289  C     0.83377   0.42014   0.83314   0.00000  Uiso   1.00
C1290  C     0.84933   0.35607   0.87376   0.00000  Uiso   1.00
C1291  C     0.83224   0.62406   0.83370   0.00000  Uiso   1.00
C1292  C     0.83443   0.37594   0.83297   0.00000  Uiso   1.00
C1293  C     0.86648   0.52696   0.69590   0.00000  Uiso   1.00
C1294  C     0.80020   0.47304   0.97077   0.00000  Uiso   1.00
C1295  C     0.86863   0.52550   0.98187   0.00000  Uiso   1.00
C1296  C     0.79804   0.47450   0.68480   0.00000  Uiso   1.00
C1297  C     0.98721   0.46638   0.77744   0.00000  Uiso   1.00
C1298  C     0.67946   0.53361   0.88923   0.00000  Uiso   1.00
C1299  C     0.89461   0.56217   0.72373   0.00000  Uiso   1.00
C1300  C     0.83289   0.57986   0.83353   0.00000  Uiso   1.00
C1301  C     0.77208   0.43781   0.94295   0.00000  Uiso   1.00
C1302  C     0.91393   0.54880   0.96710   0.00000  Uiso   1.00
C1303  C     0.75274   0.45119   0.69957   0.00000  Uiso   1.00
C1304  C     0.73396   0.49988   0.82145   0.00000  Uiso   1.00
C1305  C     0.93271   0.50012   0.84522   0.00000  Uiso   1.00
C1306  C     0.67892   0.49387   0.81616   0.00000  Uiso   1.00
C1307  C     0.98774   0.50612   0.85051   0.00000  Uiso   1.00
C1308  C     0.81899   0.35331   0.79245   0.00000  Uiso   1.00
C1309  C     0.84768   0.64669   0.87422   0.00000  Uiso   1.00
C1310  C     0.81734   0.64393   0.79291   0.00000  Uiso   1.00
H1311  H     0.80770   0.36834   0.76065   0.00000  Uiso   1.00
H1312  H     0.67742   0.42962   0.68195   0.00000  Uiso   1.00
H1313  H     0.85897   0.63166   0.90602   0.00000  Uiso   1.00
H1314  H     0.80423   0.62656   0.76150   0.00000  Uiso   1.00
H1315  H     0.86244   0.37344   0.90517   0.00000  Uiso   1.00
H1316  H     0.94880   0.41140   0.75638   0.00000  Uiso   1.00
H1317  H     0.71784   0.58860   0.91030   0.00000  Uiso   1.00
H1318  H     0.90115   0.62434   0.73579   0.00000  Uiso   1.00
H1319  H     0.76555   0.37563   0.93093   0.00000  Uiso   1.00
H1320  H     0.98926   0.57036   0.98470   0.00000  Uiso   1.00
N1321  N     0.83332   0.49999   0.95240   0.00000  Uiso   1.00
N1322  N     0.83335   0.50001   0.71427   0.00000  Uiso   1.00
O1323  O     0.83333   0.43892   0.87154   0.00000  Uiso   1.00
O1324  O     0.96561   0.42676   0.78534   0.00000  Uiso   1.00
O1325  O     0.68252   0.52080   0.92767   0.00000  Uiso   1.00
O1326  O     0.70102   0.57324   0.88134   0.00000  Uiso   1.00
O1327  O     0.93403   0.55685   0.75058   0.00000  Uiso   1.00
O1328  O     0.87812   0.60241   0.71603   0.00000  Uiso   1.00
O1329  O     0.73268   0.44312   0.91607   0.00000  Uiso   1.00
O1330  O     0.78856   0.39757   0.95068   0.00000  Uiso   1.00
O1331  O     0.90882   0.56938   0.93316   0.00000  Uiso   1.00
O1332  O     0.96285   0.54938   0.99461   0.00000  Uiso   1.00
O1333  O     0.75785   0.43062   0.73351   0.00000  Uiso   1.00
O1334  O     0.83334   0.56108   0.79513   0.00000  Uiso   1.00
O1335  O     0.70382   0.45059   0.67204   0.00000  Uiso   1.00
O1336  O     0.83333   0.43893   0.79510   0.00000  Uiso   1.00
O1337  O     0.83334   0.56107   0.87157   0.00000  Uiso   1.00
O1338  O     0.75725   0.50000   0.86261   0.00000  Uiso   1.00
O1339  O     0.90942   0.50000   0.80405   0.00000  Uiso   1.00
O1340  O     0.75725   0.50000   0.78617   0.00000  Uiso   1.00
O1341  O     0.90942   0.50000   0.88050   0.00000  Uiso   1.00
O1342  O     0.98418   0.47917   0.73900   0.00000  Uiso   1.00
Zn1343 Zn    0.83333   0.49999   0.88437   0.00000  Uiso   1.00
Zn1344 Zn    0.83333   0.50001   0.78229   0.00000  Uiso   1.00
C1345  C     0.16711   0.75347   0.83314   0.00000  Uiso   1.00
C1346  C     0.18266   0.68940   0.87376   0.00000  Uiso   1.00
C1347  C     0.16557   0.95740   0.83370   0.00000  Uiso   1.00
C1348  C     0.16776   0.70927   0.83297   0.00000  Uiso   1.00
C1349  C     0.19981   0.86029   0.69590   0.00000  Uiso   1.00
C1350  C     0.13353   0.80637   0.97077   0.00000  Uiso   1.00
C1351  C     0.20197   0.85884   0.98187   0.00000  Uiso   1.00
C1352  C     0.13137   0.80783   0.68480   0.00000  Uiso   1.00
C1353  C     0.32054   0.79972   0.77744   0.00000  Uiso   1.00
C1354  C     0.01279   0.86694   0.88923   0.00000  Uiso   1.00
C1355  C     0.22794   0.89550   0.72373   0.00000  Uiso   1.00
C1356  C     0.16623   0.91319   0.83353   0.00000  Uiso   1.00
C1357  C     0.10542   0.77115   0.94295   0.00000  Uiso   1.00
C1358  C     0.24726   0.88214   0.96710   0.00000  Uiso   1.00
C1359  C     0.08607   0.78452   0.69957   0.00000  Uiso   1.00
C1360  C     0.06729   0.83321   0.82145   0.00000  Uiso   1.00
C1361  C     0.26604   0.83345   0.84522   0.00000  Uiso   1.00
C1362  C     0.01226   0.82721   0.81616   0.00000  Uiso   1.00
C1363  C     0.32108   0.83945   0.85051   0.00000  Uiso   1.00
C1364  C     0.15232   0.68664   0.79245   0.00000  Uiso   1.00
C1365  C     0.18101   0.98002   0.87422   0.00000  Uiso   1.00
C1366  C     0.15067   0.97726   0.79291   0.00000  Uiso   1.00
H1367  H     0.14103   0.70167   0.76065   0.00000  Uiso   1.00
H1368  H     0.01075   0.76295   0.68195   0.00000  Uiso   1.00
H1369  H     0.19231   0.96500   0.90602   0.00000  Uiso   1.00
H1370  H     0.13756   0.95989   0.76150   0.00000  Uiso   1.00
H1371  H     0.19577   0.70677   0.90517   0.00000  Uiso   1.00
H1372  H     0.28213   0.74473   0.75638   0.00000  Uiso   1.00
H1373  H     0.05117   0.92193   0.91030   0.00000  Uiso   1.00
H1374  H     0.23449   0.95767   0.73579   0.00000  Uiso   1.00
H1375  H     0.09888   0.70897   0.93093   0.00000  Uiso   1.00
H1376  H     0.32259   0.90369   0.98470   0.00000  Uiso   1.00
N1377  N     0.16665   0.83332   0.95240   0.00000  Uiso   1.00
N1378  N     0.16668   0.83334   0.71427   0.00000  Uiso   1.00
O1379  O     0.16666   0.77225   0.87154   0.00000  Uiso   1.00
O1380  O     0.29895   0.76009   0.78534   0.00000  Uiso   1.00
O1381  O     0.01585   0.85414   0.92767   0.00000  Uiso   1.00
O1382  O     0.03435   0.90658   0.88134   0.00000  Uiso   1.00
O1383  O     0.26736   0.89018   0.75058   0.00000  Uiso   1.00
O1384  O     0.21146   0.93575   0.71603   0.00000  Uiso   1.00
O1385  O     0.06602   0.77645   0.91607   0.00000  Uiso   1.00
O1386  O     0.12190   0.73090   0.95068   0.00000  Uiso   1.00
O1387  O     0.24215   0.90271   0.93316   0.00000  Uiso   1.00
O1388  O     0.29618   0.88272   0.99461   0.00000  Uiso   1.00
O1389  O     0.09119   0.76395   0.73351   0.00000  Uiso   1.00
O1390  O     0.16667   0.89442   0.79513   0.00000  Uiso   1.00
O1391  O     0.03716   0.78393   0.67204   0.00000  Uiso   1.00
O1392  O     0.16666   0.77226   0.79510   0.00000  Uiso   1.00
O1393  O     0.16667   0.89441   0.87157   0.00000  Uiso   1.00
O1394  O     0.09058   0.83333   0.86261   0.00000  Uiso   1.00
O1395  O     0.24275   0.83334   0.80405   0.00000  Uiso   1.00
O1396  O     0.09058   0.83334   0.78617   0.00000  Uiso   1.00
O1397  O     0.24275   0.83333   0.88050   0.00000  Uiso   1.00
O1398  O     0.31751   0.81250   0.73900   0.00000  Uiso   1.00
Zn1399 Zn    0.16667   0.83333   0.88437   0.00000  Uiso   1.00
Zn1400 Zn    0.16667   0.83334   0.78229   0.00000  Uiso   1.00
C1401  C     0.50044   0.75347   0.83314   0.00000  Uiso   1.00
C1402  C     0.51599   0.68940   0.87376   0.00000  Uiso   1.00
C1403  C     0.49890   0.95740   0.83370   0.00000  Uiso   1.00
C1404  C     0.50110   0.70927   0.83297   0.00000  Uiso   1.00
C1405  C     0.53314   0.86029   0.69590   0.00000  Uiso   1.00
C1406  C     0.46686   0.80637   0.97077   0.00000  Uiso   1.00
C1407  C     0.53530   0.85884   0.98187   0.00000  Uiso   1.00
C1408  C     0.46470   0.80783   0.68480   0.00000  Uiso   1.00
C1409  C     0.65387   0.79972   0.77744   0.00000  Uiso   1.00
C1410  C     0.34613   0.86694   0.88923   0.00000  Uiso   1.00
C1411  C     0.56128   0.89550   0.72373   0.00000  Uiso   1.00
C1412  C     0.49956   0.91319   0.83353   0.00000  Uiso   1.00
C1413  C     0.43875   0.77115   0.94295   0.00000  Uiso   1.00
C1414  C     0.58060   0.88214   0.96710   0.00000  Uiso   1.00
C1415  C     0.41941   0.78452   0.69957   0.00000  Uiso   1.00
C1416  C     0.40063   0.83321   0.82145   0.00000  Uiso   1.00
C1417  C     0.59937   0.83345   0.84522   0.00000  Uiso   1.00
C1418  C     0.34559   0.82721   0.81616   0.00000  Uiso   1.00
C1419  C     0.65441   0.83945   0.85051   0.00000  Uiso   1.00
C1420  C     0.48566   0.68664   0.79245   0.00000  Uiso   1.00
C1421  C     0.51434   0.98002   0.87422   0.00000  Uiso   1.00
C1422  C     0.48401   0.97726   0.79291   0.00000  Uiso   1.00
H1423  H     0.47436   0.70167   0.76065   0.00000  Uiso   1.00
H1424  H     0.34409   0.76295   0.68195   0.00000  Uiso   1.00
H1425  H     0.52564   0.96500   0.90602   0.00000  Uiso   1.00
H1426  H     0.47089   0.95989   0.76150   0.00000  Uiso   1.00
H1427  H     0.52911   0.70677   0.90517   0.00000  Uiso   1.00
H1428  H     0.61547   0.74473   0.75638   0.00000  Uiso   1.00
H1429  H     0.38450   0.92193   0.91030   0.00000  Uiso   1.00
H1430  H     0.56782   0.95767   0.73579   0.00000  Uiso   1.00
H1431  H     0.43222   0.70897   0.93093   0.00000  Uiso   1.00
H1432  H     0.65593   0.90369   0.98470   0.00000  Uiso   1.00
N1433  N     0.49999   0.83332   0.95240   0.00000  Uiso   1.00
N1434  N     0.50001   0.83334   0.71427   0.00000  Uiso   1.00
O1435  O     0.50000   0.77225   0.87154   0.00000  Uiso   1.00
O1436  O     0.63228   0.76009   0.78534   0.00000  Uiso   1.00
O1437  O     0.34918   0.85414   0.92767   0.00000  Uiso   1.00
O1438  O     0.36769   0.90658   0.88134   0.00000  Uiso   1.00
O1439  O     0.60070   0.89018   0.75058   0.00000  Uiso   1.00
O1440  O     0.54479   0.93575   0.71603   0.00000  Uiso   1.00
O1441  O     0.39935   0.77645   0.91607   0.00000  Uiso   1.00
O1442  O     0.45523   0.73090   0.95068   0.00000  Uiso   1.00
O1443  O     0.57548   0.90271   0.93316   0.00000  Uiso   1.00
O1444  O     0.62952   0.88272   0.99461   0.00000  Uiso   1.00
O1445  O     0.42452   0.76395   0.73351   0.00000  Uiso   1.00
O1446  O     0.50000   0.89442   0.79513   0.00000  Uiso   1.00
O1447  O     0.37049   0.78393   0.67204   0.00000  Uiso   1.00
O1448  O     0.50000   0.77226   0.79510   0.00000  Uiso   1.00
O1449  O     0.50000   0.89441   0.87157   0.00000  Uiso   1.00
O1450  O     0.42392   0.83333   0.86261   0.00000  Uiso   1.00
O1451  O     0.57608   0.83334   0.80405   0.00000  Uiso   1.00
O1452  O     0.42392   0.83334   0.78617   0.00000  Uiso   1.00
O1453  O     0.57608   0.83333   0.88050   0.00000  Uiso   1.00
O1454  O     0.65085   0.81250   0.73900   0.00000  Uiso   1.00
Zn1455 Zn    0.50000   0.83333   0.88437   0.00000  Uiso   1.00
Zn1456 Zn    0.50000   0.83334   0.78229   0.00000  Uiso   1.00
C1457  C     0.83377   0.75347   0.83314   0.00000  Uiso   1.00
C1458  C     0.84933   0.68940   0.87376   0.00000  Uiso   1.00
C1459  C     0.83224   0.95740   0.83370   0.00000  Uiso   1.00
C1460  C     0.83443   0.70927   0.83297   0.00000  Uiso   1.00
C1461  C     0.86648   0.86029   0.69590   0.00000  Uiso   1.00
C1462  C     0.80020   0.80637   0.97077   0.00000  Uiso   1.00
C1463  C     0.86863   0.85884   0.98187   0.00000  Uiso   1.00
C1464  C     0.79804   0.80783   0.68480   0.00000  Uiso   1.00
C1465  C     0.98721   0.79972   0.77744   0.00000  Uiso   1.00
C1466  C     0.67946   0.86694   0.88923   0.00000  Uiso   1.00
C1467  C     0.89461   0.89550   0.72373   0.00000  Uiso   1.00
C1468  C     0.83289   0.91319   0.83353   0.00000  Uiso   1.00
C1469  C     0.77208   0.77115   0.94295   0.00000  Uiso   1.00
C1470  C     0.91393   0.88214   0.96710   0.00000  Uiso   1.00
C1471  C     0.75274   0.78452   0.69957   0.00000  Uiso   1.00
C1472  C     0.73396   0.83321   0.82145   0.00000  Uiso   1.00
C1473  C     0.93271   0.83345   0.84522   0.00000  Uiso   1.00
C1474  C     0.67892   0.82721   0.81616   0.00000  Uiso   1.00
C1475  C     0.98774   0.83945   0.85051   0.00000  Uiso   1.00
C1476  C     0.81899   0.68664   0.79245   0.00000  Uiso   1.00
C1477  C     0.84768   0.98002   0.87422   0.00000  Uiso   1.00
C1478  C     0.81734   0.97726   0.79291   0.00000  Uiso   1.00
H1479  H     0.80770   0.70167   0.76065   0.00000  Uiso   1.00
H1480  H     0.67742   0.76295   0.68195   0.00000  Uiso   1.00
H1481  H     0.85897   0.96500   0.90602   0.00000  Uiso   1.00
H1482  H     0.80423   0.95989   0.76150   0.00000  Uiso   1.00
H1483  H     0.86244   0.70677   0.90517   0.00000  Uiso   1.00
H1484  H     0.94880   0.74473   0.75638   0.00000  Uiso   1.00
H1485  H     0.71784   0.92193   0.91030   0.00000  Uiso   1.00
H1486  H     0.90115   0.95767   0.73579   0.00000  Uiso   1.00
H1487  H     0.76555   0.70897   0.93093   0.00000  Uiso   1.00
H1488  H     0.98926   0.90369   0.98470   0.00000  Uiso   1.00
N1489  N     0.83332   0.83332   0.95240   0.00000  Uiso   1.00
N1490  N     0.83335   0.83334   0.71427   0.00000  Uiso   1.00
O1491  O     0.83333   0.77225   0.87154   0.00000  Uiso   1.00
O1492  O     0.96561   0.76009   0.78534   0.00000  Uiso   1.00
O1493  O     0.68252   0.85414   0.92767   0.00000  Uiso   1.00
O1494  O     0.70102   0.90658   0.88134   0.00000  Uiso   1.00
O1495  O     0.93403   0.89018   0.75058   0.00000  Uiso   1.00
O1496  O     0.87812   0.93575   0.71603   0.00000  Uiso   1.00
O1497  O     0.73268   0.77645   0.91607   0.00000  Uiso   1.00
O1498  O     0.78856   0.73090   0.95068   0.00000  Uiso   1.00
O1499  O     0.90882   0.90271   0.93316   0.00000  Uiso   1.00
O1500  O     0.96285   0.88272   0.99461   0.00000  Uiso   1.00
O1501  O     0.75785   0.76395   0.73351   0.00000  Uiso   1.00
O1502  O     0.83334   0.89442   0.79513   0.00000  Uiso   1.00
O1503  O     0.70382   0.78393   0.67204   0.00000  Uiso   1.00
O1504  O     0.83333   0.77226   0.79510   0.00000  Uiso   1.00
O1505  O     0.83334   0.89441   0.87157   0.00000  Uiso   1.00
O1506  O     0.75725   0.83333   0.86261   0.00000  Uiso   1.00
O1507  O     0.90942   0.83334   0.80405   0.00000  Uiso   1.00
O1508  O     0.75725   0.83334   0.78617   0.00000  Uiso   1.00
O1509  O     0.90942   0.83333   0.88050   0.00000  Uiso   1.00
O1510  O     0.98418   0.81250   0.73900   0.00000  Uiso   1.00
Zn1511 Zn    0.83333   0.83333   0.88437   0.00000  Uiso   1.00
Zn1512 Zn    0.83333   0.83334   0.78229   0.00000  Uiso   1.00
loop_
_geom_bond_atom_site_label_1
_geom_bond_atom_site_label_2
_geom_bond_distance
_geom_bond_site_symmetry_2
_ccdc_geom_bond_type
C1     O48     1.296   .     A
C1     C4      1.420   .     S
C1     O35     1.294   .     A
C2     C4      1.397   .     A
C2     H27     1.083   .     S
C2     C357    1.370   1_545 S
C3     C21     1.395   .     A
C3     C22     1.397   .     A
C3     C12     1.420   .     S
C4     C20     1.395   .     A
C5     N34     1.367   .     A
C5     C11     1.479   .     S
C5     C1015   1.430   1_554 S
C6     N33     1.367   .     A
C6     C13     1.479   .     S
C6     C512    1.430   .     S
C7     N33     1.387   .     A
C7     C14     1.487   .     S
C7     C509    1.430   .     S
C8     N34     1.387   .     A
C8     C15     1.487   .     S
C8     C1014   1.430   1_554 S
C9     O36     1.398   .     S
C9     O54     1.221   .     D
C9     C74     1.486   .     S
C10    O38     1.398   .     S
C10    O37     1.221   .     D
C10    C131    1.486   1_455 S
C11    O39     1.220   .     D
C11    O40     1.397   .     S
C12    O49     1.296   .     A
C12    O46     1.294   .     A
C13    O41     1.220   .     D
C13    O42     1.397   .     S
C14    O44     1.400   .     S
C14    O43     1.215   .     D
C15    O47     1.400   .     S
C15    O45     1.215   .     D
C16    C18     1.415   .     S
C16    O50     1.284   .     A
C16    O52     1.300   .     A
C17    O51     1.284   .     A
C17    C19     1.415   .     S
C17    O53     1.300   .     A
C18    C121    1.486   1_455 S
C18    C131    1.360   1_455 S
C19    C74     1.360   .     S
C19    C66     1.486   .     S
C20    H23     1.081   .     S
C20    C358    1.370   1_545 S
C21    H25     1.081   .     S
C21    C170    1.370   .     S
C22    H26     1.083   .     S
C22    C188    1.370   .     S
H24    O47     1.014   .     S
H28    O36     1.014   .     S
H29    O38     1.014   .     S
H30    O40     1.014   .     S
H31    O42     1.014   .     S
H32    O44     1.014   .     S
N33    Zn55    2.039   .     S
N34    Zn56    2.039   .     S
O35    Zn55    1.993   .     S
O46    Zn56    1.993   .     S
O48    Zn56    2.004   .     S
O49    Zn55    2.004   .     S
O50    Zn55    1.981   .     S
O51    Zn56    1.981   .     S
O52    Zn56    2.000   .     S
O53    Zn55    2.000   .     S
C57    O104    1.296   .     A
C57    C60     1.420   .     S
C57    O91     1.294   .     A
C58    C60     1.397   .     A
C58    H83     1.083   .     S
C58    C413    1.370   1_545 S
C59    C77     1.395   .     A
C59    C78     1.397   .     A
C59    C68     1.420   .     S
C60    C76     1.395   .     A
C61    N90     1.367   .     A
C61    C67     1.479   .     S
C61    C1071   1.430   1_554 S
C62    N89     1.367   .     A
C62    C69     1.479   .     S
C62    C568    1.430   .     S
C63    N89     1.387   .     A
C63    C70     1.487   .     S
C63    C565    1.430   .     S
C64    N90     1.387   .     A
C64    C71     1.487   .     S
C64    C1070   1.430   1_554 S
C65    O92     1.398   .     S
C65    O110    1.221   .     D
C65    C130    1.486   .     S
C66    O94     1.398   .     S
C66    O93     1.221   .     D
C67    O95     1.220   .     D
C67    O96     1.397   .     S
C68    O105    1.296   .     A
C68    O102    1.294   .     A
C69    O97     1.220   .     D
C69    O98     1.397   .     S
C70    O100    1.400   .     S
C70    O99     1.215   .     D
C71    O103    1.400   .     S
C71    O101    1.215   .     D
C72    C74     1.415   .     S
C72    O106    1.284   .     A
C72    O108    1.300   .     A
C73    O107    1.284   .     A
C73    C75     1.415   .     S
C73    O109    1.300   .     A
C75    C130    1.360   .     S
C75    C122    1.486   .     S
C76    H79     1.081   .     S
C76    C414    1.370   1_545 S
C77    H81     1.081   .     S
C77    C226    1.370   .     S
C78    H82     1.083   .     S
C78    C244    1.370   .     S
H80    O103    1.014   .     S
H84    O92     1.014   .     S
H85    O94     1.014   .     S
H86    O96     1.014   .     S
H87    O98     1.014   .     S
H88    O100    1.014   .     S
N89    Zn111   2.039   .     S
N90    Zn112   2.039   .     S
O91    Zn111   1.993   .     S
O102   Zn112   1.993   .     S
O104   Zn112   2.004   .     S
O105   Zn111   2.004   .     S
O106   Zn111   1.981   .     S
O107   Zn112   1.981   .     S
O108   Zn112   2.000   .     S
O109   Zn111   2.000   .     S
C113   O160    1.296   .     A
C113   C116    1.420   .     S
C113   O147    1.294   .     A
C114   C116    1.397   .     A
C114   H139    1.083   .     S
C114   C469    1.370   1_545 S
C115   C133    1.395   .     A
C115   C134    1.397   .     A
C115   C124    1.420   .     S
C116   C132    1.395   .     A
C117   N146    1.367   .     A
C117   C123    1.479   .     S
C117   C1127   1.430   1_554 S
C118   N145    1.367   .     A
C118   C125    1.479   .     S
C118   C624    1.430   .     S
C119   N145    1.387   .     A
C119   C126    1.487   .     S
C119   C621    1.430   .     S
C120   N146    1.387   .     A
C120   C127    1.487   .     S
C120   C1126   1.430   1_554 S
C121   O148    1.398   .     S
C121   O166    1.221   .     D
C121   C18     1.486   1_655 S
C122   O150    1.398   .     S
C122   O149    1.221   .     D
C123   O151    1.220   .     D
C123   O152    1.397   .     S
C124   O161    1.296   .     A
C124   O158    1.294   .     A
C125   O153    1.220   .     D
C125   O154    1.397   .     S
C126   O156    1.400   .     S
C126   O155    1.215   .     D
C127   O159    1.400   .     S
C127   O157    1.215   .     D
C128   C130    1.415   .     S
C128   O162    1.284   .     A
C128   O164    1.300   .     A
C129   O163    1.284   .     A
C129   C131    1.415   .     S
C129   O165    1.300   .     A
C131   C18     1.360   1_655 S
C131   C10     1.486   1_655 S
C132   H135    1.081   .     S
C132   C470    1.370   1_545 S
C133   H137    1.081   .     S
C133   C282    1.370   .     S
C134   H138    1.083   .     S
C134   C300    1.370   .     S
H136   O159    1.014   .     S
H140   O148    1.014   .     S
H141   O150    1.014   .     S
H142   O152    1.014   .     S
H143   O154    1.014   .     S
H144   O156    1.014   .     S
N145   Zn167   2.039   .     S
N146   Zn168   2.039   .     S
O147   Zn167   1.993   .     S
O158   Zn168   1.993   .     S
O160   Zn168   2.004   .     S
O161   Zn167   2.004   .     S
O162   Zn167   1.981   .     S
O163   Zn168   1.981   .     S
O164   Zn168   2.000   .     S
O165   Zn167   2.000   .     S
C169   O216    1.296   .     A
C169   C172    1.420   .     S
C169   O203    1.294   .     A
C170   C172    1.397   .     A
C170   H195    1.083   .     S
C171   C189    1.395   .     A
C171   C190    1.397   .     A
C171   C180    1.420   .     S
C172   C188    1.395   .     A
C173   N202    1.367   .     A
C173   C179    1.479   .     S
C173   C1183   1.430   1_554 S
C174   N201    1.367   .     A
C174   C181    1.479   .     S
C174   C680    1.430   .     S
C175   N201    1.387   .     A
C175   C182    1.487   .     S
C175   C677    1.430   .     S
C176   N202    1.387   .     A
C176   C183    1.487   .     S
C176   C1182   1.430   1_554 S
C177   O204    1.398   .     S
C177   O222    1.221   .     D
C177   C242    1.486   .     S
C178   O206    1.398   .     S
C178   O205    1.221   .     D
C178   C299    1.486   1_455 S
C179   O207    1.220   .     D
C179   O208    1.397   .     S
C180   O217    1.296   .     A
C180   O214    1.294   .     A
C181   O209    1.220   .     D
C181   O210    1.397   .     S
C182   O212    1.400   .     S
C182   O211    1.215   .     D
C183   O215    1.400   .     S
C183   O213    1.215   .     D
C184   C186    1.415   .     S
C184   O218    1.284   .     A
C184   O220    1.300   .     A
C185   O219    1.284   .     A
C185   C187    1.415   .     S
C185   O221    1.300   .     A
C186   C289    1.486   1_455 S
C186   C299    1.360   1_455 S
C187   C242    1.360   .     S
C187   C234    1.486   .     S
C188   H191    1.081   .     S
C189   H193    1.081   .     S
C189   C338    1.370   .     S
C190   H194    1.083   .     S
C190   C356    1.370   .     S
H192   O215    1.014   .     S
H196   O204    1.014   .     S
H197   O206    1.014   .     S
H198   O208    1.014   .     S
H199   O210    1.014   .     S
H200   O212    1.014   .     S
N201   Zn223   2.039   .     S
N202   Zn224   2.039   .     S
O203   Zn223   1.993   .     S
O214   Zn224   1.993   .     S
O216   Zn224   2.004   .     S
O217   Zn223   2.004   .     S
O218   Zn223   1.981   .     S
O219   Zn224   1.981   .     S
O220   Zn224   2.000   .     S
O221   Zn223   2.000   .     S
C225   O272    1.296   .     A
C225   C228    1.420   .     S
C225   O259    1.294   .     A
C226   C228    1.397   .     A
C226   H251    1.083   .     S
C227   C245    1.395   .     A
C227   C246    1.397   .     A
C227   C236    1.420   .     S
C228   C244    1.395   .     A
C229   N258    1.367   .     A
C229   C235    1.479   .     S
C229   C1239   1.430   1_554 S
C230   N257    1.367   .     A
C230   C237    1.479   .     S
C230   C736    1.430   .     S
C231   N257    1.387   .     A
C231   C238    1.487   .     S
C231   C733    1.430   .     S
C232   N258    1.387   .     A
C232   C239    1.487   .     S
C232   C1238   1.430   1_554 S
C233   O260    1.398   .     S
C233   O278    1.221   .     D
C233   C298    1.486   .     S
C234   O262    1.398   .     S
C234   O261    1.221   .     D
C235   O263    1.220   .     D
C235   O264    1.397   .     S
C236   O273    1.296   .     A
C236   O270    1.294   .     A
C237   O265    1.220   .     D
C237   O266    1.397   .     S
C238   O268    1.400   .     S
C238   O267    1.215   .     D
C239   O271    1.400   .     S
C239   O269    1.215   .     D
C240   C242    1.415   .     S
C240   O274    1.284   .     A
C240   O276    1.300   .     A
C241   O275    1.284   .     A
C241   C243    1.415   .     S
C241   O277    1.300   .     A
C243   C298    1.360   .     S
C243   C290    1.486   .     S
C244   H247    1.081   .     S
C245   H249    1.081   .     S
C245   C394    1.370   .     S
C246   H250    1.083   .     S
C246   C412    1.370   .     S
H248   O271    1.014   .     S
H252   O260    1.014   .     S
H253   O262    1.014   .     S
H254   O264    1.014   .     S
H255   O266    1.014   .     S
H256   O268    1.014   .     S
N257   Zn279   2.039   .     S
N258   Zn280   2.039   .     S
O259   Zn279   1.993   .     S
O270   Zn280   1.993   .     S
O272   Zn280   2.004   .     S
O273   Zn279   2.004   .     S
O274   Zn279   1.981   .     S
O275   Zn280   1.981   .     S
O276   Zn280   2.000   .     S
O277   Zn279   2.000   .     S
C281   O328    1.296   .     A
C281   C284    1.420   .     S
C281   O315    1.294   .     A
C282   C284    1.397   .     A
C282   H307    1.083   .     S
C283   C301    1.395   .     A
C283   C302    1.397   .     A
C283   C292    1.420   .     S
C284   C300    1.395   .     A
C285   N314    1.367   .     A
C285   C291    1.479   .     S
C285   C1295   1.430   1_554 S
C286   N313    1.367   .     A
C286   C293    1.479   .     S
C286   C792    1.430   .     S
C287   N313    1.387   .     A
C287   C294    1.487   .     S
C287   C789    1.430   .     S
C288   N314    1.387   .     A
C288   C295    1.487   .     S
C288   C1294   1.430   1_554 S
C289   O316    1.398   .     S
C289   O334    1.221   .     D
C289   C186    1.486   1_655 S
C290   O318    1.398   .     S
C290   O317    1.221   .     D
C291   O319    1.220   .     D
C291   O320    1.397   .     S
C292   O329    1.296   .     A
C292   O326    1.294   .     A
C293   O321    1.220   .     D
C293   O322    1.397   .     S
C294   O324    1.400   .     S
C294   O323    1.215   .     D
C295   O327    1.400   .     S
C295   O325    1.215   .     D
C296   C298    1.415   .     S
C296   O330    1.284   .     A
C296   O332    1.300   .     A
C297   O331    1.284   .     A
C297   C299    1.415   .     S
C297   O333    1.300   .     A
C299   C186    1.360   1_655 S
C299   C178    1.486   1_655 S
C300   H303    1.081   .     S
C301   H305    1.081   .     S
C301   C450    1.370   .     S
C302   H306    1.083   .     S
C302   C468    1.370   .     S
H304   O327    1.014   .     S
H308   O316    1.014   .     S
H309   O318    1.014   .     S
H310   O320    1.014   .     S
H311   O322    1.014   .     S
H312   O324    1.014   .     S
N313   Zn335   2.039   .     S
N314   Zn336   2.039   .     S
O315   Zn335   1.993   .     S
O326   Zn336   1.993   .     S
O328   Zn336   2.004   .     S
O329   Zn335   2.004   .     S
O330   Zn335   1.981   .     S
O331   Zn336   1.981   .     S
O332   Zn336   2.000   .     S
O333   Zn335   2.000   .     S
C337   O384    1.296   .     A
C337   C340    1.420   .     S
C337   O371    1.294   .     A
C338   C340    1.397   .     A
C338   H363    1.083   .     S
C339   C357    1.395   .     A
C339   C358    1.397   .     A
C339   C348    1.420   .     S
C340   C356    1.395   .     A
C341   N370    1.367   .     A
C341   C347    1.479   .     S
C341   C1351   1.430   1_554 S
C342   N369    1.367   .     A
C342   C349    1.479   .     S
C342   C848    1.430   .     S
C343   N369    1.387   .     A
C343   C350    1.487   .     S
C343   C845    1.430   .     S
C344   N370    1.387   .     A
C344   C351    1.487   .     S
C344   C1350   1.430   1_554 S
C345   O372    1.398   .     S
C345   O390    1.221   .     D
C345   C410    1.486   .     S
C346   O374    1.398   .     S
C346   O373    1.221   .     D
C346   C467    1.486   1_455 S
C347   O375    1.220   .     D
C347   O376    1.397   .     S
C348   O385    1.296   .     A
C348   O382    1.294   .     A
C349   O377    1.220   .     D
C349   O378    1.397   .     S
C350   O380    1.400   .     S
C350   O379    1.215   .     D
C351   O383    1.400   .     S
C351   O381    1.215   .     D
C352   C354    1.415   .     S
C352   O386    1.284   .     A
C352   O388    1.300   .     A
C353   O387    1.284   .     A
C353   C355    1.415   .     S
C353   O389    1.300   .     A
C354   C457    1.486   1_455 S
C354   C467    1.360   1_455 S
C355   C410    1.360   .     S
C355   C402    1.486   .     S
C356   H359    1.081   .     S
C357   H361    1.081   .     S
C357   C2      1.370   1_565 S
C358   H362    1.083   .     S
C358   C20     1.370   1_565 S
H360   O383    1.014   .     S
H364   O372    1.014   .     S
H365   O374    1.014   .     S
H366   O376    1.014   .     S
H367   O378    1.014   .     S
H368   O380    1.014   .     S
N369   Zn391   2.039   .     S
N370   Zn392   2.039   .     S
O371   Zn391   1.993   .     S
O382   Zn392   1.993   .     S
O384   Zn392   2.004   .     S
O385   Zn391   2.004   .     S
O386   Zn391   1.981   .     S
O387   Zn392   1.981   .     S
O388   Zn392   2.000   .     S
O389   Zn391   2.000   .     S
C393   O440    1.296   .     A
C393   C396    1.420   .     S
C393   O427    1.294   .     A
C394   C396    1.397   .     A
C394   H419    1.083   .     S
C395   C413    1.395   .     A
C395   C414    1.397   .     A
C395   C404    1.420   .     S
C396   C412    1.395   .     A
C397   N426    1.367   .     A
C397   C403    1.479   .     S
C397   C1407   1.430   1_554 S
C398   N425    1.367   .     A
C398   C405    1.479   .     S
C398   C904    1.430   .     S
C399   N425    1.387   .     A
C399   C406    1.487   .     S
C399   C901    1.430   .     S
C400   N426    1.387   .     A
C400   C407    1.487   .     S
C400   C1406   1.430   1_554 S
C401   O428    1.398   .     S
C401   O446    1.221   .     D
C401   C466    1.486   .     S
C402   O430    1.398   .     S
C402   O429    1.221   .     D
C403   O431    1.220   .     D
C403   O432    1.397   .     S
C404   O441    1.296   .     A
C404   O438    1.294   .     A
C405   O433    1.220   .     D
C405   O434    1.397   .     S
C406   O436    1.400   .     S
C406   O435    1.215   .     D
C407   O439    1.400   .     S
C407   O437    1.215   .     D
C408   C410    1.415   .     S
C408   O442    1.284   .     A
C408   O444    1.300   .     A
C409   O443    1.284   .     A
C409   C411    1.415   .     S
C409   O445    1.300   .     A
C411   C466    1.360   .     S
C411   C458    1.486   .     S
C412   H415    1.081   .     S
C413   H417    1.081   .     S
C413   C58     1.370   1_565 S
C414   H418    1.083   .     S
C414   C76     1.370   1_565 S
H416   O439    1.014   .     S
H420   O428    1.014   .     S
H421   O430    1.014   .     S
H422   O432    1.014   .     S
H423   O434    1.014   .     S
H424   O436    1.014   .     S
N425   Zn447   2.039   .     S
N426   Zn448   2.039   .     S
O427   Zn447   1.993   .     S
O438   Zn448   1.993   .     S
O440   Zn448   2.004   .     S
O441   Zn447   2.004   .     S
O442   Zn447   1.981   .     S
O443   Zn448   1.981   .     S
O444   Zn448   2.000   .     S
O445   Zn447   2.000   .     S
C449   O496    1.296   .     A
C449   C452    1.420   .     S
C449   O483    1.294   .     A
C450   C452    1.397   .     A
C450   H475    1.083   .     S
C451   C469    1.395   .     A
C451   C470    1.397   .     A
C451   C460    1.420   .     S
C452   C468    1.395   .     A
C453   N482    1.367   .     A
C453   C459    1.479   .     S
C453   C1463   1.430   1_554 S
C454   N481    1.367   .     A
C454   C461    1.479   .     S
C454   C960    1.430   .     S
C455   N481    1.387   .     A
C455   C462    1.487   .     S
C455   C957    1.430   .     S
C456   N482    1.387   .     A
C456   C463    1.487   .     S
C456   C1462   1.430   1_554 S
C457   O484    1.398   .     S
C457   O502    1.221   .     D
C457   C354    1.486   1_655 S
C458   O486    1.398   .     S
C458   O485    1.221   .     D
C459   O487    1.220   .     D
C459   O488    1.397   .     S
C460   O497    1.296   .     A
C460   O494    1.294   .     A
C461   O489    1.220   .     D
C461   O490    1.397   .     S
C462   O492    1.400   .     S
C462   O491    1.215   .     D
C463   O495    1.400   .     S
C463   O493    1.215   .     D
C464   C466    1.415   .     S
C464   O498    1.284   .     A
C464   O500    1.300   .     A
C465   O499    1.284   .     A
C465   C467    1.415   .     S
C465   O501    1.300   .     A
C467   C354    1.360   1_655 S
C467   C346    1.486   1_655 S
C468   H471    1.081   .     S
C469   H473    1.081   .     S
C469   C114    1.370   1_565 S
C470   H474    1.083   .     S
C470   C132    1.370   1_565 S
H472   O495    1.014   .     S
H476   O484    1.014   .     S
H477   O486    1.014   .     S
H478   O488    1.014   .     S
H479   O490    1.014   .     S
H480   O492    1.014   .     S
N481   Zn503   2.039   .     S
N482   Zn504   2.039   .     S
O483   Zn503   1.993   .     S
O494   Zn504   1.993   .     S
O496   Zn504   2.004   .     S
O497   Zn503   2.004   .     S
O498   Zn503   1.981   .     S
O499   Zn504   1.981   .     S
O500   Zn504   2.000   .     S
O501   Zn503   2.000   .     S
C505   O552    1.296   .     A
C505   C508    1.420   .     S
C505   O539    1.294   .     A
C506   C508    1.397   .     A
C506   H531    1.083   .     S
C506   C861    1.370   1_545 S
C507   C525    1.395   .     A
C507   C526    1.397   .     A
C507   C516    1.420   .     S
C508   C524    1.395   .     A
C509   N538    1.367   .     A
C509   C515    1.479   .     S
C510   N537    1.367   .     A
C510   C517    1.479   .     S
C510   C1016   1.430   .     S
C511   N537    1.387   .     A
C511   C518    1.487   .     S
C511   C1013   1.430   .     S
C512   N538    1.387   .     A
C512   C519    1.487   .     S
C513   O540    1.398   .     S
C513   O558    1.221   .     D
C513   C578    1.486   .     S
C514   O542    1.398   .     S
C514   O541    1.221   .     D
C514   C635    1.486   1_455 S
C515   O543    1.220   .     D
C515   O544    1.397   .     S
C516   O553    1.296   .     A
C516   O550    1.294   .     A
C517   O545    1.220   .     D
C517   O546    1.397   .     S
C518   O548    1.400   .     S
C518   O547    1.215   .     D
C519   O551    1.400   .     S
C519   O549    1.215   .     D
C520   C522    1.415   .     S
C520   O554    1.284   .     A
C520   O556    1.300   .     A
C521   O555    1.284   .     A
C521   C523    1.415   .     S
C521   O557    1.300   .     A
C522   C625    1.486   1_455 S
C522   C635    1.360   1_455 S
C523   C578    1.360   .     S
C523   C570    1.486   .     S
C524   H527    1.081   .     S
C524   C862    1.370   1_545 S
C525   H529    1.081   .     S
C525   C674    1.370   .     S
C526   H530    1.083   .     S
C526   C692    1.370   .     S
H528   O551    1.014   .     S
H532   O540    1.014   .     S
H533   O542    1.014   .     S
H534   O544    1.014   .     S
H535   O546    1.014   .     S
H536   O548    1.014   .     S
N537   Zn559   2.039   .     S
N538   Zn560   2.039   .     S
O539   Zn559   1.993   .     S
O550   Zn560   1.993   .     S
O552   Zn560   2.004   .     S
O553   Zn559   2.004   .     S
O554   Zn559   1.981   .     S
O555   Zn560   1.981   .     S
O556   Zn560   2.000   .     S
O557   Zn559   2.000   .     S
C561   O608    1.296   .     A
C561   C564    1.420   .     S
C561   O595    1.294   .     A
C562   C564    1.397   .     A
C562   H587    1.083   .     S
C562   C917    1.370   1_545 S
C563   C581    1.395   .     A
C563   C582    1.397   .     A
C563   C572    1.420   .     S
C564   C580    1.395   .     A
C565   N594    1.367   .     A
C565   C571    1.479   .     S
C566   N593    1.367   .     A
C566   C573    1.479   .     S
C566   C1072   1.430   .     S
C567   N593    1.387   .     A
C567   C574    1.487   .     S
C567   C1069   1.430   .     S
C568   N594    1.387   .     A
C568   C575    1.487   .     S
C569   O596    1.398   .     S
C569   O614    1.221   .     D
C569   C634    1.486   .     S
C570   O598    1.398   .     S
C570   O597    1.221   .     D
C571   O599    1.220   .     D
C571   O600    1.397   .     S
C572   O609    1.296   .     A
C572   O606    1.294   .     A
C573   O601    1.220   .     D
C573   O602    1.397   .     S
C574   O604    1.400   .     S
C574   O603    1.215   .     D
C575   O607    1.400   .     S
C575   O605    1.215   .     D
C576   C578    1.415   .     S
C576   O610    1.284   .     A
C576   O612    1.300   .     A
C577   O611    1.284   .     A
C577   C579    1.415   .     S
C577   O613    1.300   .     A
C579   C634    1.360   .     S
C579   C626    1.486   .     S
C580   H583    1.081   .     S
C580   C918    1.370   1_545 S
C581   H585    1.081   .     S
C581   C730    1.370   .     S
C582   H586    1.083   .     S
C582   C748    1.370   .     S
H584   O607    1.014   .     S
H588   O596    1.014   .     S
H589   O598    1.014   .     S
H590   O600    1.014   .     S
H591   O602    1.014   .     S
H592   O604    1.014   .     S
N593   Zn615   2.039   .     S
N594   Zn616   2.039   .     S
O595   Zn615   1.993   .     S
O606   Zn616   1.993   .     S
O608   Zn616   2.004   .     S
O609   Zn615   2.004   .     S
O610   Zn615   1.981   .     S
O611   Zn616   1.981   .     S
O612   Zn616   2.000   .     S
O613   Zn615   2.000   .     S
C617   O664    1.296   .     A
C617   C620    1.420   .     S
C617   O651    1.294   .     A
C618   C620    1.397   .     A
C618   H643    1.083   .     S
C618   C973    1.370   1_545 S
C619   C637    1.395   .     A
C619   C638    1.397   .     A
C619   C628    1.420   .     S
C620   C636    1.395   .     A
C621   N650    1.367   .     A
C621   C627    1.479   .     S
C622   N649    1.367   .     A
C622   C629    1.479   .     S
C622   C1128   1.430   .     S
C623   N649    1.387   .     A
C623   C630    1.487   .     S
C623   C1125   1.430   .     S
C624   N650    1.387   .     A
C624   C631    1.487   .     S
C625   O652    1.398   .     S
C625   O670    1.221   .     D
C625   C522    1.486   1_655 S
C626   O654    1.398   .     S
C626   O653    1.221   .     D
C627   O655    1.220   .     D
C627   O656    1.397   .     S
C628   O665    1.296   .     A
C628   O662    1.294   .     A
C629   O657    1.220   .     D
C629   O658    1.397   .     S
C630   O660    1.400   .     S
C630   O659    1.215   .     D
C631   O663    1.400   .     S
C631   O661    1.215   .     D
C632   C634    1.415   .     S
C632   O666    1.284   .     A
C632   O668    1.300   .     A
C633   O667    1.284   .     A
C633   C635    1.415   .     S
C633   O669    1.300   .     A
C635   C522    1.360   1_655 S
C635   C514    1.486   1_655 S
C636   H639    1.081   .     S
C636   C974    1.370   1_545 S
C637   H641    1.081   .     S
C637   C786    1.370   .     S
C638   H642    1.083   .     S
C638   C804    1.370   .     S
H640   O663    1.014   .     S
H644   O652    1.014   .     S
H645   O654    1.014   .     S
H646   O656    1.014   .     S
H647   O658    1.014   .     S
H648   O660    1.014   .     S
N649   Zn671   2.039   .     S
N650   Zn672   2.039   .     S
O651   Zn671   1.993   .     S
O662   Zn672   1.993   .     S
O664   Zn672   2.004   .     S
O665   Zn671   2.004   .     S
O666   Zn671   1.981   .     S
O667   Zn672   1.981   .     S
O668   Zn672   2.000   .     S
O669   Zn671   2.000   .     S
C673   O720    1.296   .     A
C673   C676    1.420   .     S
C673   O707    1.294   .     A
C674   C676    1.397   .     A
C674   H699    1.083   .     S
C675   C693    1.395   .     A
C675   C694    1.397   .     A
C675   C684    1.420   .     S
C676   C692    1.395   .     A
C677   N706    1.367   .     A
C677   C683    1.479   .     S
C678   N705    1.367   .     A
C678   C685    1.479   .     S
C678   C1184   1.430   .     S
C679   N705    1.387   .     A
C679   C686    1.487   .     S
C679   C1181   1.430   .     S
C680   N706    1.387   .     A
C680   C687    1.487   .     S
C681   O708    1.398   .     S
C681   O726    1.221   .     D
C681   C746    1.486   .     S
C682   O710    1.398   .     S
C682   O709    1.221   .     D
C682   C803    1.486   1_455 S
C683   O711    1.220   .     D
C683   O712    1.397   .     S
C684   O721    1.296   .     A
C684   O718    1.294   .     A
C685   O713    1.220   .     D
C685   O714    1.397   .     S
C686   O716    1.400   .     S
C686   O715    1.215   .     D
C687   O719    1.400   .     S
C687   O717    1.215   .     D
C688   C690    1.415   .     S
C688   O722    1.284   .     A
C688   O724    1.300   .     A
C689   O723    1.284   .     A
C689   C691    1.415   .     S
C689   O725    1.300   .     A
C690   C793    1.486   1_455 S
C690   C803    1.360   1_455 S
C691   C746    1.360   .     S
C691   C738    1.486   .     S
C692   H695    1.081   .     S
C693   H697    1.081   .     S
C693   C842    1.370   .     S
C694   H698    1.083   .     S
C694   C860    1.370   .     S
H696   O719    1.014   .     S
H700   O708    1.014   .     S
H701   O710    1.014   .     S
H702   O712    1.014   .     S
H703   O714    1.014   .     S
H704   O716    1.014   .     S
N705   Zn727   2.039   .     S
N706   Zn728   2.039   .     S
O707   Zn727   1.993   .     S
O718   Zn728   1.993   .     S
O720   Zn728   2.004   .     S
O721   Zn727   2.004   .     S
O722   Zn727   1.981   .     S
O723   Zn728   1.981   .     S
O724   Zn728   2.000   .     S
O725   Zn727   2.000   .     S
C729   O776    1.296   .     A
C729   C732    1.420   .     S
C729   O763    1.294   .     A
C730   C732    1.397   .     A
C730   H755    1.083   .     S
C731   C749    1.395   .     A
C731   C750    1.397   .     A
C731   C740    1.420   .     S
C732   C748    1.395   .     A
C733   N762    1.367   .     A
C733   C739    1.479   .     S
C734   N761    1.367   .     A
C734   C741    1.479   .     S
C734   C1240   1.430   .     S
C735   N761    1.387   .     A
C735   C742    1.487   .     S
C735   C1237   1.430   .     S
C736   N762    1.387   .     A
C736   C743    1.487   .     S
C737   O764    1.398   .     S
C737   O782    1.221   .     D
C737   C802    1.486   .     S
C738   O766    1.398   .     S
C738   O765    1.221   .     D
C739   O767    1.220   .     D
C739   O768    1.397   .     S
C740   O777    1.296   .     A
C740   O774    1.294   .     A
C741   O769    1.220   .     D
C741   O770    1.397   .     S
C742   O772    1.400   .     S
C742   O771    1.215   .     D
C743   O775    1.400   .     S
C743   O773    1.215   .     D
C744   C746    1.415   .     S
C744   O778    1.284   .     A
C744   O780    1.300   .     A
C745   O779    1.284   .     A
C745   C747    1.415   .     S
C745   O781    1.300   .     A
C747   C802    1.360   .     S
C747   C794    1.486   .     S
C748   H751    1.081   .     S
C749   H753    1.081   .     S
C749   C898    1.370   .     S
C750   H754    1.083   .     S
C750   C916    1.370   .     S
H752   O775    1.014   .     S
H756   O764    1.014   .     S
H757   O766    1.014   .     S
H758   O768    1.014   .     S
H759   O770    1.014   .     S
H760   O772    1.014   .     S
N761   Zn783   2.039   .     S
N762   Zn784   2.039   .     S
O763   Zn783   1.993   .     S
O774   Zn784   1.993   .     S
O776   Zn784   2.004   .     S
O777   Zn783   2.004   .     S
O778   Zn783   1.981   .     S
O779   Zn784   1.981   .     S
O780   Zn784   2.000   .     S
O781   Zn783   2.000   .     S
C785   O832    1.296   .     A
C785   C788    1.420   .     S
C785   O819    1.294   .     A
C786   C788    1.397   .     A
C786   H811    1.083   .     S
C787   C805    1.395   .     A
C787   C806    1.397   .     A
C787   C796    1.420   .     S
C788   C804    1.395   .     A
C789   N818    1.367   .     A
C789   C795    1.479   .     S
C790   N817    1.367   .     A
C790   C797    1.479   .     S
C790   C1296   1.430   .     S
C791   N817    1.387   .     A
C791   C798    1.487   .     S
C791   C1293   1.430   .     S
C792   N818    1.387   .     A
C792   C799    1.487   .     S
C793   O820    1.398   .     S
C793   O838    1.221   .     D
C793   C690    1.486   1_655 S
C794   O822    1.398   .     S
C794   O821    1.221   .     D
C795   O823    1.220   .     D
C795   O824    1.397   .     S
C796   O833    1.296   .     A
C796   O830    1.294   .     A
C797   O825    1.220   .     D
C797   O826    1.397   .     S
C798   O828    1.400   .     S
C798   O827    1.215   .     D
C799   O831    1.400   .     S
C799   O829    1.215   .     D
C800   C802    1.415   .     S
C800   O834    1.284   .     A
C800   O836    1.300   .     A
C801   O835    1.284   .     A
C801   C803    1.415   .     S
C801   O837    1.300   .     A
C803   C690    1.360   1_655 S
C803   C682    1.486   1_655 S
C804   H807    1.081   .     S
C805   H809    1.081   .     S
C805   C954    1.370   .     S
C806   H810    1.083   .     S
C806   C972    1.370   .     S
H808   O831    1.014   .     S
H812   O820    1.014   .     S
H813   O822    1.014   .     S
H814   O824    1.014   .     S
H815   O826    1.014   .     S
H816   O828    1.014   .     S
N817   Zn839   2.039   .     S
N818   Zn840   2.039   .     S
O819   Zn839   1.993   .     S
O830   Zn840   1.993   .     S
O832   Zn840   2.004   .     S
O833   Zn839   2.004   .     S
O834   Zn839   1.981   .     S
O835   Zn840   1.981   .     S
O836   Zn840   2.000   .     S
O837   Zn839   2.000   .     S
C841   O888    1.296   .     A
C841   C844    1.420   .     S
C841   O875    1.294   .     A
C842   C844    1.397   .     A
C842   H867    1.083   .     S
C843   C861    1.395   .     A
C843   C862    1.397   .     A
C843   C852    1.420   .     S
C844   C860    1.395   .     A
C845   N874    1.367   .     A
C845   C851    1.479   .     S
C846   N873    1.367   .     A
C846   C853    1.479   .     S
C846   C1352   1.430   .     S
C847   N873    1.387   .     A
C847   C854    1.487   .     S
C847   C1349   1.430   .     S
C848   N874    1.387   .     A
C848   C855    1.487   .     S
C849   O876    1.398   .     S
C849   O894    1.221   .     D
C849   C914    1.486   .     S
C850   O878    1.398   .     S
C850   O877    1.221   .     D
C850   C971    1.486   1_455 S
C851   O879    1.220   .     D
C851   O880    1.397   .     S
C852   O889    1.296   .     A
C852   O886    1.294   .     A
C853   O881    1.220   .     D
C853   O882    1.397   .     S
C854   O884    1.400   .     S
C854   O883    1.215   .     D
C855   O887    1.400   .     S
C855   O885    1.215   .     D
C856   C858    1.415   .     S
C856   O890    1.284   .     A
C856   O892    1.300   .     A
C857   O891    1.284   .     A
C857   C859    1.415   .     S
C857   O893    1.300   .     A
C858   C961    1.486   1_455 S
C858   C971    1.360   1_455 S
C859   C914    1.360   .     S
C859   C906    1.486   .     S
C860   H863    1.081   .     S
C861   H865    1.081   .     S
C861   C506    1.370   1_565 S
C862   H866    1.083   .     S
C862   C524    1.370   1_565 S
H864   O887    1.014   .     S
H868   O876    1.014   .     S
H869   O878    1.014   .     S
H870   O880    1.014   .     S
H871   O882    1.014   .     S
H872   O884    1.014   .     S
N873   Zn895   2.039   .     S
N874   Zn896   2.039   .     S
O875   Zn895   1.993   .     S
O886   Zn896   1.993   .     S
O888   Zn896   2.004   .     S
O889   Zn895   2.004   .     S
O890   Zn895   1.981   .     S
O891   Zn896   1.981   .     S
O892   Zn896   2.000   .     S
O893   Zn895   2.000   .     S
C897   O944    1.296   .     A
C897   C900    1.420   .     S
C897   O931    1.294   .     A
C898   C900    1.397   .     A
C898   H923    1.083   .     S
C899   C917    1.395   .     A
C899   C918    1.397   .     A
C899   C908    1.420   .     S
C900   C916    1.395   .     A
C901   N930    1.367   .     A
C901   C907    1.479   .     S
C902   N929    1.367   .     A
C902   C909    1.479   .     S
C902   C1408   1.430   .     S
C903   N929    1.387   .     A
C903   C910    1.487   .     S
C903   C1405   1.430   .     S
C904   N930    1.387   .     A
C904   C911    1.487   .     S
C905   O932    1.398   .     S
C905   O950    1.221   .     D
C905   C970    1.486   .     S
C906   O934    1.398   .     S
C906   O933    1.221   .     D
C907   O935    1.220   .     D
C907   O936    1.397   .     S
C908   O945    1.296   .     A
C908   O942    1.294   .     A
C909   O937    1.220   .     D
C909   O938    1.397   .     S
C910   O940    1.400   .     S
C910   O939    1.215   .     D
C911   O943    1.400   .     S
C911   O941    1.215   .     D
C912   C914    1.415   .     S
C912   O946    1.284   .     A
C912   O948    1.300   .     A
C913   O947    1.284   .     A
C913   C915    1.415   .     S
C913   O949    1.300   .     A
C915   C970    1.360   .     S
C915   C962    1.486   .     S
C916   H919    1.081   .     S
C917   H921    1.081   .     S
C917   C562    1.370   1_565 S
C918   H922    1.083   .     S
C918   C580    1.370   1_565 S
H920   O943    1.014   .     S
H924   O932    1.014   .     S
H925   O934    1.014   .     S
H926   O936    1.014   .     S
H927   O938    1.014   .     S
H928   O940    1.014   .     S
N929   Zn951   2.039   .     S
N930   Zn952   2.039   .     S
O931   Zn951   1.993   .     S
O942   Zn952   1.993   .     S
O944   Zn952   2.004   .     S
O945   Zn951   2.004   .     S
O946   Zn951   1.981   .     S
O947   Zn952   1.981   .     S
O948   Zn952   2.000   .     S
O949   Zn951   2.000   .     S
C953   O1000   1.296   .     A
C953   C956    1.420   .     S
C953   O987    1.294   .     A
C954   C956    1.397   .     A
C954   H979    1.083   .     S
C955   C973    1.395   .     A
C955   C974    1.397   .     A
C955   C964    1.420   .     S
C956   C972    1.395   .     A
C957   N986    1.367   .     A
C957   C963    1.479   .     S
C958   N985    1.367   .     A
C958   C965    1.479   .     S
C958   C1464   1.430   .     S
C959   N985    1.387   .     A
C959   C966    1.487   .     S
C959   C1461   1.430   .     S
C960   N986    1.387   .     A
C960   C967    1.487   .     S
C961   O988    1.398   .     S
C961   O1006   1.221   .     D
C961   C858    1.486   1_655 S
C962   O990    1.398   .     S
C962   O989    1.221   .     D
C963   O991    1.220   .     D
C963   O992    1.397   .     S
C964   O1001   1.296   .     A
C964   O998    1.294   .     A
C965   O993    1.220   .     D
C965   O994    1.397   .     S
C966   O996    1.400   .     S
C966   O995    1.215   .     D
C967   O999    1.400   .     S
C967   O997    1.215   .     D
C968   C970    1.415   .     S
C968   O1002   1.284   .     A
C968   O1004   1.300   .     A
C969   O1003   1.284   .     A
C969   C971    1.415   .     S
C969   O1005   1.300   .     A
C971   C858    1.360   1_655 S
C971   C850    1.486   1_655 S
C972   H975    1.081   .     S
C973   H977    1.081   .     S
C973   C618    1.370   1_565 S
C974   H978    1.083   .     S
C974   C636    1.370   1_565 S
H976   O999    1.014   .     S
H980   O988    1.014   .     S
H981   O990    1.014   .     S
H982   O992    1.014   .     S
H983   O994    1.014   .     S
H984   O996    1.014   .     S
N985   Zn1007  2.039   .     S
N986   Zn1008  2.039   .     S
O987   Zn1007  1.993   .     S
O998   Zn1008  1.993   .     S
O1000  Zn1008  2.004   .     S
O1001  Zn1007  2.004   .     S
O1002  Zn1007  1.981   .     S
O1003  Zn1008  1.981   .     S
O1004  Zn1008  2.000   .     S
O1005  Zn1007  2.000   .     S
C1009  O1056   1.296   .     A
C1009  C1012   1.420   .     S
C1009  O1043   1.294   .     A
C1010  C1012   1.397   .     A
C1010  H1035   1.083   .     S
C1010  C1365   1.370   1_545 S
C1011  C1029   1.395   .     A
C1011  C1030   1.397   .     A
C1011  C1020   1.420   .     S
C1012  C1028   1.395   .     A
C1013  N1042   1.367   .     A
C1013  C1019   1.479   .     S
C1014  N1041   1.367   .     A
C1014  C1021   1.479   .     S
C1014  C8      1.430   1_556 S
C1015  N1041   1.387   .     A
C1015  C1022   1.487   .     S
C1015  C5      1.430   1_556 S
C1016  N1042   1.387   .     A
C1016  C1023   1.487   .     S
C1017  O1044   1.398   .     S
C1017  O1062   1.221   .     D
C1017  C1082   1.486   .     S
C1018  O1046   1.398   .     S
C1018  O1045   1.221   .     D
C1018  C1139   1.486   1_455 S
C1019  O1047   1.220   .     D
C1019  O1048   1.397   .     S
C1020  O1057   1.296   .     A
C1020  O1054   1.294   .     A
C1021  O1049   1.220   .     D
C1021  O1050   1.397   .     S
C1022  O1052   1.400   .     S
C1022  O1051   1.215   .     D
C1023  O1055   1.400   .     S
C1023  O1053   1.215   .     D
C1024  C1026   1.415   .     S
C1024  O1058   1.284   .     A
C1024  O1060   1.300   .     A
C1025  O1059   1.284   .     A
C1025  C1027   1.415   .     S
C1025  O1061   1.300   .     A
C1026  C1129   1.486   1_455 S
C1026  C1139   1.360   1_455 S
C1027  C1082   1.360   .     S
C1027  C1074   1.486   .     S
C1028  H1031   1.081   .     S
C1028  C1366   1.370   1_545 S
C1029  H1033   1.081   .     S
C1029  C1178   1.370   .     S
C1030  H1034   1.083   .     S
C1030  C1196   1.370   .     S
H1032  O1055   1.014   .     S
H1036  O1044   1.014   .     S
H1037  O1046   1.014   .     S
H1038  O1048   1.014   .     S
H1039  O1050   1.014   .     S
H1040  O1052   1.014   .     S
N1041  Zn1063  2.039   .     S
N1042  Zn1064  2.039   .     S
O1043  Zn1063  1.993   .     S
O1054  Zn1064  1.993   .     S
O1056  Zn1064  2.004   .     S
O1057  Zn1063  2.004   .     S
O1058  Zn1063  1.981   .     S
O1059  Zn1064  1.981   .     S
O1060  Zn1064  2.000   .     S
O1061  Zn1063  2.000   .     S
C1065  O1112   1.296   .     A
C1065  C1068   1.420   .     S
C1065  O1099   1.294   .     A
C1066  C1068   1.397   .     A
C1066  H1091   1.083   .     S
C1066  C1421   1.370   1_545 S
C1067  C1085   1.395   .     A
C1067  C1086   1.397   .     A
C1067  C1076   1.420   .     S
C1068  C1084   1.395   .     A
C1069  N1098   1.367   .     A
C1069  C1075   1.479   .     S
C1070  N1097   1.367   .     A
C1070  C1077   1.479   .     S
C1070  C64     1.430   1_556 S
C1071  N1097   1.387   .     A
C1071  C1078   1.487   .     S
C1071  C61     1.430   1_556 S
C1072  N1098   1.387   .     A
C1072  C1079   1.487   .     S
C1073  O1100   1.398   .     S
C1073  O1118   1.221   .     D
C1073  C1138   1.486   .     S
C1074  O1102   1.398   .     S
C1074  O1101   1.221   .     D
C1075  O1103   1.220   .     D
C1075  O1104   1.397   .     S
C1076  O1113   1.296   .     A
C1076  O1110   1.294   .     A
C1077  O1105   1.220   .     D
C1077  O1106   1.397   .     S
C1078  O1108   1.400   .     S
C1078  O1107   1.215   .     D
C1079  O1111   1.400   .     S
C1079  O1109   1.215   .     D
C1080  C1082   1.415   .     S
C1080  O1114   1.284   .     A
C1080  O1116   1.300   .     A
C1081  O1115   1.284   .     A
C1081  C1083   1.415   .     S
C1081  O1117   1.300   .     A
C1083  C1138   1.360   .     S
C1083  C1130   1.486   .     S
C1084  H1087   1.081   .     S
C1084  C1422   1.370   1_545 S
C1085  H1089   1.081   .     S
C1085  C1234   1.370   .     S
C1086  H1090   1.083   .     S
C1086  C1252   1.370   .     S
H1088  O1111   1.014   .     S
H1092  O1100   1.014   .     S
H1093  O1102   1.014   .     S
H1094  O1104   1.014   .     S
H1095  O1106   1.014   .     S
H1096  O1108   1.014   .     S
N1097  Zn1119  2.039   .     S
N1098  Zn1120  2.039   .     S
O1099  Zn1119  1.993   .     S
O1110  Zn1120  1.993   .     S
O1112  Zn1120  2.004   .     S
O1113  Zn1119  2.004   .     S
O1114  Zn1119  1.981   .     S
O1115  Zn1120  1.981   .     S
O1116  Zn1120  2.000   .     S
O1117  Zn1119  2.000   .     S
C1121  O1168   1.296   .     A
C1121  C1124   1.420   .     S
C1121  O1155   1.294   .     A
C1122  C1124   1.397   .     A
C1122  H1147   1.083   .     S
C1122  C1477   1.370   1_545 S
C1123  C1141   1.395   .     A
C1123  C1142   1.397   .     A
C1123  C1132   1.420   .     S
C1124  C1140   1.395   .     A
C1125  N1154   1.367   .     A
C1125  C1131   1.479   .     S
C1126  N1153   1.367   .     A
C1126  C1133   1.479   .     S
C1126  C120    1.430   1_556 S
C1127  N1153   1.387   .     A
C1127  C1134   1.487   .     S
C1127  C117    1.430   1_556 S
C1128  N1154   1.387   .     A
C1128  C1135   1.487   .     S
C1129  O1156   1.398   .     S
C1129  O1174   1.221   .     D
C1129  C1026   1.486   1_655 S
C1130  O1158   1.398   .     S
C1130  O1157   1.221   .     D
C1131  O1159   1.220   .     D
C1131  O1160   1.397   .     S
C1132  O1169   1.296   .     A
C1132  O1166   1.294   .     A
C1133  O1161   1.220   .     D
C1133  O1162   1.397   .     S
C1134  O1164   1.400   .     S
C1134  O1163   1.215   .     D
C1135  O1167   1.400   .     S
C1135  O1165   1.215   .     D
C1136  C1138   1.415   .     S
C1136  O1170   1.284   .     A
C1136  O1172   1.300   .     A
C1137  O1171   1.284   .     A
C1137  C1139   1.415   .     S
C1137  O1173   1.300   .     A
C1139  C1026   1.360   1_655 S
C1139  C1018   1.486   1_655 S
C1140  H1143   1.081   .     S
C1140  C1478   1.370   1_545 S
C1141  H1145   1.081   .     S
C1141  C1290   1.370   .     S
C1142  H1146   1.083   .     S
C1142  C1308   1.370   .     S
H1144  O1167   1.014   .     S
H1148  O1156   1.014   .     S
H1149  O1158   1.014   .     S
H1150  O1160   1.014   .     S
H1151  O1162   1.014   .     S
H1152  O1164   1.014   .     S
N1153  Zn1175  2.039   .     S
N1154  Zn1176  2.039   .     S
O1155  Zn1175  1.993   .     S
O1166  Zn1176  1.993   .     S
O1168  Zn1176  2.004   .     S
O1169  Zn1175  2.004   .     S
O1170  Zn1175  1.981   .     S
O1171  Zn1176  1.981   .     S
O1172  Zn1176  2.000   .     S
O1173  Zn1175  2.000   .     S
C1177  O1224   1.296   .     A
C1177  C1180   1.420   .     S
C1177  O1211   1.294   .     A
C1178  C1180   1.397   .     A
C1178  H1203   1.083   .     S
C1179  C1197   1.395   .     A
C1179  C1198   1.397   .     A
C1179  C1188   1.420   .     S
C1180  C1196   1.395   .     A
C1181  N1210   1.367   .     A
C1181  C1187   1.479   .     S
C1182  N1209   1.367   .     A
C1182  C1189   1.479   .     S
C1182  C176    1.430   1_556 S
C1183  N1209   1.387   .     A
C1183  C1190   1.487   .     S
C1183  C173    1.430   1_556 S
C1184  N1210   1.387   .     A
C1184  C1191   1.487   .     S
C1185  O1212   1.398   .     S
C1185  O1230   1.221   .     D
C1185  C1250   1.486   .     S
C1186  O1214   1.398   .     S
C1186  O1213   1.221   .     D
C1186  C1307   1.486   1_455 S
C1187  O1215   1.220   .     D
C1187  O1216   1.397   .     S
C1188  O1225   1.296   .     A
C1188  O1222   1.294   .     A
C1189  O1217   1.220   .     D
C1189  O1218   1.397   .     S
C1190  O1220   1.400   .     S
C1190  O1219   1.215   .     D
C1191  O1223   1.400   .     S
C1191  O1221   1.215   .     D
C1192  C1194   1.415   .     S
C1192  O1226   1.284   .     A
C1192  O1228   1.300   .     A
C1193  O1227   1.284   .     A
C1193  C1195   1.415   .     S
C1193  O1229   1.300   .     A
C1194  C1297   1.486   1_455 S
C1194  C1307   1.360   1_455 S
C1195  C1250   1.360   .     S
C1195  C1242   1.486   .     S
C1196  H1199   1.081   .     S
C1197  H1201   1.081   .     S
C1197  C1346   1.370   .     S
C1198  H1202   1.083   .     S
C1198  C1364   1.370   .     S
H1200  O1223   1.014   .     S
H1204  O1212   1.014   .     S
H1205  O1214   1.014   .     S
H1206  O1216   1.014   .     S
H1207  O1218   1.014   .     S
H1208  O1220   1.014   .     S
N1209  Zn1231  2.039   .     S
N1210  Zn1232  2.039   .     S
O1211  Zn1231  1.993   .     S
O1222  Zn1232  1.993   .     S
O1224  Zn1232  2.004   .     S
O1225  Zn1231  2.004   .     S
O1226  Zn1231  1.981   .     S
O1227  Zn1232  1.981   .     S
O1228  Zn1232  2.000   .     S
O1229  Zn1231  2.000   .     S
C1233  O1280   1.296   .     A
C1233  C1236   1.420   .     S
C1233  O1267   1.294   .     A
C1234  C1236   1.397   .     A
C1234  H1259   1.083   .     S
C1235  C1253   1.395   .     A
C1235  C1254   1.397   .     A
C1235  C1244   1.420   .     S
C1236  C1252   1.395   .     A
C1237  N1266   1.367   .     A
C1237  C1243   1.479   .     S
C1238  N1265   1.367   .     A
C1238  C1245   1.479   .     S
C1238  C232    1.430   1_556 S
C1239  N1265   1.387   .     A
C1239  C1246   1.487   .     S
C1239  C229    1.430   1_556 S
C1240  N1266   1.387   .     A
C1240  C1247   1.487   .     S
C1241  O1268   1.398   .     S
C1241  O1286   1.221   .     D
C1241  C1306   1.486   .     S
C1242  O1270   1.398   .     S
C1242  O1269   1.221   .     D
C1243  O1271   1.220   .     D
C1243  O1272   1.397   .     S
C1244  O1281   1.296   .     A
C1244  O1278   1.294   .     A
C1245  O1273   1.220   .     D
C1245  O1274   1.397   .     S
C1246  O1276   1.400   .     S
C1246  O1275   1.215   .     D
C1247  O1279   1.400   .     S
C1247  O1277   1.215   .     D
C1248  C1250   1.415   .     S
C1248  O1282   1.284   .     A
C1248  O1284   1.300   .     A
C1249  O1283   1.284   .     A
C1249  C1251   1.415   .     S
C1249  O1285   1.300   .     A
C1251  C1306   1.360   .     S
C1251  C1298   1.486   .     S
C1252  H1255   1.081   .     S
C1253  H1257   1.081   .     S
C1253  C1402   1.370   .     S
C1254  H1258   1.083   .     S
C1254  C1420   1.370   .     S
H1256  O1279   1.014   .     S
H1260  O1268   1.014   .     S
H1261  O1270   1.014   .     S
H1262  O1272   1.014   .     S
H1263  O1274   1.014   .     S
H1264  O1276   1.014   .     S
N1265  Zn1287  2.039   .     S
N1266  Zn1288  2.039   .     S
O1267  Zn1287  1.993   .     S
O1278  Zn1288  1.993   .     S
O1280  Zn1288  2.004   .     S
O1281  Zn1287  2.004   .     S
O1282  Zn1287  1.981   .     S
O1283  Zn1288  1.981   .     S
O1284  Zn1288  2.000   .     S
O1285  Zn1287  2.000   .     S
C1289  O1336   1.296   .     A
C1289  C1292   1.420   .     S
C1289  O1323   1.294   .     A
C1290  C1292   1.397   .     A
C1290  H1315   1.083   .     S
C1291  C1309   1.395   .     A
C1291  C1310   1.397   .     A
C1291  C1300   1.420   .     S
C1292  C1308   1.395   .     A
C1293  N1322   1.367   .     A
C1293  C1299   1.479   .     S
C1294  N1321   1.367   .     A
C1294  C1301   1.479   .     S
C1294  C288    1.430   1_556 S
C1295  N1321   1.387   .     A
C1295  C1302   1.487   .     S
C1295  C285    1.430   1_556 S
C1296  N1322   1.387   .     A
C1296  C1303   1.487   .     S
C1297  O1324   1.398   .     S
C1297  O1342   1.221   .     D
C1297  C1194   1.486   1_655 S
C1298  O1326   1.398   .     S
C1298  O1325   1.221   .     D
C1299  O1327   1.220   .     D
C1299  O1328   1.397   .     S
C1300  O1337   1.296   .     A
C1300  O1334   1.294   .     A
C1301  O1329   1.220   .     D
C1301  O1330   1.397   .     S
C1302  O1332   1.400   .     S
C1302  O1331   1.215   .     D
C1303  O1335   1.400   .     S
C1303  O1333   1.215   .     D
C1304  C1306   1.415   .     S
C1304  O1338   1.284   .     A
C1304  O1340   1.300   .     A
C1305  O1339   1.284   .     A
C1305  C1307   1.415   .     S
C1305  O1341   1.300   .     A
C1307  C1194   1.360   1_655 S
C1307  C1186   1.486   1_655 S
C1308  H1311   1.081   .     S
C1309  H1313   1.081   .     S
C1309  C1458   1.370   .     S
C1310  H1314   1.083   .     S
C1310  C1476   1.370   .     S
H1312  O1335   1.014   .     S
H1316  O1324   1.014   .     S
H1317  O1326   1.014   .     S
H1318  O1328   1.014   .     S
H1319  O1330   1.014   .     S
H1320  O1332   1.014   .     S
N1321  Zn1343  2.039   .     S
N1322  Zn1344  2.039   .     S
O1323  Zn1343  1.993   .     S
O1334  Zn1344  1.993   .     S
O1336  Zn1344  2.004   .     S
O1337  Zn1343  2.004   .     S
O1338  Zn1343  1.981   .     S
O1339  Zn1344  1.981   .     S
O1340  Zn1344  2.000   .     S
O1341  Zn1343  2.000   .     S
C1345  O1392   1.296   .     A
C1345  C1348   1.420   .     S
C1345  O1379   1.294   .     A
C1346  C1348   1.397   .     A
C1346  H1371   1.083   .     S
C1347  C1365   1.395   .     A
C1347  C1366   1.397   .     A
C1347  C1356   1.420   .     S
C1348  C1364   1.395   .     A
C1349  N1378   1.367   .     A
C1349  C1355   1.479   .     S
C1350  N1377   1.367   .     A
C1350  C1357   1.479   .     S
C1350  C344    1.430   1_556 S
C1351  N1377   1.387   .     A
C1351  C1358   1.487   .     S
C1351  C341    1.430   1_556 S
C1352  N1378   1.387   .     A
C1352  C1359   1.487   .     S
C1353  O1380   1.398   .     S
C1353  O1398   1.221   .     D
C1353  C1418   1.486   .     S
C1354  O1382   1.398   .     S
C1354  O1381   1.221   .     D
C1354  C1475   1.486   1_455 S
C1355  O1383   1.220   .     D
C1355  O1384   1.397   .     S
C1356  O1393   1.296   .     A
C1356  O1390   1.294   .     A
C1357  O1385   1.220   .     D
C1357  O1386   1.397   .     S
C1358  O1388   1.400   .     S
C1358  O1387   1.215   .     D
C1359  O1391   1.400   .     S
C1359  O1389   1.215   .     D
C1360  C1362   1.415   .     S
C1360  O1394   1.284   .     A
C1360  O1396   1.300   .     A
C1361  O1395   1.284   .     A
C1361  C1363   1.415   .     S
C1361  O1397   1.300   .     A
C1362  C1465   1.486   1_455 S
C1362  C1475   1.360   1_455 S
C1363  C1418   1.360   .     S
C1363  C1410   1.486   .     S
C1364  H1367   1.081   .     S
C1365  H1369   1.081   .     S
C1365  C1010   1.370   1_565 S
C1366  H1370   1.083   .     S
C1366  C1028   1.370   1_565 S
H1368  O1391   1.014   .     S
H1372  O1380   1.014   .     S
H1373  O1382   1.014   .     S
H1374  O1384   1.014   .     S
H1375  O1386   1.014   .     S
H1376  O1388   1.014   .     S
N1377  Zn1399  2.039   .     S
N1378  Zn1400  2.039   .     S
O1379  Zn1399  1.993   .     S
O1390  Zn1400  1.993   .     S
O1392  Zn1400  2.004   .     S
O1393  Zn1399  2.004   .     S
O1394  Zn1399  1.981   .     S
O1395  Zn1400  1.981   .     S
O1396  Zn1400  2.000   .     S
O1397  Zn1399  2.000   .     S
C1401  O1448   1.296   .     A
C1401  C1404   1.420   .     S
C1401  O1435   1.294   .     A
C1402  C1404   1.397   .     A
C1402  H1427   1.083   .     S
C1403  C1421   1.395   .     A
C1403  C1422   1.397   .     A
C1403  C1412   1.420   .     S
C1404  C1420   1.395   .     A
C1405  N1434   1.367   .     A
C1405  C1411   1.479   .     S
C1406  N1433   1.367   .     A
C1406  C1413   1.479   .     S
C1406  C400    1.430   1_556 S
C1407  N1433   1.387   .     A
C1407  C1414   1.487   .     S
C1407  C397    1.430   1_556 S
C1408  N1434   1.387   .     A
C1408  C1415   1.487   .     S
C1409  O1436   1.398   .     S
C1409  O1454   1.221   .     D
C1409  C1474   1.486   .     S
C1410  O1438   1.398   .     S
C1410  O1437   1.221   .     D
C1411  O1439   1.220   .     D
C1411  O1440   1.397   .     S
C1412  O1449   1.296   .     A
C1412  O1446   1.294   .     A
C1413  O1441   1.220   .     D
C1413  O1442   1.397   .     S
C1414  O1444   1.400   .     S
C1414  O1443   1.215   .     D
C1415  O1447   1.400   .     S
C1415  O1445   1.215   .     D
C1416  C1418   1.415   .     S
C1416  O1450   1.284   .     A
C1416  O1452   1.300   .     A
C1417  O1451   1.284   .     A
C1417  C1419   1.415   .     S
C1417  O1453   1.300   .     A
C1419  C1474   1.360   .     S
C1419  C1466   1.486   .     S
C1420  H1423   1.081   .     S
C1421  H1425   1.081   .     S
C1421  C1066   1.370   1_565 S
C1422  H1426   1.083   .     S
C1422  C1084   1.370   1_565 S
H1424  O1447   1.014   .     S
H1428  O1436   1.014   .     S
H1429  O1438   1.014   .     S
H1430  O1440   1.014   .     S
H1431  O1442   1.014   .     S
H1432  O1444   1.014   .     S
N1433  Zn1455  2.039   .     S
N1434  Zn1456  2.039   .     S
O1435  Zn1455  1.993   .     S
O1446  Zn1456  1.993   .     S
O1448  Zn1456  2.004   .     S
O1449  Zn1455  2.004   .     S
O1450  Zn1455  1.981   .     S
O1451  Zn1456  1.981   .     S
O1452  Zn1456  2.000   .     S
O1453  Zn1455  2.000   .     S
C1457  O1504   1.296   .     A
C1457  C1460   1.420   .     S
C1457  O1491   1.294   .     A
C1458  C1460   1.397   .     A
C1458  H1483   1.083   .     S
C1459  C1477   1.395   .     A
C1459  C1478   1.397   .     A
C1459  C1468   1.420   .     S
C1460  C1476   1.395   .     A
C1461  N1490   1.367   .     A
C1461  C1467   1.479   .     S
C1462  N1489   1.367   .     A
C1462  C1469   1.479   .     S
C1462  C456    1.430   1_556 S
C1463  N1489   1.387   .     A
C1463  C1470   1.487   .     S
C1463  C453    1.430   1_556 S
C1464  N1490   1.387   .     A
C1464  C1471   1.487   .     S
C1465  O1492   1.398   .     S
C1465  O1510   1.221   .     D
C1465  C1362   1.486   1_655 S
C1466  O1494   1.398   .     S
C1466  O1493   1.221   .     D
C1467  O1495   1.220   .     D
C1467  O1496   1.397   .     S
C1468  O1505   1.296   .     A
C1468  O1502   1.294   .     A
C1469  O1497   1.220   .     D
C1469  O1498   1.397   .     S
C1470  O1500   1.400   .     S
C1470  O1499   1.215   .     D
C1471  O1503   1.400   .     S
C1471  O1501   1.215   .     D
C1472  C1474   1.415   .     S
C1472  O1506   1.284   .     A
C1472  O1508   1.300   .     A
C1473  O1507   1.284   .     A
C1473  C1475   1.415   .     S
C1473  O1509   1.300   .     A
C1475  C1362   1.360   1_655 S
C1475  C1354   1.486   1_655 S
C1476  H1479   1.081   .     S
C1477  H1481   1.081   .     S
C1477  C1122   1.370   1_565 S
C1478  H1482   1.083   .     S
C1478  C1140   1.370   1_565 S
H1480  O1503   1.014   .     S
H1484  O1492   1.014   .     S
H1485  O1494   1.014   .     S
H1486  O1496   1.014   .     S
H1487  O1498   1.014   .     S
H1488  O1500   1.014   .     S
N1489  Zn1511  2.039   .     S
N1490  Zn1512  2.039   .     S
O1491  Zn1511  1.993   .     S
O1502  Zn1512  1.993   .     S
O1504  Zn1512  2.004   .     S
O1505  Zn1511  2.004   .     S
O1506  Zn1511  1.981   .     S
O1507  Zn1512  1.981   .     S
O1508  Zn1512  2.000   .     S
O1509  Zn1511  2.000   .     S
