data_str_m3_o2_o10_pcu_sym.60
_audit_creation_date              2020-01-03
_audit_creation_method            'Materials Studio'
_symmetry_space_group_name_H-M    'P1'
_symmetry_Int_Tables_number       1
_symmetry_cell_setting            triclinic
loop_
_symmetry_equiv_pos_as_xyz
  x,y,z
_cell_length_a                    25.6335
_cell_length_b                    29.9256
_cell_length_c                    28.4985
_cell_angle_alpha                 88.9603
_cell_angle_beta                  99.2596
_cell_angle_gamma                 91.6607
loop_
_atom_site_label
_atom_site_type_symbol
_atom_site_fract_x
_atom_site_fract_y
_atom_site_fract_z
_atom_site_U_iso_or_equiv
_atom_site_adp_type
_atom_site_occupancy
C1     C     0.16595   0.16430   0.25041   0.00000  Uiso   1.00
C2     C     0.14982   0.21241   0.44597   0.00000  Uiso   1.00
C3     C     0.16416   0.25056   0.02612   0.00000  Uiso   1.00
C4     C     0.16488   0.25063   0.47307   0.00000  Uiso   1.00
C5     C     0.06700   0.24900   0.23751   0.00000  Uiso   1.00
C6     C     0.26633   0.24972   0.26260   0.00000  Uiso   1.00
C7     C     0.01175   0.24636   0.23117   0.00000  Uiso   1.00
C8     C     0.32158   0.24977   0.26937   0.00000  Uiso   1.00
C9     C     0.11453   0.04735   0.24513   0.00000  Uiso   1.00
C10    C     0.20032   0.45597   0.23306   0.00000  Uiso   1.00
C11    C     0.11529   0.09371   0.24416   0.00000  Uiso   1.00
C12    C     0.16550   0.33594   0.24952   0.00000  Uiso   1.00
C13    C     0.20174   0.40992   0.23096   0.00000  Uiso   1.00
C14    C     0.16450   0.11670   0.25206   0.00000  Uiso   1.00
C15    C     0.16257   0.38391   0.24884   0.00000  Uiso   1.00
C16    C     0.21221   0.09421   0.26416   0.00000  Uiso   1.00
C17    C     0.12143   0.40410   0.26759   0.00000  Uiso   1.00
C18    C     0.21029   0.04797   0.26722   0.00000  Uiso   1.00
C19    C     0.12194   0.45040   0.27083   0.00000  Uiso   1.00
C20    C     0.16188   0.02456   0.25628   0.00000  Uiso   1.00
C21    C     0.16148   0.47617   0.25390   0.00000  Uiso   1.00
C22    C     0.06383   0.11807   0.23605   0.00000  Uiso   1.00
C23    C     0.12123   0.23275   0.04645   0.00000  Uiso   1.00
C24    C     0.24440   0.38932   0.20878   0.00000  Uiso   1.00
C25    C     0.26488   0.11903   0.27353   0.00000  Uiso   1.00
C26    C     0.07618   0.37706   0.28267   0.00000  Uiso   1.00
C27    C     0.04504   0.24995   0.49569   0.00000  Uiso   1.00
C28    C     0.32006   0.23491   0.48773   0.00000  Uiso   1.00
C29    C     0.30786   0.19901   0.44997   0.00000  Uiso   1.00
C30    C     0.14700   0.35377   0.46879   0.00000  Uiso   1.00
C31    C     0.15796   0.39416   0.00121   0.00000  Uiso   1.00
C32    C     0.10930   0.42294   0.49806   0.00000  Uiso   1.00
C33    C     0.08280   0.16327   0.10984   0.00000  Uiso   1.00
C34    C     0.18075   0.28891   0.44893   0.00000  Uiso   1.00
C35    C     0.02557   0.14577   0.10505   0.00000  Uiso   1.00
C36    C     0.02233   0.09480   0.10360   0.00000  Uiso   1.00
C37    C     0.26266   0.32353   0.39303   0.00000  Uiso   1.00
C38    C     0.28779   0.36209   0.36802   0.00000  Uiso   1.00
C39    C     0.01338   0.36725   0.38756   0.00000  Uiso   1.00
C40    C     0.28079   0.32142   0.11908   0.00000  Uiso   1.00
C41    C     0.33270   0.30395   0.10736   0.00000  Uiso   1.00
C42    C     0.03134   0.34113   0.08678   0.00000  Uiso   1.00
C43    C     0.08069   0.15956   0.37564   0.00000  Uiso   1.00
C44    C     0.08168   0.10861   0.38073   0.00000  Uiso   1.00
C45    C     0.12498   0.23003   0.09685   0.00000  Uiso   1.00
C46    C     0.02988   0.08912   0.39316   0.00000  Uiso   1.00
C47    C     0.18555   0.28669   0.40004   0.00000  Uiso   1.00
C48    C     0.20793   0.26966   0.10716   0.00000  Uiso   1.00
C49    C     0.14739   0.21341   0.39582   0.00000  Uiso   1.00
C50    C     0.20758   0.26810   0.05715   0.00000  Uiso   1.00
H51    H     0.32390   0.24144   0.19539   0.00000  Uiso   1.00
H52    H     0.06379   0.14338   0.20734   0.00000  Uiso   1.00
H53    H     0.02939   0.09488   0.22608   0.00000  Uiso   1.00
H54    H     0.22523   0.37331   0.17545   0.00000  Uiso   1.00
H55    H     0.27399   0.41457   0.19976   0.00000  Uiso   1.00
H56    H     0.26562   0.36414   0.23330   0.00000  Uiso   1.00
H57    H     0.26588   0.14187   0.30395   0.00000  Uiso   1.00
H58    H     0.29812   0.09576   0.28214   0.00000  Uiso   1.00
H59    H     0.27108   0.13894   0.24152   0.00000  Uiso   1.00
H60    H     0.05871   0.35410   0.25379   0.00000  Uiso   1.00
H61    H     0.09040   0.35732   0.31531   0.00000  Uiso   1.00
H62    H     0.00936   0.25377   0.30542   0.00000  Uiso   1.00
H63    H     0.04418   0.39882   0.29004   0.00000  Uiso   1.00
H64    H     0.05705   0.25872   0.46084   0.00000  Uiso   1.00
H65    H     0.04851   0.28087   0.01715   0.00000  Uiso   1.00
H66    H     0.30899   0.22186   0.02157   0.00000  Uiso   1.00
H67    H     0.29531   0.26414   0.47641   0.00000  Uiso   1.00
H68    H     0.31704   0.21185   0.41532   0.00000  Uiso   1.00
H69    H     0.26520   0.18943   0.44542   0.00000  Uiso   1.00
H70    H     0.33120   0.16890   0.46111   0.00000  Uiso   1.00
H71    H     0.11339   0.33383   0.47970   0.00000  Uiso   1.00
H72    H     0.13571   0.36570   0.43135   0.00000  Uiso   1.00
H73    H     0.07718   0.02908   0.23671   0.00000  Uiso   1.00
H74    H     0.16962   0.38245   0.03858   0.00000  Uiso   1.00
H75    H     0.19118   0.41472   0.49080   0.00000  Uiso   1.00
H76    H     0.09741   0.43560   0.46111   0.00000  Uiso   1.00
H77    H     0.11851   0.45194   0.02202   0.00000  Uiso   1.00
H78    H     0.07587   0.40321   0.00915   0.00000  Uiso   1.00
H79    H     0.10682   0.14725   0.14113   0.00000  Uiso   1.00
H80    H     0.09910   0.15262   0.07792   0.00000  Uiso   1.00
H81    H     0.00726   0.15736   0.13531   0.00000  Uiso   1.00
H82    H     0.00261   0.15934   0.07175   0.00000  Uiso   1.00
H83    H     0.03859   0.08272   0.07241   0.00000  Uiso   1.00
H84    H     0.22941   0.47624   0.21801   0.00000  Uiso   1.00
H85    H     0.31371   0.08324   0.10056   0.00000  Uiso   1.00
H86    H     0.04486   0.08022   0.13660   0.00000  Uiso   1.00
H87    H     0.28012   0.29166   0.38417   0.00000  Uiso   1.00
H88    H     0.27250   0.32909   0.43197   0.00000  Uiso   1.00
H89    H     0.28243   0.35585   0.32917   0.00000  Uiso   1.00
H90    H     0.26802   0.39366   0.37373   0.00000  Uiso   1.00
H91    H     0.01955   0.37211   0.42663   0.00000  Uiso   1.00
H92    H     0.03030   0.39699   0.37105   0.00000  Uiso   1.00
H93    H     0.03454   0.33707   0.37971   0.00000  Uiso   1.00
H94    H     0.29266   0.34641   0.14711   0.00000  Uiso   1.00
H95    H     0.24666   0.03008   0.27726   0.00000  Uiso   1.00
H96    H     0.25791   0.34013   0.08879   0.00000  Uiso   1.00
H97    H     0.02336   0.29117   0.14038   0.00000  Uiso   1.00
H98    H     0.32515   0.27597   0.08214   0.00000  Uiso   1.00
H99    H     0.01026   0.35225   0.05155   0.00000  Uiso   1.00
H100   H     0.07068   0.32872   0.08249   0.00000  Uiso   1.00
H101   H     0.03771   0.37009   0.11108   0.00000  Uiso   1.00
H102   H     0.05207   0.16880   0.34363   0.00000  Uiso   1.00
H103   H     0.06560   0.17356   0.40661   0.00000  Uiso   1.00
H104   H     0.08906   0.09401   0.34690   0.00000  Uiso   1.00
H105   H     0.11450   0.09912   0.40929   0.00000  Uiso   1.00
H106   H     0.09172   0.46633   0.28672   0.00000  Uiso   1.00
H107   H     0.02487   0.09946   0.42935   0.00000  Uiso   1.00
H108   H     0.03047   0.05204   0.39257   0.00000  Uiso   1.00
H109   H     0.32914   0.10061   0.36720   0.00000  Uiso   1.00
H110   H     0.24128   0.28006   0.04184   0.00000  Uiso   1.00
H111   H     0.13951   0.18183   0.46362   0.00000  Uiso   1.00
H112   H     0.05882   0.13554   0.26891   0.00000  Uiso   1.00
N113   N     0.16667   0.24999   0.12624   0.00000  Uiso   1.00
N114   N     0.16667   0.25001   0.37377   0.00000  Uiso   1.00
O115   O     0.16667   0.18453   0.28974   0.00000  Uiso   1.00
O116   O     0.19313   0.32839   0.47313   0.00000  Uiso   1.00
O117   O     0.08402   0.21015   0.11646   0.00000  Uiso   1.00
O118   O     0.20732   0.32262   0.37821   0.00000  Uiso   1.00
O119   O     0.25104   0.28695   0.13843   0.00000  Uiso   1.00
O120   O     0.13167   0.17566   0.36931   0.00000  Uiso   1.00
O121   O     0.16666   0.31546   0.21026   0.00000  Uiso   1.00
O122   O     0.16667   0.18453   0.21026   0.00000  Uiso   1.00
O123   O     0.16666   0.31547   0.28974   0.00000  Uiso   1.00
O124   O     0.09058   0.25000   0.28045   0.00000  Uiso   1.00
O125   O     0.24275   0.25000   0.21956   0.00000  Uiso   1.00
O126   O     0.09058   0.24999   0.20097   0.00000  Uiso   1.00
O127   O     0.24275   0.25000   0.29904   0.00000  Uiso   1.00
O128   O     0.07642   0.21511   0.01825   0.00000  Uiso   1.00
Zn129  Zn    0.16667   0.25000   0.30307   0.00000  Uiso   1.00
Zn130  Zn    0.16667   0.24999   0.19693   0.00000  Uiso   1.00
C131   C     0.49928   0.16430   0.25041   0.00000  Uiso   1.00
C132   C     0.48315   0.21241   0.44597   0.00000  Uiso   1.00
C133   C     0.49749   0.25056   0.02612   0.00000  Uiso   1.00
C134   C     0.49821   0.25063   0.47307   0.00000  Uiso   1.00
C135   C     0.40033   0.24900   0.23751   0.00000  Uiso   1.00
C136   C     0.59966   0.24972   0.26260   0.00000  Uiso   1.00
C137   C     0.34508   0.24636   0.23117   0.00000  Uiso   1.00
C138   C     0.65491   0.24977   0.26937   0.00000  Uiso   1.00
C139   C     0.44786   0.04735   0.24513   0.00000  Uiso   1.00
C140   C     0.53366   0.45597   0.23306   0.00000  Uiso   1.00
C141   C     0.44862   0.09371   0.24416   0.00000  Uiso   1.00
C142   C     0.49883   0.33594   0.24952   0.00000  Uiso   1.00
C143   C     0.53508   0.40992   0.23096   0.00000  Uiso   1.00
C144   C     0.49783   0.11670   0.25206   0.00000  Uiso   1.00
C145   C     0.49590   0.38391   0.24884   0.00000  Uiso   1.00
C146   C     0.54554   0.09421   0.26416   0.00000  Uiso   1.00
C147   C     0.45476   0.40410   0.26759   0.00000  Uiso   1.00
C148   C     0.54363   0.04797   0.26722   0.00000  Uiso   1.00
C149   C     0.45527   0.45040   0.27083   0.00000  Uiso   1.00
C150   C     0.49522   0.02456   0.25628   0.00000  Uiso   1.00
C151   C     0.49481   0.47617   0.25390   0.00000  Uiso   1.00
C152   C     0.39716   0.11807   0.23605   0.00000  Uiso   1.00
C153   C     0.45456   0.23275   0.04645   0.00000  Uiso   1.00
C154   C     0.57773   0.38932   0.20878   0.00000  Uiso   1.00
C155   C     0.59822   0.11903   0.27353   0.00000  Uiso   1.00
C156   C     0.40951   0.37706   0.28267   0.00000  Uiso   1.00
C157   C     0.37837   0.24995   0.49569   0.00000  Uiso   1.00
C158   C     0.65339   0.23491   0.48773   0.00000  Uiso   1.00
C159   C     0.64119   0.19901   0.44997   0.00000  Uiso   1.00
C160   C     0.48033   0.35377   0.46879   0.00000  Uiso   1.00
C161   C     0.49129   0.39416   0.00121   0.00000  Uiso   1.00
C162   C     0.44263   0.42294   0.49806   0.00000  Uiso   1.00
C163   C     0.41613   0.16327   0.10984   0.00000  Uiso   1.00
C164   C     0.51408   0.28891   0.44893   0.00000  Uiso   1.00
C165   C     0.35890   0.14577   0.10505   0.00000  Uiso   1.00
C166   C     0.35566   0.09480   0.10360   0.00000  Uiso   1.00
C167   C     0.59599   0.32353   0.39303   0.00000  Uiso   1.00
C168   C     0.62113   0.36209   0.36802   0.00000  Uiso   1.00
C169   C     0.34671   0.36725   0.38756   0.00000  Uiso   1.00
C170   C     0.61412   0.32142   0.11908   0.00000  Uiso   1.00
C171   C     0.66603   0.30395   0.10736   0.00000  Uiso   1.00
C172   C     0.36467   0.34113   0.08678   0.00000  Uiso   1.00
C173   C     0.41402   0.15956   0.37564   0.00000  Uiso   1.00
C174   C     0.41501   0.10861   0.38073   0.00000  Uiso   1.00
C175   C     0.45831   0.23003   0.09685   0.00000  Uiso   1.00
C176   C     0.36321   0.08912   0.39316   0.00000  Uiso   1.00
C177   C     0.51888   0.28669   0.40004   0.00000  Uiso   1.00
C178   C     0.54127   0.26966   0.10716   0.00000  Uiso   1.00
C179   C     0.48072   0.21341   0.39582   0.00000  Uiso   1.00
C180   C     0.54091   0.26810   0.05715   0.00000  Uiso   1.00
H181   H     0.65723   0.24144   0.19539   0.00000  Uiso   1.00
H182   H     0.39713   0.14338   0.20734   0.00000  Uiso   1.00
H183   H     0.36273   0.09488   0.22608   0.00000  Uiso   1.00
H184   H     0.55857   0.37331   0.17545   0.00000  Uiso   1.00
H185   H     0.60732   0.41457   0.19976   0.00000  Uiso   1.00
H186   H     0.59895   0.36414   0.23330   0.00000  Uiso   1.00
H187   H     0.59922   0.14187   0.30395   0.00000  Uiso   1.00
H188   H     0.63145   0.09576   0.28214   0.00000  Uiso   1.00
H189   H     0.60441   0.13894   0.24152   0.00000  Uiso   1.00
H190   H     0.39204   0.35410   0.25379   0.00000  Uiso   1.00
H191   H     0.42373   0.35732   0.31531   0.00000  Uiso   1.00
H192   H     0.34269   0.25377   0.30542   0.00000  Uiso   1.00
H193   H     0.37751   0.39882   0.29004   0.00000  Uiso   1.00
H194   H     0.39038   0.25872   0.46084   0.00000  Uiso   1.00
H195   H     0.38185   0.28087   0.01715   0.00000  Uiso   1.00
H196   H     0.64232   0.22186   0.02157   0.00000  Uiso   1.00
H197   H     0.62864   0.26414   0.47641   0.00000  Uiso   1.00
H198   H     0.65037   0.21185   0.41532   0.00000  Uiso   1.00
H199   H     0.59853   0.18943   0.44542   0.00000  Uiso   1.00
H200   H     0.66453   0.16890   0.46111   0.00000  Uiso   1.00
H201   H     0.44672   0.33383   0.47970   0.00000  Uiso   1.00
H202   H     0.46904   0.36570   0.43135   0.00000  Uiso   1.00
H203   H     0.41051   0.02908   0.23671   0.00000  Uiso   1.00
H204   H     0.50296   0.38245   0.03858   0.00000  Uiso   1.00
H205   H     0.52451   0.41472   0.49080   0.00000  Uiso   1.00
H206   H     0.43074   0.43560   0.46111   0.00000  Uiso   1.00
H207   H     0.45184   0.45194   0.02202   0.00000  Uiso   1.00
H208   H     0.40921   0.40321   0.00915   0.00000  Uiso   1.00
H209   H     0.44016   0.14725   0.14113   0.00000  Uiso   1.00
H210   H     0.43244   0.15262   0.07792   0.00000  Uiso   1.00
H211   H     0.34060   0.15736   0.13531   0.00000  Uiso   1.00
H212   H     0.33594   0.15934   0.07175   0.00000  Uiso   1.00
H213   H     0.37192   0.08272   0.07241   0.00000  Uiso   1.00
H214   H     0.56274   0.47624   0.21801   0.00000  Uiso   1.00
H215   H     0.64705   0.08324   0.10056   0.00000  Uiso   1.00
H216   H     0.37819   0.08022   0.13660   0.00000  Uiso   1.00
H217   H     0.61346   0.29166   0.38417   0.00000  Uiso   1.00
H218   H     0.60583   0.32909   0.43197   0.00000  Uiso   1.00
H219   H     0.61576   0.35585   0.32917   0.00000  Uiso   1.00
H220   H     0.60135   0.39366   0.37373   0.00000  Uiso   1.00
H221   H     0.35289   0.37211   0.42663   0.00000  Uiso   1.00
H222   H     0.36364   0.39699   0.37105   0.00000  Uiso   1.00
H223   H     0.36788   0.33707   0.37971   0.00000  Uiso   1.00
H224   H     0.62600   0.34641   0.14711   0.00000  Uiso   1.00
H225   H     0.57999   0.03008   0.27726   0.00000  Uiso   1.00
H226   H     0.59124   0.34013   0.08879   0.00000  Uiso   1.00
H227   H     0.35669   0.29117   0.14038   0.00000  Uiso   1.00
H228   H     0.65848   0.27597   0.08214   0.00000  Uiso   1.00
H229   H     0.34360   0.35225   0.05155   0.00000  Uiso   1.00
H230   H     0.40402   0.32872   0.08249   0.00000  Uiso   1.00
H231   H     0.37104   0.37009   0.11108   0.00000  Uiso   1.00
H232   H     0.38540   0.16880   0.34363   0.00000  Uiso   1.00
H233   H     0.39893   0.17356   0.40661   0.00000  Uiso   1.00
H234   H     0.42239   0.09401   0.34690   0.00000  Uiso   1.00
H235   H     0.44783   0.09912   0.40929   0.00000  Uiso   1.00
H236   H     0.42506   0.46633   0.28672   0.00000  Uiso   1.00
H237   H     0.35821   0.09946   0.42935   0.00000  Uiso   1.00
H238   H     0.36381   0.05204   0.39257   0.00000  Uiso   1.00
H239   H     0.66247   0.10061   0.36720   0.00000  Uiso   1.00
H240   H     0.57462   0.28006   0.04184   0.00000  Uiso   1.00
H241   H     0.47284   0.18183   0.46362   0.00000  Uiso   1.00
H242   H     0.39216   0.13554   0.26891   0.00000  Uiso   1.00
N243   N     0.50000   0.24999   0.12624   0.00000  Uiso   1.00
N244   N     0.50000   0.25001   0.37377   0.00000  Uiso   1.00
O245   O     0.50000   0.18453   0.28974   0.00000  Uiso   1.00
O246   O     0.52646   0.32839   0.47313   0.00000  Uiso   1.00
O247   O     0.41735   0.21015   0.11646   0.00000  Uiso   1.00
O248   O     0.54065   0.32262   0.37821   0.00000  Uiso   1.00
O249   O     0.58437   0.28695   0.13843   0.00000  Uiso   1.00
O250   O     0.46501   0.17566   0.36931   0.00000  Uiso   1.00
O251   O     0.50000   0.31546   0.21026   0.00000  Uiso   1.00
O252   O     0.50000   0.18453   0.21026   0.00000  Uiso   1.00
O253   O     0.50000   0.31547   0.28974   0.00000  Uiso   1.00
O254   O     0.42392   0.25000   0.28045   0.00000  Uiso   1.00
O255   O     0.57608   0.25000   0.21956   0.00000  Uiso   1.00
O256   O     0.42392   0.24999   0.20097   0.00000  Uiso   1.00
O257   O     0.57608   0.25000   0.29904   0.00000  Uiso   1.00
O258   O     0.40975   0.21511   0.01825   0.00000  Uiso   1.00
Zn259  Zn    0.50000   0.25000   0.30307   0.00000  Uiso   1.00
Zn260  Zn    0.50000   0.24999   0.19693   0.00000  Uiso   1.00
C261   C     0.83261   0.16430   0.25041   0.00000  Uiso   1.00
C262   C     0.81649   0.21241   0.44597   0.00000  Uiso   1.00
C263   C     0.83083   0.25056   0.02612   0.00000  Uiso   1.00
C264   C     0.83154   0.25063   0.47307   0.00000  Uiso   1.00
C265   C     0.73366   0.24900   0.23751   0.00000  Uiso   1.00
C266   C     0.93299   0.24972   0.26260   0.00000  Uiso   1.00
C267   C     0.67842   0.24636   0.23117   0.00000  Uiso   1.00
C268   C     0.98825   0.24977   0.26937   0.00000  Uiso   1.00
C269   C     0.78120   0.04735   0.24513   0.00000  Uiso   1.00
C270   C     0.86699   0.45597   0.23306   0.00000  Uiso   1.00
C271   C     0.78195   0.09371   0.24416   0.00000  Uiso   1.00
C272   C     0.83216   0.33594   0.24952   0.00000  Uiso   1.00
C273   C     0.86841   0.40992   0.23096   0.00000  Uiso   1.00
C274   C     0.83117   0.11670   0.25206   0.00000  Uiso   1.00
C275   C     0.82924   0.38391   0.24884   0.00000  Uiso   1.00
C276   C     0.87888   0.09421   0.26416   0.00000  Uiso   1.00
C277   C     0.78809   0.40410   0.26759   0.00000  Uiso   1.00
C278   C     0.87696   0.04797   0.26722   0.00000  Uiso   1.00
C279   C     0.78861   0.45040   0.27083   0.00000  Uiso   1.00
C280   C     0.82855   0.02456   0.25628   0.00000  Uiso   1.00
C281   C     0.82814   0.47617   0.25390   0.00000  Uiso   1.00
C282   C     0.73050   0.11807   0.23605   0.00000  Uiso   1.00
C283   C     0.78789   0.23275   0.04645   0.00000  Uiso   1.00
C284   C     0.91107   0.38932   0.20878   0.00000  Uiso   1.00
C285   C     0.93155   0.11903   0.27353   0.00000  Uiso   1.00
C286   C     0.74284   0.37706   0.28267   0.00000  Uiso   1.00
C287   C     0.71171   0.24995   0.49569   0.00000  Uiso   1.00
C288   C     0.98672   0.23491   0.48773   0.00000  Uiso   1.00
C289   C     0.97452   0.19901   0.44997   0.00000  Uiso   1.00
C290   C     0.81367   0.35377   0.46879   0.00000  Uiso   1.00
C291   C     0.82462   0.39416   0.00121   0.00000  Uiso   1.00
C292   C     0.77597   0.42294   0.49806   0.00000  Uiso   1.00
C293   C     0.74946   0.16327   0.10984   0.00000  Uiso   1.00
C294   C     0.84741   0.28891   0.44893   0.00000  Uiso   1.00
C295   C     0.69223   0.14577   0.10505   0.00000  Uiso   1.00
C296   C     0.68899   0.09480   0.10360   0.00000  Uiso   1.00
C297   C     0.92933   0.32353   0.39303   0.00000  Uiso   1.00
C298   C     0.95446   0.36209   0.36802   0.00000  Uiso   1.00
C299   C     0.68005   0.36725   0.38756   0.00000  Uiso   1.00
C300   C     0.94745   0.32142   0.11908   0.00000  Uiso   1.00
C301   C     0.99937   0.30395   0.10736   0.00000  Uiso   1.00
C302   C     0.69800   0.34113   0.08678   0.00000  Uiso   1.00
C303   C     0.74735   0.15956   0.37564   0.00000  Uiso   1.00
C304   C     0.74835   0.10861   0.38073   0.00000  Uiso   1.00
C305   C     0.79164   0.23003   0.09685   0.00000  Uiso   1.00
C306   C     0.69655   0.08912   0.39316   0.00000  Uiso   1.00
C307   C     0.85222   0.28669   0.40004   0.00000  Uiso   1.00
C308   C     0.87460   0.26966   0.10716   0.00000  Uiso   1.00
C309   C     0.81406   0.21341   0.39582   0.00000  Uiso   1.00
C310   C     0.87424   0.26810   0.05715   0.00000  Uiso   1.00
H311   H     0.99057   0.24144   0.19539   0.00000  Uiso   1.00
H312   H     0.73046   0.14338   0.20734   0.00000  Uiso   1.00
H313   H     0.69606   0.09488   0.22608   0.00000  Uiso   1.00
H314   H     0.89190   0.37331   0.17545   0.00000  Uiso   1.00
H315   H     0.94065   0.41457   0.19976   0.00000  Uiso   1.00
H316   H     0.93228   0.36414   0.23330   0.00000  Uiso   1.00
H317   H     0.93255   0.14187   0.30395   0.00000  Uiso   1.00
H318   H     0.96479   0.09576   0.28214   0.00000  Uiso   1.00
H319   H     0.93774   0.13894   0.24152   0.00000  Uiso   1.00
H320   H     0.72537   0.35410   0.25379   0.00000  Uiso   1.00
H321   H     0.75706   0.35732   0.31531   0.00000  Uiso   1.00
H322   H     0.67603   0.25377   0.30542   0.00000  Uiso   1.00
H323   H     0.71084   0.39882   0.29004   0.00000  Uiso   1.00
H324   H     0.72371   0.25872   0.46084   0.00000  Uiso   1.00
H325   H     0.71518   0.28087   0.01715   0.00000  Uiso   1.00
H326   H     0.97565   0.22186   0.02157   0.00000  Uiso   1.00
H327   H     0.96197   0.26414   0.47641   0.00000  Uiso   1.00
H328   H     0.98370   0.21185   0.41532   0.00000  Uiso   1.00
H329   H     0.93187   0.18943   0.44542   0.00000  Uiso   1.00
H330   H     0.99786   0.16890   0.46111   0.00000  Uiso   1.00
H331   H     0.78006   0.33383   0.47970   0.00000  Uiso   1.00
H332   H     0.80237   0.36570   0.43135   0.00000  Uiso   1.00
H333   H     0.74384   0.02908   0.23671   0.00000  Uiso   1.00
H334   H     0.83629   0.38245   0.03858   0.00000  Uiso   1.00
H335   H     0.85784   0.41472   0.49080   0.00000  Uiso   1.00
H336   H     0.76408   0.43560   0.46111   0.00000  Uiso   1.00
H337   H     0.78517   0.45194   0.02202   0.00000  Uiso   1.00
H338   H     0.74254   0.40321   0.00915   0.00000  Uiso   1.00
H339   H     0.77349   0.14725   0.14113   0.00000  Uiso   1.00
H340   H     0.76577   0.15262   0.07792   0.00000  Uiso   1.00
H341   H     0.67393   0.15736   0.13531   0.00000  Uiso   1.00
H342   H     0.66928   0.15934   0.07175   0.00000  Uiso   1.00
H343   H     0.70525   0.08272   0.07241   0.00000  Uiso   1.00
H344   H     0.89608   0.47624   0.21801   0.00000  Uiso   1.00
H345   H     0.98038   0.08324   0.10056   0.00000  Uiso   1.00
H346   H     0.71153   0.08022   0.13660   0.00000  Uiso   1.00
H347   H     0.94679   0.29166   0.38417   0.00000  Uiso   1.00
H348   H     0.93917   0.32909   0.43197   0.00000  Uiso   1.00
H349   H     0.94909   0.35585   0.32917   0.00000  Uiso   1.00
H350   H     0.93469   0.39366   0.37373   0.00000  Uiso   1.00
H351   H     0.68622   0.37211   0.42663   0.00000  Uiso   1.00
H352   H     0.69697   0.39699   0.37105   0.00000  Uiso   1.00
H353   H     0.70121   0.33707   0.37971   0.00000  Uiso   1.00
H354   H     0.95933   0.34641   0.14711   0.00000  Uiso   1.00
H355   H     0.91333   0.03008   0.27726   0.00000  Uiso   1.00
H356   H     0.92457   0.34013   0.08879   0.00000  Uiso   1.00
H357   H     0.69002   0.29117   0.14038   0.00000  Uiso   1.00
H358   H     0.99181   0.27597   0.08214   0.00000  Uiso   1.00
H359   H     0.67693   0.35225   0.05155   0.00000  Uiso   1.00
H360   H     0.73735   0.32872   0.08249   0.00000  Uiso   1.00
H361   H     0.70437   0.37009   0.11108   0.00000  Uiso   1.00
H362   H     0.71873   0.16880   0.34363   0.00000  Uiso   1.00
H363   H     0.73227   0.17356   0.40661   0.00000  Uiso   1.00
H364   H     0.75572   0.09401   0.34690   0.00000  Uiso   1.00
H365   H     0.78116   0.09912   0.40929   0.00000  Uiso   1.00
H366   H     0.75839   0.46633   0.28672   0.00000  Uiso   1.00
H367   H     0.69154   0.09946   0.42935   0.00000  Uiso   1.00
H368   H     0.69714   0.05204   0.39257   0.00000  Uiso   1.00
H369   H     0.99580   0.10061   0.36720   0.00000  Uiso   1.00
H370   H     0.90795   0.28006   0.04184   0.00000  Uiso   1.00
H371   H     0.80617   0.18183   0.46362   0.00000  Uiso   1.00
H372   H     0.72549   0.13554   0.26891   0.00000  Uiso   1.00
N373   N     0.83333   0.24999   0.12624   0.00000  Uiso   1.00
N374   N     0.83333   0.25001   0.37377   0.00000  Uiso   1.00
O375   O     0.83334   0.18453   0.28974   0.00000  Uiso   1.00
O376   O     0.85979   0.32839   0.47313   0.00000  Uiso   1.00
O377   O     0.75068   0.21015   0.11646   0.00000  Uiso   1.00
O378   O     0.87398   0.32262   0.37821   0.00000  Uiso   1.00
O379   O     0.91771   0.28695   0.13843   0.00000  Uiso   1.00
O380   O     0.79834   0.17566   0.36931   0.00000  Uiso   1.00
O381   O     0.83333   0.31546   0.21026   0.00000  Uiso   1.00
O382   O     0.83334   0.18453   0.21026   0.00000  Uiso   1.00
O383   O     0.83333   0.31547   0.28974   0.00000  Uiso   1.00
O384   O     0.75725   0.25000   0.28045   0.00000  Uiso   1.00
O385   O     0.90942   0.25000   0.21956   0.00000  Uiso   1.00
O386   O     0.75725   0.24999   0.20097   0.00000  Uiso   1.00
O387   O     0.90942   0.25000   0.29904   0.00000  Uiso   1.00
O388   O     0.74309   0.21511   0.01825   0.00000  Uiso   1.00
Zn389  Zn    0.83333   0.25000   0.30307   0.00000  Uiso   1.00
Zn390  Zn    0.83333   0.24999   0.19693   0.00000  Uiso   1.00
C391   C     0.16595   0.66430   0.25041   0.00000  Uiso   1.00
C392   C     0.14982   0.71241   0.44597   0.00000  Uiso   1.00
C393   C     0.16416   0.75056   0.02612   0.00000  Uiso   1.00
C394   C     0.16488   0.75063   0.47307   0.00000  Uiso   1.00
C395   C     0.06700   0.74900   0.23751   0.00000  Uiso   1.00
C396   C     0.26633   0.74972   0.26260   0.00000  Uiso   1.00
C397   C     0.01175   0.74636   0.23117   0.00000  Uiso   1.00
C398   C     0.32158   0.74977   0.26937   0.00000  Uiso   1.00
C399   C     0.11453   0.54735   0.24513   0.00000  Uiso   1.00
C400   C     0.20032   0.95597   0.23306   0.00000  Uiso   1.00
C401   C     0.11529   0.59371   0.24416   0.00000  Uiso   1.00
C402   C     0.16550   0.83594   0.24952   0.00000  Uiso   1.00
C403   C     0.20174   0.90992   0.23096   0.00000  Uiso   1.00
C404   C     0.16450   0.61670   0.25206   0.00000  Uiso   1.00
C405   C     0.16257   0.88391   0.24884   0.00000  Uiso   1.00
C406   C     0.21221   0.59421   0.26416   0.00000  Uiso   1.00
C407   C     0.12143   0.90410   0.26759   0.00000  Uiso   1.00
C408   C     0.21029   0.54797   0.26722   0.00000  Uiso   1.00
C409   C     0.12194   0.95040   0.27083   0.00000  Uiso   1.00
C410   C     0.16188   0.52456   0.25628   0.00000  Uiso   1.00
C411   C     0.16148   0.97617   0.25390   0.00000  Uiso   1.00
C412   C     0.06383   0.61807   0.23605   0.00000  Uiso   1.00
C413   C     0.12123   0.73275   0.04645   0.00000  Uiso   1.00
C414   C     0.24440   0.88932   0.20878   0.00000  Uiso   1.00
C415   C     0.26488   0.61903   0.27353   0.00000  Uiso   1.00
C416   C     0.07618   0.87706   0.28267   0.00000  Uiso   1.00
C417   C     0.04504   0.74995   0.49569   0.00000  Uiso   1.00
C418   C     0.32006   0.73491   0.48773   0.00000  Uiso   1.00
C419   C     0.30786   0.69901   0.44997   0.00000  Uiso   1.00
C420   C     0.14700   0.85377   0.46879   0.00000  Uiso   1.00
C421   C     0.15796   0.89416   0.00121   0.00000  Uiso   1.00
C422   C     0.10930   0.92294   0.49806   0.00000  Uiso   1.00
C423   C     0.08280   0.66327   0.10984   0.00000  Uiso   1.00
C424   C     0.18075   0.78891   0.44893   0.00000  Uiso   1.00
C425   C     0.02557   0.64577   0.10505   0.00000  Uiso   1.00
C426   C     0.02233   0.59480   0.10360   0.00000  Uiso   1.00
C427   C     0.26266   0.82353   0.39303   0.00000  Uiso   1.00
C428   C     0.28779   0.86209   0.36802   0.00000  Uiso   1.00
C429   C     0.01338   0.86725   0.38756   0.00000  Uiso   1.00
C430   C     0.28079   0.82142   0.11908   0.00000  Uiso   1.00
C431   C     0.33270   0.80395   0.10736   0.00000  Uiso   1.00
C432   C     0.03134   0.84113   0.08678   0.00000  Uiso   1.00
C433   C     0.08069   0.65956   0.37564   0.00000  Uiso   1.00
C434   C     0.08168   0.60861   0.38073   0.00000  Uiso   1.00
C435   C     0.12498   0.73003   0.09685   0.00000  Uiso   1.00
C436   C     0.02988   0.58912   0.39316   0.00000  Uiso   1.00
C437   C     0.18555   0.78669   0.40004   0.00000  Uiso   1.00
C438   C     0.20793   0.76966   0.10716   0.00000  Uiso   1.00
C439   C     0.14739   0.71341   0.39582   0.00000  Uiso   1.00
C440   C     0.20758   0.76810   0.05715   0.00000  Uiso   1.00
H441   H     0.32390   0.74144   0.19539   0.00000  Uiso   1.00
H442   H     0.06379   0.64338   0.20734   0.00000  Uiso   1.00
H443   H     0.02939   0.59488   0.22608   0.00000  Uiso   1.00
H444   H     0.22523   0.87331   0.17545   0.00000  Uiso   1.00
H445   H     0.27399   0.91457   0.19976   0.00000  Uiso   1.00
H446   H     0.26562   0.86414   0.23330   0.00000  Uiso   1.00
H447   H     0.26588   0.64187   0.30395   0.00000  Uiso   1.00
H448   H     0.29812   0.59576   0.28214   0.00000  Uiso   1.00
H449   H     0.27108   0.63894   0.24152   0.00000  Uiso   1.00
H450   H     0.05871   0.85410   0.25379   0.00000  Uiso   1.00
H451   H     0.09040   0.85732   0.31531   0.00000  Uiso   1.00
H452   H     0.00936   0.75377   0.30542   0.00000  Uiso   1.00
H453   H     0.04418   0.89882   0.29004   0.00000  Uiso   1.00
H454   H     0.05705   0.75872   0.46084   0.00000  Uiso   1.00
H455   H     0.04851   0.78087   0.01715   0.00000  Uiso   1.00
H456   H     0.30899   0.72186   0.02157   0.00000  Uiso   1.00
H457   H     0.29531   0.76414   0.47641   0.00000  Uiso   1.00
H458   H     0.31704   0.71185   0.41532   0.00000  Uiso   1.00
H459   H     0.26520   0.68943   0.44542   0.00000  Uiso   1.00
H460   H     0.33120   0.66890   0.46111   0.00000  Uiso   1.00
H461   H     0.11339   0.83383   0.47970   0.00000  Uiso   1.00
H462   H     0.13571   0.86570   0.43135   0.00000  Uiso   1.00
H463   H     0.07718   0.52908   0.23671   0.00000  Uiso   1.00
H464   H     0.16962   0.88245   0.03858   0.00000  Uiso   1.00
H465   H     0.19118   0.91472   0.49080   0.00000  Uiso   1.00
H466   H     0.09741   0.93560   0.46111   0.00000  Uiso   1.00
H467   H     0.11851   0.95194   0.02202   0.00000  Uiso   1.00
H468   H     0.07587   0.90321   0.00915   0.00000  Uiso   1.00
H469   H     0.10682   0.64725   0.14113   0.00000  Uiso   1.00
H470   H     0.09910   0.65262   0.07792   0.00000  Uiso   1.00
H471   H     0.00726   0.65736   0.13531   0.00000  Uiso   1.00
H472   H     0.00261   0.65934   0.07175   0.00000  Uiso   1.00
H473   H     0.03859   0.58272   0.07241   0.00000  Uiso   1.00
H474   H     0.22941   0.97624   0.21801   0.00000  Uiso   1.00
H475   H     0.31371   0.58324   0.10056   0.00000  Uiso   1.00
H476   H     0.04486   0.58022   0.13660   0.00000  Uiso   1.00
H477   H     0.28012   0.79166   0.38417   0.00000  Uiso   1.00
H478   H     0.27250   0.82909   0.43197   0.00000  Uiso   1.00
H479   H     0.28243   0.85585   0.32917   0.00000  Uiso   1.00
H480   H     0.26802   0.89366   0.37373   0.00000  Uiso   1.00
H481   H     0.01955   0.87211   0.42663   0.00000  Uiso   1.00
H482   H     0.03030   0.89699   0.37105   0.00000  Uiso   1.00
H483   H     0.03454   0.83707   0.37971   0.00000  Uiso   1.00
H484   H     0.29266   0.84641   0.14711   0.00000  Uiso   1.00
H485   H     0.24666   0.53008   0.27726   0.00000  Uiso   1.00
H486   H     0.25791   0.84013   0.08879   0.00000  Uiso   1.00
H487   H     0.02336   0.79117   0.14038   0.00000  Uiso   1.00
H488   H     0.32515   0.77597   0.08214   0.00000  Uiso   1.00
H489   H     0.01026   0.85225   0.05155   0.00000  Uiso   1.00
H490   H     0.07068   0.82872   0.08249   0.00000  Uiso   1.00
H491   H     0.03771   0.87009   0.11108   0.00000  Uiso   1.00
H492   H     0.05207   0.66880   0.34363   0.00000  Uiso   1.00
H493   H     0.06560   0.67356   0.40661   0.00000  Uiso   1.00
H494   H     0.08906   0.59401   0.34690   0.00000  Uiso   1.00
H495   H     0.11450   0.59912   0.40929   0.00000  Uiso   1.00
H496   H     0.09172   0.96633   0.28672   0.00000  Uiso   1.00
H497   H     0.02487   0.59946   0.42935   0.00000  Uiso   1.00
H498   H     0.03047   0.55204   0.39257   0.00000  Uiso   1.00
H499   H     0.32914   0.60061   0.36720   0.00000  Uiso   1.00
H500   H     0.24128   0.78006   0.04184   0.00000  Uiso   1.00
H501   H     0.13951   0.68183   0.46362   0.00000  Uiso   1.00
H502   H     0.05882   0.63554   0.26891   0.00000  Uiso   1.00
N503   N     0.16667   0.74999   0.12624   0.00000  Uiso   1.00
N504   N     0.16667   0.75001   0.37377   0.00000  Uiso   1.00
O505   O     0.16667   0.68453   0.28974   0.00000  Uiso   1.00
O506   O     0.19313   0.82839   0.47313   0.00000  Uiso   1.00
O507   O     0.08402   0.71015   0.11646   0.00000  Uiso   1.00
O508   O     0.20732   0.82262   0.37821   0.00000  Uiso   1.00
O509   O     0.25104   0.78695   0.13843   0.00000  Uiso   1.00
O510   O     0.13167   0.67566   0.36931   0.00000  Uiso   1.00
O511   O     0.16666   0.81546   0.21026   0.00000  Uiso   1.00
O512   O     0.16667   0.68453   0.21026   0.00000  Uiso   1.00
O513   O     0.16666   0.81547   0.28974   0.00000  Uiso   1.00
O514   O     0.09058   0.75000   0.28045   0.00000  Uiso   1.00
O515   O     0.24275   0.75000   0.21956   0.00000  Uiso   1.00
O516   O     0.09058   0.74999   0.20097   0.00000  Uiso   1.00
O517   O     0.24275   0.75000   0.29904   0.00000  Uiso   1.00
O518   O     0.07642   0.71511   0.01825   0.00000  Uiso   1.00
Zn519  Zn    0.16667   0.75000   0.30307   0.00000  Uiso   1.00
Zn520  Zn    0.16667   0.74999   0.19693   0.00000  Uiso   1.00
C521   C     0.49928   0.66430   0.25041   0.00000  Uiso   1.00
C522   C     0.48315   0.71241   0.44597   0.00000  Uiso   1.00
C523   C     0.49749   0.75056   0.02612   0.00000  Uiso   1.00
C524   C     0.49821   0.75063   0.47307   0.00000  Uiso   1.00
C525   C     0.40033   0.74900   0.23751   0.00000  Uiso   1.00
C526   C     0.59966   0.74972   0.26260   0.00000  Uiso   1.00
C527   C     0.34508   0.74636   0.23117   0.00000  Uiso   1.00
C528   C     0.65491   0.74977   0.26937   0.00000  Uiso   1.00
C529   C     0.44786   0.54735   0.24513   0.00000  Uiso   1.00
C530   C     0.53366   0.95597   0.23306   0.00000  Uiso   1.00
C531   C     0.44862   0.59371   0.24416   0.00000  Uiso   1.00
C532   C     0.49883   0.83594   0.24952   0.00000  Uiso   1.00
C533   C     0.53508   0.90992   0.23096   0.00000  Uiso   1.00
C534   C     0.49783   0.61670   0.25206   0.00000  Uiso   1.00
C535   C     0.49590   0.88391   0.24884   0.00000  Uiso   1.00
C536   C     0.54554   0.59421   0.26416   0.00000  Uiso   1.00
C537   C     0.45476   0.90410   0.26759   0.00000  Uiso   1.00
C538   C     0.54363   0.54797   0.26722   0.00000  Uiso   1.00
C539   C     0.45527   0.95040   0.27083   0.00000  Uiso   1.00
C540   C     0.49522   0.52456   0.25628   0.00000  Uiso   1.00
C541   C     0.49481   0.97617   0.25390   0.00000  Uiso   1.00
C542   C     0.39716   0.61807   0.23605   0.00000  Uiso   1.00
C543   C     0.45456   0.73275   0.04645   0.00000  Uiso   1.00
C544   C     0.57773   0.88932   0.20878   0.00000  Uiso   1.00
C545   C     0.59822   0.61903   0.27353   0.00000  Uiso   1.00
C546   C     0.40951   0.87706   0.28267   0.00000  Uiso   1.00
C547   C     0.37837   0.74995   0.49569   0.00000  Uiso   1.00
C548   C     0.65339   0.73491   0.48773   0.00000  Uiso   1.00
C549   C     0.64119   0.69901   0.44997   0.00000  Uiso   1.00
C550   C     0.48033   0.85377   0.46879   0.00000  Uiso   1.00
C551   C     0.49129   0.89416   0.00121   0.00000  Uiso   1.00
C552   C     0.44263   0.92294   0.49806   0.00000  Uiso   1.00
C553   C     0.41613   0.66327   0.10984   0.00000  Uiso   1.00
C554   C     0.51408   0.78891   0.44893   0.00000  Uiso   1.00
C555   C     0.35890   0.64577   0.10505   0.00000  Uiso   1.00
C556   C     0.35566   0.59480   0.10360   0.00000  Uiso   1.00
C557   C     0.59599   0.82353   0.39303   0.00000  Uiso   1.00
C558   C     0.62113   0.86209   0.36802   0.00000  Uiso   1.00
C559   C     0.34671   0.86725   0.38756   0.00000  Uiso   1.00
C560   C     0.61412   0.82142   0.11908   0.00000  Uiso   1.00
C561   C     0.66603   0.80395   0.10736   0.00000  Uiso   1.00
C562   C     0.36467   0.84113   0.08678   0.00000  Uiso   1.00
C563   C     0.41402   0.65956   0.37564   0.00000  Uiso   1.00
C564   C     0.41501   0.60861   0.38073   0.00000  Uiso   1.00
C565   C     0.45831   0.73003   0.09685   0.00000  Uiso   1.00
C566   C     0.36321   0.58912   0.39316   0.00000  Uiso   1.00
C567   C     0.51888   0.78669   0.40004   0.00000  Uiso   1.00
C568   C     0.54127   0.76966   0.10716   0.00000  Uiso   1.00
C569   C     0.48072   0.71341   0.39582   0.00000  Uiso   1.00
C570   C     0.54091   0.76810   0.05715   0.00000  Uiso   1.00
H571   H     0.65723   0.74144   0.19539   0.00000  Uiso   1.00
H572   H     0.39713   0.64338   0.20734   0.00000  Uiso   1.00
H573   H     0.36273   0.59488   0.22608   0.00000  Uiso   1.00
H574   H     0.55857   0.87331   0.17545   0.00000  Uiso   1.00
H575   H     0.60732   0.91457   0.19976   0.00000  Uiso   1.00
H576   H     0.59895   0.86414   0.23330   0.00000  Uiso   1.00
H577   H     0.59922   0.64187   0.30395   0.00000  Uiso   1.00
H578   H     0.63145   0.59576   0.28214   0.00000  Uiso   1.00
H579   H     0.60441   0.63894   0.24152   0.00000  Uiso   1.00
H580   H     0.39204   0.85410   0.25379   0.00000  Uiso   1.00
H581   H     0.42373   0.85732   0.31531   0.00000  Uiso   1.00
H582   H     0.34269   0.75377   0.30542   0.00000  Uiso   1.00
H583   H     0.37751   0.89882   0.29004   0.00000  Uiso   1.00
H584   H     0.39038   0.75872   0.46084   0.00000  Uiso   1.00
H585   H     0.38185   0.78087   0.01715   0.00000  Uiso   1.00
H586   H     0.64232   0.72186   0.02157   0.00000  Uiso   1.00
H587   H     0.62864   0.76414   0.47641   0.00000  Uiso   1.00
H588   H     0.65037   0.71185   0.41532   0.00000  Uiso   1.00
H589   H     0.59853   0.68943   0.44542   0.00000  Uiso   1.00
H590   H     0.66453   0.66890   0.46111   0.00000  Uiso   1.00
H591   H     0.44672   0.83383   0.47970   0.00000  Uiso   1.00
H592   H     0.46904   0.86570   0.43135   0.00000  Uiso   1.00
H593   H     0.41051   0.52908   0.23671   0.00000  Uiso   1.00
H594   H     0.50296   0.88245   0.03858   0.00000  Uiso   1.00
H595   H     0.52451   0.91472   0.49080   0.00000  Uiso   1.00
H596   H     0.43074   0.93560   0.46111   0.00000  Uiso   1.00
H597   H     0.45184   0.95194   0.02202   0.00000  Uiso   1.00
H598   H     0.40921   0.90321   0.00915   0.00000  Uiso   1.00
H599   H     0.44016   0.64725   0.14113   0.00000  Uiso   1.00
H600   H     0.43244   0.65262   0.07792   0.00000  Uiso   1.00
H601   H     0.34060   0.65736   0.13531   0.00000  Uiso   1.00
H602   H     0.33594   0.65934   0.07175   0.00000  Uiso   1.00
H603   H     0.37192   0.58272   0.07241   0.00000  Uiso   1.00
H604   H     0.56274   0.97624   0.21801   0.00000  Uiso   1.00
H605   H     0.64705   0.58324   0.10056   0.00000  Uiso   1.00
H606   H     0.37819   0.58022   0.13660   0.00000  Uiso   1.00
H607   H     0.61346   0.79166   0.38417   0.00000  Uiso   1.00
H608   H     0.60583   0.82909   0.43197   0.00000  Uiso   1.00
H609   H     0.61576   0.85585   0.32917   0.00000  Uiso   1.00
H610   H     0.60135   0.89366   0.37373   0.00000  Uiso   1.00
H611   H     0.35289   0.87211   0.42663   0.00000  Uiso   1.00
H612   H     0.36364   0.89699   0.37105   0.00000  Uiso   1.00
H613   H     0.36788   0.83707   0.37971   0.00000  Uiso   1.00
H614   H     0.62600   0.84641   0.14711   0.00000  Uiso   1.00
H615   H     0.57999   0.53008   0.27726   0.00000  Uiso   1.00
H616   H     0.59124   0.84013   0.08879   0.00000  Uiso   1.00
H617   H     0.35669   0.79117   0.14038   0.00000  Uiso   1.00
H618   H     0.65848   0.77597   0.08214   0.00000  Uiso   1.00
H619   H     0.34360   0.85225   0.05155   0.00000  Uiso   1.00
H620   H     0.40402   0.82872   0.08249   0.00000  Uiso   1.00
H621   H     0.37104   0.87009   0.11108   0.00000  Uiso   1.00
H622   H     0.38540   0.66880   0.34363   0.00000  Uiso   1.00
H623   H     0.39893   0.67356   0.40661   0.00000  Uiso   1.00
H624   H     0.42239   0.59401   0.34690   0.00000  Uiso   1.00
H625   H     0.44783   0.59912   0.40929   0.00000  Uiso   1.00
H626   H     0.42506   0.96633   0.28672   0.00000  Uiso   1.00
H627   H     0.35821   0.59946   0.42935   0.00000  Uiso   1.00
H628   H     0.36381   0.55204   0.39257   0.00000  Uiso   1.00
H629   H     0.66247   0.60061   0.36720   0.00000  Uiso   1.00
H630   H     0.57462   0.78006   0.04184   0.00000  Uiso   1.00
H631   H     0.47284   0.68183   0.46362   0.00000  Uiso   1.00
H632   H     0.39216   0.63554   0.26891   0.00000  Uiso   1.00
N633   N     0.50000   0.74999   0.12624   0.00000  Uiso   1.00
N634   N     0.50000   0.75001   0.37377   0.00000  Uiso   1.00
O635   O     0.50000   0.68453   0.28974   0.00000  Uiso   1.00
O636   O     0.52646   0.82839   0.47313   0.00000  Uiso   1.00
O637   O     0.41735   0.71015   0.11646   0.00000  Uiso   1.00
O638   O     0.54065   0.82262   0.37821   0.00000  Uiso   1.00
O639   O     0.58437   0.78695   0.13843   0.00000  Uiso   1.00
O640   O     0.46501   0.67566   0.36931   0.00000  Uiso   1.00
O641   O     0.50000   0.81546   0.21026   0.00000  Uiso   1.00
O642   O     0.50000   0.68453   0.21026   0.00000  Uiso   1.00
O643   O     0.50000   0.81547   0.28974   0.00000  Uiso   1.00
O644   O     0.42392   0.75000   0.28045   0.00000  Uiso   1.00
O645   O     0.57608   0.75000   0.21956   0.00000  Uiso   1.00
O646   O     0.42392   0.74999   0.20097   0.00000  Uiso   1.00
O647   O     0.57608   0.75000   0.29904   0.00000  Uiso   1.00
O648   O     0.40975   0.71511   0.01825   0.00000  Uiso   1.00
Zn649  Zn    0.50000   0.75000   0.30307   0.00000  Uiso   1.00
Zn650  Zn    0.50000   0.74999   0.19693   0.00000  Uiso   1.00
C651   C     0.83261   0.66430   0.25041   0.00000  Uiso   1.00
C652   C     0.81649   0.71241   0.44597   0.00000  Uiso   1.00
C653   C     0.83083   0.75056   0.02612   0.00000  Uiso   1.00
C654   C     0.83154   0.75063   0.47307   0.00000  Uiso   1.00
C655   C     0.73366   0.74900   0.23751   0.00000  Uiso   1.00
C656   C     0.93299   0.74972   0.26260   0.00000  Uiso   1.00
C657   C     0.67842   0.74636   0.23117   0.00000  Uiso   1.00
C658   C     0.98825   0.74977   0.26937   0.00000  Uiso   1.00
C659   C     0.78120   0.54735   0.24513   0.00000  Uiso   1.00
C660   C     0.86699   0.95597   0.23306   0.00000  Uiso   1.00
C661   C     0.78195   0.59371   0.24416   0.00000  Uiso   1.00
C662   C     0.83216   0.83594   0.24952   0.00000  Uiso   1.00
C663   C     0.86841   0.90992   0.23096   0.00000  Uiso   1.00
C664   C     0.83117   0.61670   0.25206   0.00000  Uiso   1.00
C665   C     0.82924   0.88391   0.24884   0.00000  Uiso   1.00
C666   C     0.87888   0.59421   0.26416   0.00000  Uiso   1.00
C667   C     0.78809   0.90410   0.26759   0.00000  Uiso   1.00
C668   C     0.87696   0.54797   0.26722   0.00000  Uiso   1.00
C669   C     0.78861   0.95040   0.27083   0.00000  Uiso   1.00
C670   C     0.82855   0.52456   0.25628   0.00000  Uiso   1.00
C671   C     0.82814   0.97617   0.25390   0.00000  Uiso   1.00
C672   C     0.73050   0.61807   0.23605   0.00000  Uiso   1.00
C673   C     0.78789   0.73275   0.04645   0.00000  Uiso   1.00
C674   C     0.91107   0.88932   0.20878   0.00000  Uiso   1.00
C675   C     0.93155   0.61903   0.27353   0.00000  Uiso   1.00
C676   C     0.74284   0.87706   0.28267   0.00000  Uiso   1.00
C677   C     0.71171   0.74995   0.49569   0.00000  Uiso   1.00
C678   C     0.98672   0.73491   0.48773   0.00000  Uiso   1.00
C679   C     0.97452   0.69901   0.44997   0.00000  Uiso   1.00
C680   C     0.81367   0.85377   0.46879   0.00000  Uiso   1.00
C681   C     0.82462   0.89416   0.00121   0.00000  Uiso   1.00
C682   C     0.77597   0.92294   0.49806   0.00000  Uiso   1.00
C683   C     0.74946   0.66327   0.10984   0.00000  Uiso   1.00
C684   C     0.84741   0.78891   0.44893   0.00000  Uiso   1.00
C685   C     0.69223   0.64577   0.10505   0.00000  Uiso   1.00
C686   C     0.68899   0.59480   0.10360   0.00000  Uiso   1.00
C687   C     0.92933   0.82353   0.39303   0.00000  Uiso   1.00
C688   C     0.95446   0.86209   0.36802   0.00000  Uiso   1.00
C689   C     0.68005   0.86725   0.38756   0.00000  Uiso   1.00
C690   C     0.94745   0.82142   0.11908   0.00000  Uiso   1.00
C691   C     0.99937   0.80395   0.10736   0.00000  Uiso   1.00
C692   C     0.69800   0.84113   0.08678   0.00000  Uiso   1.00
C693   C     0.74735   0.65956   0.37564   0.00000  Uiso   1.00
C694   C     0.74835   0.60861   0.38073   0.00000  Uiso   1.00
C695   C     0.79164   0.73003   0.09685   0.00000  Uiso   1.00
C696   C     0.69655   0.58912   0.39316   0.00000  Uiso   1.00
C697   C     0.85222   0.78669   0.40004   0.00000  Uiso   1.00
C698   C     0.87460   0.76966   0.10716   0.00000  Uiso   1.00
C699   C     0.81406   0.71341   0.39582   0.00000  Uiso   1.00
C700   C     0.87424   0.76810   0.05715   0.00000  Uiso   1.00
H701   H     0.99057   0.74144   0.19539   0.00000  Uiso   1.00
H702   H     0.73046   0.64338   0.20734   0.00000  Uiso   1.00
H703   H     0.69606   0.59488   0.22608   0.00000  Uiso   1.00
H704   H     0.89190   0.87331   0.17545   0.00000  Uiso   1.00
H705   H     0.94065   0.91457   0.19976   0.00000  Uiso   1.00
H706   H     0.93228   0.86414   0.23330   0.00000  Uiso   1.00
H707   H     0.93255   0.64187   0.30395   0.00000  Uiso   1.00
H708   H     0.96479   0.59576   0.28214   0.00000  Uiso   1.00
H709   H     0.93774   0.63894   0.24152   0.00000  Uiso   1.00
H710   H     0.72537   0.85410   0.25379   0.00000  Uiso   1.00
H711   H     0.75706   0.85732   0.31531   0.00000  Uiso   1.00
H712   H     0.67603   0.75377   0.30542   0.00000  Uiso   1.00
H713   H     0.71084   0.89882   0.29004   0.00000  Uiso   1.00
H714   H     0.72371   0.75872   0.46084   0.00000  Uiso   1.00
H715   H     0.71518   0.78087   0.01715   0.00000  Uiso   1.00
H716   H     0.97565   0.72186   0.02157   0.00000  Uiso   1.00
H717   H     0.96197   0.76414   0.47641   0.00000  Uiso   1.00
H718   H     0.98370   0.71185   0.41532   0.00000  Uiso   1.00
H719   H     0.93187   0.68943   0.44542   0.00000  Uiso   1.00
H720   H     0.99786   0.66890   0.46111   0.00000  Uiso   1.00
H721   H     0.78006   0.83383   0.47970   0.00000  Uiso   1.00
H722   H     0.80237   0.86570   0.43135   0.00000  Uiso   1.00
H723   H     0.74384   0.52908   0.23671   0.00000  Uiso   1.00
H724   H     0.83629   0.88245   0.03858   0.00000  Uiso   1.00
H725   H     0.85784   0.91472   0.49080   0.00000  Uiso   1.00
H726   H     0.76408   0.93560   0.46111   0.00000  Uiso   1.00
H727   H     0.78517   0.95194   0.02202   0.00000  Uiso   1.00
H728   H     0.74254   0.90321   0.00915   0.00000  Uiso   1.00
H729   H     0.77349   0.64725   0.14113   0.00000  Uiso   1.00
H730   H     0.76577   0.65262   0.07792   0.00000  Uiso   1.00
H731   H     0.67393   0.65736   0.13531   0.00000  Uiso   1.00
H732   H     0.66928   0.65934   0.07175   0.00000  Uiso   1.00
H733   H     0.70525   0.58272   0.07241   0.00000  Uiso   1.00
H734   H     0.89608   0.97624   0.21801   0.00000  Uiso   1.00
H735   H     0.98038   0.58324   0.10056   0.00000  Uiso   1.00
H736   H     0.71153   0.58022   0.13660   0.00000  Uiso   1.00
H737   H     0.94679   0.79166   0.38417   0.00000  Uiso   1.00
H738   H     0.93917   0.82909   0.43197   0.00000  Uiso   1.00
H739   H     0.94909   0.85585   0.32917   0.00000  Uiso   1.00
H740   H     0.93469   0.89366   0.37373   0.00000  Uiso   1.00
H741   H     0.68622   0.87211   0.42663   0.00000  Uiso   1.00
H742   H     0.69697   0.89699   0.37105   0.00000  Uiso   1.00
H743   H     0.70121   0.83707   0.37971   0.00000  Uiso   1.00
H744   H     0.95933   0.84641   0.14711   0.00000  Uiso   1.00
H745   H     0.91333   0.53008   0.27726   0.00000  Uiso   1.00
H746   H     0.92457   0.84013   0.08879   0.00000  Uiso   1.00
H747   H     0.69002   0.79117   0.14038   0.00000  Uiso   1.00
H748   H     0.99181   0.77597   0.08214   0.00000  Uiso   1.00
H749   H     0.67693   0.85225   0.05155   0.00000  Uiso   1.00
H750   H     0.73735   0.82872   0.08249   0.00000  Uiso   1.00
H751   H     0.70437   0.87009   0.11108   0.00000  Uiso   1.00
H752   H     0.71873   0.66880   0.34363   0.00000  Uiso   1.00
H753   H     0.73227   0.67356   0.40661   0.00000  Uiso   1.00
H754   H     0.75572   0.59401   0.34690   0.00000  Uiso   1.00
H755   H     0.78116   0.59912   0.40929   0.00000  Uiso   1.00
H756   H     0.75839   0.96633   0.28672   0.00000  Uiso   1.00
H757   H     0.69154   0.59946   0.42935   0.00000  Uiso   1.00
H758   H     0.69714   0.55204   0.39257   0.00000  Uiso   1.00
H759   H     0.99580   0.60061   0.36720   0.00000  Uiso   1.00
H760   H     0.90795   0.78006   0.04184   0.00000  Uiso   1.00
H761   H     0.80617   0.68183   0.46362   0.00000  Uiso   1.00
H762   H     0.72549   0.63554   0.26891   0.00000  Uiso   1.00
N763   N     0.83333   0.74999   0.12624   0.00000  Uiso   1.00
N764   N     0.83333   0.75001   0.37377   0.00000  Uiso   1.00
O765   O     0.83334   0.68453   0.28974   0.00000  Uiso   1.00
O766   O     0.85979   0.82839   0.47313   0.00000  Uiso   1.00
O767   O     0.75068   0.71015   0.11646   0.00000  Uiso   1.00
O768   O     0.87398   0.82262   0.37821   0.00000  Uiso   1.00
O769   O     0.91771   0.78695   0.13843   0.00000  Uiso   1.00
O770   O     0.79834   0.67566   0.36931   0.00000  Uiso   1.00
O771   O     0.83333   0.81546   0.21026   0.00000  Uiso   1.00
O772   O     0.83334   0.68453   0.21026   0.00000  Uiso   1.00
O773   O     0.83333   0.81547   0.28974   0.00000  Uiso   1.00
O774   O     0.75725   0.75000   0.28045   0.00000  Uiso   1.00
O775   O     0.90942   0.75000   0.21956   0.00000  Uiso   1.00
O776   O     0.75725   0.74999   0.20097   0.00000  Uiso   1.00
O777   O     0.90942   0.75000   0.29904   0.00000  Uiso   1.00
O778   O     0.74309   0.71511   0.01825   0.00000  Uiso   1.00
Zn779  Zn    0.83333   0.75000   0.30307   0.00000  Uiso   1.00
Zn780  Zn    0.83333   0.74999   0.19693   0.00000  Uiso   1.00
C781   C     0.16595   0.16430   0.75041   0.00000  Uiso   1.00
C782   C     0.14982   0.21241   0.94597   0.00000  Uiso   1.00
C783   C     0.16416   0.25056   0.52612   0.00000  Uiso   1.00
C784   C     0.16488   0.25063   0.97307   0.00000  Uiso   1.00
C785   C     0.06700   0.24900   0.73751   0.00000  Uiso   1.00
C786   C     0.26633   0.24972   0.76260   0.00000  Uiso   1.00
C787   C     0.01175   0.24636   0.73117   0.00000  Uiso   1.00
C788   C     0.32158   0.24977   0.76937   0.00000  Uiso   1.00
C789   C     0.11453   0.04735   0.74513   0.00000  Uiso   1.00
C790   C     0.20032   0.45597   0.73306   0.00000  Uiso   1.00
C791   C     0.11529   0.09371   0.74416   0.00000  Uiso   1.00
C792   C     0.16550   0.33594   0.74952   0.00000  Uiso   1.00
C793   C     0.20174   0.40992   0.73096   0.00000  Uiso   1.00
C794   C     0.16450   0.11670   0.75206   0.00000  Uiso   1.00
C795   C     0.16257   0.38391   0.74884   0.00000  Uiso   1.00
C796   C     0.21221   0.09421   0.76416   0.00000  Uiso   1.00
C797   C     0.12143   0.40410   0.76759   0.00000  Uiso   1.00
C798   C     0.21029   0.04797   0.76722   0.00000  Uiso   1.00
C799   C     0.12194   0.45040   0.77083   0.00000  Uiso   1.00
C800   C     0.16188   0.02456   0.75628   0.00000  Uiso   1.00
C801   C     0.16148   0.47617   0.75390   0.00000  Uiso   1.00
C802   C     0.06383   0.11807   0.73605   0.00000  Uiso   1.00
C803   C     0.12123   0.23275   0.54645   0.00000  Uiso   1.00
C804   C     0.24440   0.38932   0.70878   0.00000  Uiso   1.00
C805   C     0.26488   0.11903   0.77353   0.00000  Uiso   1.00
C806   C     0.07618   0.37706   0.78267   0.00000  Uiso   1.00
C807   C     0.04504   0.24995   0.99569   0.00000  Uiso   1.00
C808   C     0.32006   0.23491   0.98773   0.00000  Uiso   1.00
C809   C     0.30786   0.19901   0.94997   0.00000  Uiso   1.00
C810   C     0.14700   0.35377   0.96879   0.00000  Uiso   1.00
C811   C     0.15796   0.39416   0.50121   0.00000  Uiso   1.00
C812   C     0.10930   0.42294   0.99806   0.00000  Uiso   1.00
C813   C     0.08280   0.16327   0.60984   0.00000  Uiso   1.00
C814   C     0.18075   0.28891   0.94893   0.00000  Uiso   1.00
C815   C     0.02557   0.14577   0.60505   0.00000  Uiso   1.00
C816   C     0.02233   0.09480   0.60360   0.00000  Uiso   1.00
C817   C     0.26266   0.32353   0.89303   0.00000  Uiso   1.00
C818   C     0.28779   0.36209   0.86802   0.00000  Uiso   1.00
C819   C     0.01338   0.36725   0.88756   0.00000  Uiso   1.00
C820   C     0.28079   0.32142   0.61908   0.00000  Uiso   1.00
C821   C     0.33270   0.30395   0.60736   0.00000  Uiso   1.00
C822   C     0.03134   0.34113   0.58678   0.00000  Uiso   1.00
C823   C     0.08069   0.15956   0.87564   0.00000  Uiso   1.00
C824   C     0.08168   0.10861   0.88073   0.00000  Uiso   1.00
C825   C     0.12498   0.23003   0.59685   0.00000  Uiso   1.00
C826   C     0.02988   0.08912   0.89316   0.00000  Uiso   1.00
C827   C     0.18555   0.28669   0.90004   0.00000  Uiso   1.00
C828   C     0.20793   0.26966   0.60716   0.00000  Uiso   1.00
C829   C     0.14739   0.21341   0.89582   0.00000  Uiso   1.00
C830   C     0.20758   0.26810   0.55715   0.00000  Uiso   1.00
H831   H     0.32390   0.24144   0.69539   0.00000  Uiso   1.00
H832   H     0.06379   0.14338   0.70734   0.00000  Uiso   1.00
H833   H     0.02939   0.09488   0.72608   0.00000  Uiso   1.00
H834   H     0.22523   0.37331   0.67545   0.00000  Uiso   1.00
H835   H     0.27399   0.41457   0.69976   0.00000  Uiso   1.00
H836   H     0.26562   0.36414   0.73330   0.00000  Uiso   1.00
H837   H     0.26588   0.14187   0.80395   0.00000  Uiso   1.00
H838   H     0.29812   0.09576   0.78214   0.00000  Uiso   1.00
H839   H     0.27108   0.13894   0.74152   0.00000  Uiso   1.00
H840   H     0.05871   0.35410   0.75379   0.00000  Uiso   1.00
H841   H     0.09040   0.35732   0.81531   0.00000  Uiso   1.00
H842   H     0.00936   0.25377   0.80542   0.00000  Uiso   1.00
H843   H     0.04418   0.39882   0.79004   0.00000  Uiso   1.00
H844   H     0.05705   0.25872   0.96084   0.00000  Uiso   1.00
H845   H     0.04851   0.28087   0.51715   0.00000  Uiso   1.00
H846   H     0.30899   0.22186   0.52157   0.00000  Uiso   1.00
H847   H     0.29531   0.26414   0.97641   0.00000  Uiso   1.00
H848   H     0.31704   0.21185   0.91532   0.00000  Uiso   1.00
H849   H     0.26520   0.18943   0.94542   0.00000  Uiso   1.00
H850   H     0.33120   0.16890   0.96111   0.00000  Uiso   1.00
H851   H     0.11339   0.33383   0.97970   0.00000  Uiso   1.00
H852   H     0.13571   0.36570   0.93135   0.00000  Uiso   1.00
H853   H     0.07718   0.02908   0.73671   0.00000  Uiso   1.00
H854   H     0.16962   0.38245   0.53858   0.00000  Uiso   1.00
H855   H     0.19118   0.41472   0.99080   0.00000  Uiso   1.00
H856   H     0.09741   0.43560   0.96111   0.00000  Uiso   1.00
H857   H     0.11851   0.45194   0.52202   0.00000  Uiso   1.00
H858   H     0.07587   0.40321   0.50915   0.00000  Uiso   1.00
H859   H     0.10682   0.14725   0.64113   0.00000  Uiso   1.00
H860   H     0.09910   0.15262   0.57792   0.00000  Uiso   1.00
H861   H     0.00726   0.15736   0.63531   0.00000  Uiso   1.00
H862   H     0.00261   0.15934   0.57175   0.00000  Uiso   1.00
H863   H     0.03859   0.08272   0.57241   0.00000  Uiso   1.00
H864   H     0.22941   0.47624   0.71801   0.00000  Uiso   1.00
H865   H     0.31371   0.08324   0.60056   0.00000  Uiso   1.00
H866   H     0.04486   0.08022   0.63660   0.00000  Uiso   1.00
H867   H     0.28012   0.29166   0.88417   0.00000  Uiso   1.00
H868   H     0.27250   0.32909   0.93197   0.00000  Uiso   1.00
H869   H     0.28243   0.35585   0.82917   0.00000  Uiso   1.00
H870   H     0.26802   0.39366   0.87373   0.00000  Uiso   1.00
H871   H     0.01955   0.37211   0.92663   0.00000  Uiso   1.00
H872   H     0.03030   0.39699   0.87105   0.00000  Uiso   1.00
H873   H     0.03454   0.33707   0.87971   0.00000  Uiso   1.00
H874   H     0.29266   0.34641   0.64711   0.00000  Uiso   1.00
H875   H     0.24666   0.03008   0.77726   0.00000  Uiso   1.00
H876   H     0.25791   0.34013   0.58879   0.00000  Uiso   1.00
H877   H     0.02336   0.29117   0.64038   0.00000  Uiso   1.00
H878   H     0.32515   0.27597   0.58214   0.00000  Uiso   1.00
H879   H     0.01026   0.35225   0.55155   0.00000  Uiso   1.00
H880   H     0.07068   0.32872   0.58249   0.00000  Uiso   1.00
H881   H     0.03771   0.37009   0.61108   0.00000  Uiso   1.00
H882   H     0.05207   0.16880   0.84363   0.00000  Uiso   1.00
H883   H     0.06560   0.17356   0.90661   0.00000  Uiso   1.00
H884   H     0.08906   0.09401   0.84690   0.00000  Uiso   1.00
H885   H     0.11450   0.09912   0.90929   0.00000  Uiso   1.00
H886   H     0.09172   0.46633   0.78672   0.00000  Uiso   1.00
H887   H     0.02487   0.09946   0.92935   0.00000  Uiso   1.00
H888   H     0.03047   0.05204   0.89257   0.00000  Uiso   1.00
H889   H     0.32914   0.10061   0.86720   0.00000  Uiso   1.00
H890   H     0.24128   0.28006   0.54184   0.00000  Uiso   1.00
H891   H     0.13951   0.18183   0.96362   0.00000  Uiso   1.00
H892   H     0.05882   0.13554   0.76891   0.00000  Uiso   1.00
N893   N     0.16667   0.24999   0.62624   0.00000  Uiso   1.00
N894   N     0.16667   0.25001   0.87377   0.00000  Uiso   1.00
O895   O     0.16667   0.18453   0.78974   0.00000  Uiso   1.00
O896   O     0.19313   0.32839   0.97313   0.00000  Uiso   1.00
O897   O     0.08402   0.21015   0.61646   0.00000  Uiso   1.00
O898   O     0.20732   0.32262   0.87821   0.00000  Uiso   1.00
O899   O     0.25104   0.28695   0.63843   0.00000  Uiso   1.00
O900   O     0.13167   0.17566   0.86931   0.00000  Uiso   1.00
O901   O     0.16666   0.31546   0.71026   0.00000  Uiso   1.00
O902   O     0.16667   0.18453   0.71026   0.00000  Uiso   1.00
O903   O     0.16666   0.31547   0.78974   0.00000  Uiso   1.00
O904   O     0.09058   0.25000   0.78045   0.00000  Uiso   1.00
O905   O     0.24275   0.25000   0.71956   0.00000  Uiso   1.00
O906   O     0.09058   0.24999   0.70097   0.00000  Uiso   1.00
O907   O     0.24275   0.25000   0.79904   0.00000  Uiso   1.00
O908   O     0.07642   0.21511   0.51825   0.00000  Uiso   1.00
Zn909  Zn    0.16667   0.25000   0.80307   0.00000  Uiso   1.00
Zn910  Zn    0.16667   0.24999   0.69693   0.00000  Uiso   1.00
C911   C     0.49928   0.16430   0.75041   0.00000  Uiso   1.00
C912   C     0.48315   0.21241   0.94597   0.00000  Uiso   1.00
C913   C     0.49749   0.25056   0.52612   0.00000  Uiso   1.00
C914   C     0.49821   0.25063   0.97307   0.00000  Uiso   1.00
C915   C     0.40033   0.24900   0.73751   0.00000  Uiso   1.00
C916   C     0.59966   0.24972   0.76260   0.00000  Uiso   1.00
C917   C     0.34508   0.24636   0.73117   0.00000  Uiso   1.00
C918   C     0.65491   0.24977   0.76937   0.00000  Uiso   1.00
C919   C     0.44786   0.04735   0.74513   0.00000  Uiso   1.00
C920   C     0.53366   0.45597   0.73306   0.00000  Uiso   1.00
C921   C     0.44862   0.09371   0.74416   0.00000  Uiso   1.00
C922   C     0.49883   0.33594   0.74952   0.00000  Uiso   1.00
C923   C     0.53508   0.40992   0.73096   0.00000  Uiso   1.00
C924   C     0.49783   0.11670   0.75206   0.00000  Uiso   1.00
C925   C     0.49590   0.38391   0.74884   0.00000  Uiso   1.00
C926   C     0.54554   0.09421   0.76416   0.00000  Uiso   1.00
C927   C     0.45476   0.40410   0.76759   0.00000  Uiso   1.00
C928   C     0.54363   0.04797   0.76722   0.00000  Uiso   1.00
C929   C     0.45527   0.45040   0.77083   0.00000  Uiso   1.00
C930   C     0.49522   0.02456   0.75628   0.00000  Uiso   1.00
C931   C     0.49481   0.47617   0.75390   0.00000  Uiso   1.00
C932   C     0.39716   0.11807   0.73605   0.00000  Uiso   1.00
C933   C     0.45456   0.23275   0.54645   0.00000  Uiso   1.00
C934   C     0.57773   0.38932   0.70878   0.00000  Uiso   1.00
C935   C     0.59822   0.11903   0.77353   0.00000  Uiso   1.00
C936   C     0.40951   0.37706   0.78267   0.00000  Uiso   1.00
C937   C     0.37837   0.24995   0.99569   0.00000  Uiso   1.00
C938   C     0.65339   0.23491   0.98773   0.00000  Uiso   1.00
C939   C     0.64119   0.19901   0.94997   0.00000  Uiso   1.00
C940   C     0.48033   0.35377   0.96879   0.00000  Uiso   1.00
C941   C     0.49129   0.39416   0.50121   0.00000  Uiso   1.00
C942   C     0.44263   0.42294   0.99806   0.00000  Uiso   1.00
C943   C     0.41613   0.16327   0.60984   0.00000  Uiso   1.00
C944   C     0.51408   0.28891   0.94893   0.00000  Uiso   1.00
C945   C     0.35890   0.14577   0.60505   0.00000  Uiso   1.00
C946   C     0.35566   0.09480   0.60360   0.00000  Uiso   1.00
C947   C     0.59599   0.32353   0.89303   0.00000  Uiso   1.00
C948   C     0.62113   0.36209   0.86802   0.00000  Uiso   1.00
C949   C     0.34671   0.36725   0.88756   0.00000  Uiso   1.00
C950   C     0.61412   0.32142   0.61908   0.00000  Uiso   1.00
C951   C     0.66603   0.30395   0.60736   0.00000  Uiso   1.00
C952   C     0.36467   0.34113   0.58678   0.00000  Uiso   1.00
C953   C     0.41402   0.15956   0.87564   0.00000  Uiso   1.00
C954   C     0.41501   0.10861   0.88073   0.00000  Uiso   1.00
C955   C     0.45831   0.23003   0.59685   0.00000  Uiso   1.00
C956   C     0.36321   0.08912   0.89316   0.00000  Uiso   1.00
C957   C     0.51888   0.28669   0.90004   0.00000  Uiso   1.00
C958   C     0.54127   0.26966   0.60716   0.00000  Uiso   1.00
C959   C     0.48072   0.21341   0.89582   0.00000  Uiso   1.00
C960   C     0.54091   0.26810   0.55715   0.00000  Uiso   1.00
H961   H     0.65723   0.24144   0.69539   0.00000  Uiso   1.00
H962   H     0.39713   0.14338   0.70734   0.00000  Uiso   1.00
H963   H     0.36273   0.09488   0.72608   0.00000  Uiso   1.00
H964   H     0.55857   0.37331   0.67545   0.00000  Uiso   1.00
H965   H     0.60732   0.41457   0.69976   0.00000  Uiso   1.00
H966   H     0.59895   0.36414   0.73330   0.00000  Uiso   1.00
H967   H     0.59922   0.14187   0.80395   0.00000  Uiso   1.00
H968   H     0.63145   0.09576   0.78214   0.00000  Uiso   1.00
H969   H     0.60441   0.13894   0.74152   0.00000  Uiso   1.00
H970   H     0.39204   0.35410   0.75379   0.00000  Uiso   1.00
H971   H     0.42373   0.35732   0.81531   0.00000  Uiso   1.00
H972   H     0.34269   0.25377   0.80542   0.00000  Uiso   1.00
H973   H     0.37751   0.39882   0.79004   0.00000  Uiso   1.00
H974   H     0.39038   0.25872   0.96084   0.00000  Uiso   1.00
H975   H     0.38185   0.28087   0.51715   0.00000  Uiso   1.00
H976   H     0.64232   0.22186   0.52157   0.00000  Uiso   1.00
H977   H     0.62864   0.26414   0.97641   0.00000  Uiso   1.00
H978   H     0.65037   0.21185   0.91532   0.00000  Uiso   1.00
H979   H     0.59853   0.18943   0.94542   0.00000  Uiso   1.00
H980   H     0.66453   0.16890   0.96111   0.00000  Uiso   1.00
H981   H     0.44672   0.33383   0.97970   0.00000  Uiso   1.00
H982   H     0.46904   0.36570   0.93135   0.00000  Uiso   1.00
H983   H     0.41051   0.02908   0.73671   0.00000  Uiso   1.00
H984   H     0.50296   0.38245   0.53858   0.00000  Uiso   1.00
H985   H     0.52451   0.41472   0.99080   0.00000  Uiso   1.00
H986   H     0.43074   0.43560   0.96111   0.00000  Uiso   1.00
H987   H     0.45184   0.45194   0.52202   0.00000  Uiso   1.00
H988   H     0.40921   0.40321   0.50915   0.00000  Uiso   1.00
H989   H     0.44016   0.14725   0.64113   0.00000  Uiso   1.00
H990   H     0.43244   0.15262   0.57792   0.00000  Uiso   1.00
H991   H     0.34060   0.15736   0.63531   0.00000  Uiso   1.00
H992   H     0.33594   0.15934   0.57175   0.00000  Uiso   1.00
H993   H     0.37192   0.08272   0.57241   0.00000  Uiso   1.00
H994   H     0.56274   0.47624   0.71801   0.00000  Uiso   1.00
H995   H     0.64705   0.08324   0.60056   0.00000  Uiso   1.00
H996   H     0.37819   0.08022   0.63660   0.00000  Uiso   1.00
H997   H     0.61346   0.29166   0.88417   0.00000  Uiso   1.00
H998   H     0.60583   0.32909   0.93197   0.00000  Uiso   1.00
H999   H     0.61576   0.35585   0.82917   0.00000  Uiso   1.00
H1000  H     0.60135   0.39366   0.87373   0.00000  Uiso   1.00
H1001  H     0.35289   0.37211   0.92663   0.00000  Uiso   1.00
H1002  H     0.36364   0.39699   0.87105   0.00000  Uiso   1.00
H1003  H     0.36788   0.33707   0.87971   0.00000  Uiso   1.00
H1004  H     0.62600   0.34641   0.64711   0.00000  Uiso   1.00
H1005  H     0.57999   0.03008   0.77726   0.00000  Uiso   1.00
H1006  H     0.59124   0.34013   0.58879   0.00000  Uiso   1.00
H1007  H     0.35669   0.29117   0.64038   0.00000  Uiso   1.00
H1008  H     0.65848   0.27597   0.58214   0.00000  Uiso   1.00
H1009  H     0.34360   0.35225   0.55155   0.00000  Uiso   1.00
H1010  H     0.40402   0.32872   0.58249   0.00000  Uiso   1.00
H1011  H     0.37104   0.37009   0.61108   0.00000  Uiso   1.00
H1012  H     0.38540   0.16880   0.84363   0.00000  Uiso   1.00
H1013  H     0.39893   0.17356   0.90661   0.00000  Uiso   1.00
H1014  H     0.42239   0.09401   0.84690   0.00000  Uiso   1.00
H1015  H     0.44783   0.09912   0.90929   0.00000  Uiso   1.00
H1016  H     0.42506   0.46633   0.78672   0.00000  Uiso   1.00
H1017  H     0.35821   0.09946   0.92935   0.00000  Uiso   1.00
H1018  H     0.36381   0.05204   0.89257   0.00000  Uiso   1.00
H1019  H     0.66247   0.10061   0.86720   0.00000  Uiso   1.00
H1020  H     0.57462   0.28006   0.54184   0.00000  Uiso   1.00
H1021  H     0.47284   0.18183   0.96362   0.00000  Uiso   1.00
H1022  H     0.39216   0.13554   0.76891   0.00000  Uiso   1.00
N1023  N     0.50000   0.24999   0.62624   0.00000  Uiso   1.00
N1024  N     0.50000   0.25001   0.87377   0.00000  Uiso   1.00
O1025  O     0.50000   0.18453   0.78974   0.00000  Uiso   1.00
O1026  O     0.52646   0.32839   0.97313   0.00000  Uiso   1.00
O1027  O     0.41735   0.21015   0.61646   0.00000  Uiso   1.00
O1028  O     0.54065   0.32262   0.87821   0.00000  Uiso   1.00
O1029  O     0.58437   0.28695   0.63843   0.00000  Uiso   1.00
O1030  O     0.46501   0.17566   0.86931   0.00000  Uiso   1.00
O1031  O     0.50000   0.31546   0.71026   0.00000  Uiso   1.00
O1032  O     0.50000   0.18453   0.71026   0.00000  Uiso   1.00
O1033  O     0.50000   0.31547   0.78974   0.00000  Uiso   1.00
O1034  O     0.42392   0.25000   0.78045   0.00000  Uiso   1.00
O1035  O     0.57608   0.25000   0.71956   0.00000  Uiso   1.00
O1036  O     0.42392   0.24999   0.70097   0.00000  Uiso   1.00
O1037  O     0.57608   0.25000   0.79904   0.00000  Uiso   1.00
O1038  O     0.40975   0.21511   0.51825   0.00000  Uiso   1.00
Zn1039 Zn    0.50000   0.25000   0.80307   0.00000  Uiso   1.00
Zn1040 Zn    0.50000   0.24999   0.69693   0.00000  Uiso   1.00
C1041  C     0.83261   0.16430   0.75041   0.00000  Uiso   1.00
C1042  C     0.81649   0.21241   0.94597   0.00000  Uiso   1.00
C1043  C     0.83083   0.25056   0.52612   0.00000  Uiso   1.00
C1044  C     0.83154   0.25063   0.97307   0.00000  Uiso   1.00
C1045  C     0.73366   0.24900   0.73751   0.00000  Uiso   1.00
C1046  C     0.93299   0.24972   0.76260   0.00000  Uiso   1.00
C1047  C     0.67842   0.24636   0.73117   0.00000  Uiso   1.00
C1048  C     0.98825   0.24977   0.76937   0.00000  Uiso   1.00
C1049  C     0.78120   0.04735   0.74513   0.00000  Uiso   1.00
C1050  C     0.86699   0.45597   0.73306   0.00000  Uiso   1.00
C1051  C     0.78195   0.09371   0.74416   0.00000  Uiso   1.00
C1052  C     0.83216   0.33594   0.74952   0.00000  Uiso   1.00
C1053  C     0.86841   0.40992   0.73096   0.00000  Uiso   1.00
C1054  C     0.83117   0.11670   0.75206   0.00000  Uiso   1.00
C1055  C     0.82924   0.38391   0.74884   0.00000  Uiso   1.00
C1056  C     0.87888   0.09421   0.76416   0.00000  Uiso   1.00
C1057  C     0.78809   0.40410   0.76759   0.00000  Uiso   1.00
C1058  C     0.87696   0.04797   0.76722   0.00000  Uiso   1.00
C1059  C     0.78861   0.45040   0.77083   0.00000  Uiso   1.00
C1060  C     0.82855   0.02456   0.75628   0.00000  Uiso   1.00
C1061  C     0.82814   0.47617   0.75390   0.00000  Uiso   1.00
C1062  C     0.73050   0.11807   0.73605   0.00000  Uiso   1.00
C1063  C     0.78789   0.23275   0.54645   0.00000  Uiso   1.00
C1064  C     0.91107   0.38932   0.70878   0.00000  Uiso   1.00
C1065  C     0.93155   0.11903   0.77353   0.00000  Uiso   1.00
C1066  C     0.74284   0.37706   0.78267   0.00000  Uiso   1.00
C1067  C     0.71171   0.24995   0.99569   0.00000  Uiso   1.00
C1068  C     0.98672   0.23491   0.98773   0.00000  Uiso   1.00
C1069  C     0.97452   0.19901   0.94997   0.00000  Uiso   1.00
C1070  C     0.81367   0.35377   0.96879   0.00000  Uiso   1.00
C1071  C     0.82462   0.39416   0.50121   0.00000  Uiso   1.00
C1072  C     0.77597   0.42294   0.99806   0.00000  Uiso   1.00
C1073  C     0.74946   0.16327   0.60984   0.00000  Uiso   1.00
C1074  C     0.84741   0.28891   0.94893   0.00000  Uiso   1.00
C1075  C     0.69223   0.14577   0.60505   0.00000  Uiso   1.00
C1076  C     0.68899   0.09480   0.60360   0.00000  Uiso   1.00
C1077  C     0.92933   0.32353   0.89303   0.00000  Uiso   1.00
C1078  C     0.95446   0.36209   0.86802   0.00000  Uiso   1.00
C1079  C     0.68005   0.36725   0.88756   0.00000  Uiso   1.00
C1080  C     0.94745   0.32142   0.61908   0.00000  Uiso   1.00
C1081  C     0.99937   0.30395   0.60736   0.00000  Uiso   1.00
C1082  C     0.69800   0.34113   0.58678   0.00000  Uiso   1.00
C1083  C     0.74735   0.15956   0.87564   0.00000  Uiso   1.00
C1084  C     0.74835   0.10861   0.88073   0.00000  Uiso   1.00
C1085  C     0.79164   0.23003   0.59685   0.00000  Uiso   1.00
C1086  C     0.69655   0.08912   0.89316   0.00000  Uiso   1.00
C1087  C     0.85222   0.28669   0.90004   0.00000  Uiso   1.00
C1088  C     0.87460   0.26966   0.60716   0.00000  Uiso   1.00
C1089  C     0.81406   0.21341   0.89582   0.00000  Uiso   1.00
C1090  C     0.87424   0.26810   0.55715   0.00000  Uiso   1.00
H1091  H     0.99057   0.24144   0.69539   0.00000  Uiso   1.00
H1092  H     0.73046   0.14338   0.70734   0.00000  Uiso   1.00
H1093  H     0.69606   0.09488   0.72608   0.00000  Uiso   1.00
H1094  H     0.89190   0.37331   0.67545   0.00000  Uiso   1.00
H1095  H     0.94065   0.41457   0.69976   0.00000  Uiso   1.00
H1096  H     0.93228   0.36414   0.73330   0.00000  Uiso   1.00
H1097  H     0.93255   0.14187   0.80395   0.00000  Uiso   1.00
H1098  H     0.96479   0.09576   0.78214   0.00000  Uiso   1.00
H1099  H     0.93774   0.13894   0.74152   0.00000  Uiso   1.00
H1100  H     0.72537   0.35410   0.75379   0.00000  Uiso   1.00
H1101  H     0.75706   0.35732   0.81531   0.00000  Uiso   1.00
H1102  H     0.67603   0.25377   0.80542   0.00000  Uiso   1.00
H1103  H     0.71084   0.39882   0.79004   0.00000  Uiso   1.00
H1104  H     0.72371   0.25872   0.96084   0.00000  Uiso   1.00
H1105  H     0.71518   0.28087   0.51715   0.00000  Uiso   1.00
H1106  H     0.97565   0.22186   0.52157   0.00000  Uiso   1.00
H1107  H     0.96197   0.26414   0.97641   0.00000  Uiso   1.00
H1108  H     0.98370   0.21185   0.91532   0.00000  Uiso   1.00
H1109  H     0.93187   0.18943   0.94542   0.00000  Uiso   1.00
H1110  H     0.99786   0.16890   0.96111   0.00000  Uiso   1.00
H1111  H     0.78006   0.33383   0.97970   0.00000  Uiso   1.00
H1112  H     0.80237   0.36570   0.93135   0.00000  Uiso   1.00
H1113  H     0.74384   0.02908   0.73671   0.00000  Uiso   1.00
H1114  H     0.83629   0.38245   0.53858   0.00000  Uiso   1.00
H1115  H     0.85784   0.41472   0.99080   0.00000  Uiso   1.00
H1116  H     0.76408   0.43560   0.96111   0.00000  Uiso   1.00
H1117  H     0.78517   0.45194   0.52202   0.00000  Uiso   1.00
H1118  H     0.74254   0.40321   0.50915   0.00000  Uiso   1.00
H1119  H     0.77349   0.14725   0.64113   0.00000  Uiso   1.00
H1120  H     0.76577   0.15262   0.57792   0.00000  Uiso   1.00
H1121  H     0.67393   0.15736   0.63531   0.00000  Uiso   1.00
H1122  H     0.66928   0.15934   0.57175   0.00000  Uiso   1.00
H1123  H     0.70525   0.08272   0.57241   0.00000  Uiso   1.00
H1124  H     0.89608   0.47624   0.71801   0.00000  Uiso   1.00
H1125  H     0.98038   0.08324   0.60056   0.00000  Uiso   1.00
H1126  H     0.71153   0.08022   0.63660   0.00000  Uiso   1.00
H1127  H     0.94679   0.29166   0.88417   0.00000  Uiso   1.00
H1128  H     0.93917   0.32909   0.93197   0.00000  Uiso   1.00
H1129  H     0.94909   0.35585   0.82917   0.00000  Uiso   1.00
H1130  H     0.93469   0.39366   0.87373   0.00000  Uiso   1.00
H1131  H     0.68622   0.37211   0.92663   0.00000  Uiso   1.00
H1132  H     0.69697   0.39699   0.87105   0.00000  Uiso   1.00
H1133  H     0.70121   0.33707   0.87971   0.00000  Uiso   1.00
H1134  H     0.95933   0.34641   0.64711   0.00000  Uiso   1.00
H1135  H     0.91333   0.03008   0.77726   0.00000  Uiso   1.00
H1136  H     0.92457   0.34013   0.58879   0.00000  Uiso   1.00
H1137  H     0.69002   0.29117   0.64038   0.00000  Uiso   1.00
H1138  H     0.99181   0.27597   0.58214   0.00000  Uiso   1.00
H1139  H     0.67693   0.35225   0.55155   0.00000  Uiso   1.00
H1140  H     0.73735   0.32872   0.58249   0.00000  Uiso   1.00
H1141  H     0.70437   0.37009   0.61108   0.00000  Uiso   1.00
H1142  H     0.71873   0.16880   0.84363   0.00000  Uiso   1.00
H1143  H     0.73227   0.17356   0.90661   0.00000  Uiso   1.00
H1144  H     0.75572   0.09401   0.84690   0.00000  Uiso   1.00
H1145  H     0.78116   0.09912   0.90929   0.00000  Uiso   1.00
H1146  H     0.75839   0.46633   0.78672   0.00000  Uiso   1.00
H1147  H     0.69154   0.09946   0.92935   0.00000  Uiso   1.00
H1148  H     0.69714   0.05204   0.89257   0.00000  Uiso   1.00
H1149  H     0.99580   0.10061   0.86720   0.00000  Uiso   1.00
H1150  H     0.90795   0.28006   0.54184   0.00000  Uiso   1.00
H1151  H     0.80617   0.18183   0.96362   0.00000  Uiso   1.00
H1152  H     0.72549   0.13554   0.76891   0.00000  Uiso   1.00
N1153  N     0.83333   0.24999   0.62624   0.00000  Uiso   1.00
N1154  N     0.83333   0.25001   0.87377   0.00000  Uiso   1.00
O1155  O     0.83334   0.18453   0.78974   0.00000  Uiso   1.00
O1156  O     0.85979   0.32839   0.97313   0.00000  Uiso   1.00
O1157  O     0.75068   0.21015   0.61646   0.00000  Uiso   1.00
O1158  O     0.87398   0.32262   0.87821   0.00000  Uiso   1.00
O1159  O     0.91771   0.28695   0.63843   0.00000  Uiso   1.00
O1160  O     0.79834   0.17566   0.86931   0.00000  Uiso   1.00
O1161  O     0.83333   0.31546   0.71026   0.00000  Uiso   1.00
O1162  O     0.83334   0.18453   0.71026   0.00000  Uiso   1.00
O1163  O     0.83333   0.31547   0.78974   0.00000  Uiso   1.00
O1164  O     0.75725   0.25000   0.78045   0.00000  Uiso   1.00
O1165  O     0.90942   0.25000   0.71956   0.00000  Uiso   1.00
O1166  O     0.75725   0.24999   0.70097   0.00000  Uiso   1.00
O1167  O     0.90942   0.25000   0.79904   0.00000  Uiso   1.00
O1168  O     0.74309   0.21511   0.51825   0.00000  Uiso   1.00
Zn1169 Zn    0.83333   0.25000   0.80307   0.00000  Uiso   1.00
Zn1170 Zn    0.83333   0.24999   0.69693   0.00000  Uiso   1.00
C1171  C     0.16595   0.66430   0.75041   0.00000  Uiso   1.00
C1172  C     0.14982   0.71241   0.94597   0.00000  Uiso   1.00
C1173  C     0.16416   0.75056   0.52612   0.00000  Uiso   1.00
C1174  C     0.16488   0.75063   0.97307   0.00000  Uiso   1.00
C1175  C     0.06700   0.74900   0.73751   0.00000  Uiso   1.00
C1176  C     0.26633   0.74972   0.76260   0.00000  Uiso   1.00
C1177  C     0.01175   0.74636   0.73117   0.00000  Uiso   1.00
C1178  C     0.32158   0.74977   0.76937   0.00000  Uiso   1.00
C1179  C     0.11453   0.54735   0.74513   0.00000  Uiso   1.00
C1180  C     0.20032   0.95597   0.73306   0.00000  Uiso   1.00
C1181  C     0.11529   0.59371   0.74416   0.00000  Uiso   1.00
C1182  C     0.16550   0.83594   0.74952   0.00000  Uiso   1.00
C1183  C     0.20174   0.90992   0.73096   0.00000  Uiso   1.00
C1184  C     0.16450   0.61670   0.75206   0.00000  Uiso   1.00
C1185  C     0.16257   0.88391   0.74884   0.00000  Uiso   1.00
C1186  C     0.21221   0.59421   0.76416   0.00000  Uiso   1.00
C1187  C     0.12143   0.90410   0.76759   0.00000  Uiso   1.00
C1188  C     0.21029   0.54797   0.76722   0.00000  Uiso   1.00
C1189  C     0.12194   0.95040   0.77083   0.00000  Uiso   1.00
C1190  C     0.16188   0.52456   0.75628   0.00000  Uiso   1.00
C1191  C     0.16148   0.97617   0.75390   0.00000  Uiso   1.00
C1192  C     0.06383   0.61807   0.73605   0.00000  Uiso   1.00
C1193  C     0.12123   0.73275   0.54645   0.00000  Uiso   1.00
C1194  C     0.24440   0.88932   0.70878   0.00000  Uiso   1.00
C1195  C     0.26488   0.61903   0.77353   0.00000  Uiso   1.00
C1196  C     0.07618   0.87706   0.78267   0.00000  Uiso   1.00
C1197  C     0.04504   0.74995   0.99569   0.00000  Uiso   1.00
C1198  C     0.32006   0.73491   0.98773   0.00000  Uiso   1.00
C1199  C     0.30786   0.69901   0.94997   0.00000  Uiso   1.00
C1200  C     0.14700   0.85377   0.96879   0.00000  Uiso   1.00
C1201  C     0.15796   0.89416   0.50121   0.00000  Uiso   1.00
C1202  C     0.10930   0.92294   0.99806   0.00000  Uiso   1.00
C1203  C     0.08280   0.66327   0.60984   0.00000  Uiso   1.00
C1204  C     0.18075   0.78891   0.94893   0.00000  Uiso   1.00
C1205  C     0.02557   0.64577   0.60505   0.00000  Uiso   1.00
C1206  C     0.02233   0.59480   0.60360   0.00000  Uiso   1.00
C1207  C     0.26266   0.82353   0.89303   0.00000  Uiso   1.00
C1208  C     0.28779   0.86209   0.86802   0.00000  Uiso   1.00
C1209  C     0.01338   0.86725   0.88756   0.00000  Uiso   1.00
C1210  C     0.28079   0.82142   0.61908   0.00000  Uiso   1.00
C1211  C     0.33270   0.80395   0.60736   0.00000  Uiso   1.00
C1212  C     0.03134   0.84113   0.58678   0.00000  Uiso   1.00
C1213  C     0.08069   0.65956   0.87564   0.00000  Uiso   1.00
C1214  C     0.08168   0.60861   0.88073   0.00000  Uiso   1.00
C1215  C     0.12498   0.73003   0.59685   0.00000  Uiso   1.00
C1216  C     0.02988   0.58912   0.89316   0.00000  Uiso   1.00
C1217  C     0.18555   0.78669   0.90004   0.00000  Uiso   1.00
C1218  C     0.20793   0.76966   0.60716   0.00000  Uiso   1.00
C1219  C     0.14739   0.71341   0.89582   0.00000  Uiso   1.00
C1220  C     0.20758   0.76810   0.55715   0.00000  Uiso   1.00
H1221  H     0.32390   0.74144   0.69539   0.00000  Uiso   1.00
H1222  H     0.06379   0.64338   0.70734   0.00000  Uiso   1.00
H1223  H     0.02939   0.59488   0.72608   0.00000  Uiso   1.00
H1224  H     0.22523   0.87331   0.67545   0.00000  Uiso   1.00
H1225  H     0.27399   0.91457   0.69976   0.00000  Uiso   1.00
H1226  H     0.26562   0.86414   0.73330   0.00000  Uiso   1.00
H1227  H     0.26588   0.64187   0.80395   0.00000  Uiso   1.00
H1228  H     0.29812   0.59576   0.78214   0.00000  Uiso   1.00
H1229  H     0.27108   0.63894   0.74152   0.00000  Uiso   1.00
H1230  H     0.05871   0.85410   0.75379   0.00000  Uiso   1.00
H1231  H     0.09040   0.85732   0.81531   0.00000  Uiso   1.00
H1232  H     0.00936   0.75377   0.80542   0.00000  Uiso   1.00
H1233  H     0.04418   0.89882   0.79004   0.00000  Uiso   1.00
H1234  H     0.05705   0.75872   0.96084   0.00000  Uiso   1.00
H1235  H     0.04851   0.78087   0.51715   0.00000  Uiso   1.00
H1236  H     0.30899   0.72186   0.52157   0.00000  Uiso   1.00
H1237  H     0.29531   0.76414   0.97641   0.00000  Uiso   1.00
H1238  H     0.31704   0.71185   0.91532   0.00000  Uiso   1.00
H1239  H     0.26520   0.68943   0.94542   0.00000  Uiso   1.00
H1240  H     0.33120   0.66890   0.96111   0.00000  Uiso   1.00
H1241  H     0.11339   0.83383   0.97970   0.00000  Uiso   1.00
H1242  H     0.13571   0.86570   0.93135   0.00000  Uiso   1.00
H1243  H     0.07718   0.52908   0.73671   0.00000  Uiso   1.00
H1244  H     0.16962   0.88245   0.53858   0.00000  Uiso   1.00
H1245  H     0.19118   0.91472   0.99080   0.00000  Uiso   1.00
H1246  H     0.09741   0.93560   0.96111   0.00000  Uiso   1.00
H1247  H     0.11851   0.95194   0.52202   0.00000  Uiso   1.00
H1248  H     0.07587   0.90321   0.50915   0.00000  Uiso   1.00
H1249  H     0.10682   0.64725   0.64113   0.00000  Uiso   1.00
H1250  H     0.09910   0.65262   0.57792   0.00000  Uiso   1.00
H1251  H     0.00726   0.65736   0.63531   0.00000  Uiso   1.00
H1252  H     0.00261   0.65934   0.57175   0.00000  Uiso   1.00
H1253  H     0.03859   0.58272   0.57241   0.00000  Uiso   1.00
H1254  H     0.22941   0.97624   0.71801   0.00000  Uiso   1.00
H1255  H     0.31371   0.58324   0.60056   0.00000  Uiso   1.00
H1256  H     0.04486   0.58022   0.63660   0.00000  Uiso   1.00
H1257  H     0.28012   0.79166   0.88417   0.00000  Uiso   1.00
H1258  H     0.27250   0.82909   0.93197   0.00000  Uiso   1.00
H1259  H     0.28243   0.85585   0.82917   0.00000  Uiso   1.00
H1260  H     0.26802   0.89366   0.87373   0.00000  Uiso   1.00
H1261  H     0.01955   0.87211   0.92663   0.00000  Uiso   1.00
H1262  H     0.03030   0.89699   0.87105   0.00000  Uiso   1.00
H1263  H     0.03454   0.83707   0.87971   0.00000  Uiso   1.00
H1264  H     0.29266   0.84641   0.64711   0.00000  Uiso   1.00
H1265  H     0.24666   0.53008   0.77726   0.00000  Uiso   1.00
H1266  H     0.25791   0.84013   0.58879   0.00000  Uiso   1.00
H1267  H     0.02336   0.79117   0.64038   0.00000  Uiso   1.00
H1268  H     0.32515   0.77597   0.58214   0.00000  Uiso   1.00
H1269  H     0.01026   0.85225   0.55155   0.00000  Uiso   1.00
H1270  H     0.07068   0.82872   0.58249   0.00000  Uiso   1.00
H1271  H     0.03771   0.87009   0.61108   0.00000  Uiso   1.00
H1272  H     0.05207   0.66880   0.84363   0.00000  Uiso   1.00
H1273  H     0.06560   0.67356   0.90661   0.00000  Uiso   1.00
H1274  H     0.08906   0.59401   0.84690   0.00000  Uiso   1.00
H1275  H     0.11450   0.59912   0.90929   0.00000  Uiso   1.00
H1276  H     0.09172   0.96633   0.78672   0.00000  Uiso   1.00
H1277  H     0.02487   0.59946   0.92935   0.00000  Uiso   1.00
H1278  H     0.03047   0.55204   0.89257   0.00000  Uiso   1.00
H1279  H     0.32914   0.60061   0.86720   0.00000  Uiso   1.00
H1280  H     0.24128   0.78006   0.54184   0.00000  Uiso   1.00
H1281  H     0.13951   0.68183   0.96362   0.00000  Uiso   1.00
H1282  H     0.05882   0.63554   0.76891   0.00000  Uiso   1.00
N1283  N     0.16667   0.74999   0.62624   0.00000  Uiso   1.00
N1284  N     0.16667   0.75001   0.87377   0.00000  Uiso   1.00
O1285  O     0.16667   0.68453   0.78974   0.00000  Uiso   1.00
O1286  O     0.19313   0.82839   0.97313   0.00000  Uiso   1.00
O1287  O     0.08402   0.71015   0.61646   0.00000  Uiso   1.00
O1288  O     0.20732   0.82262   0.87821   0.00000  Uiso   1.00
O1289  O     0.25104   0.78695   0.63843   0.00000  Uiso   1.00
O1290  O     0.13167   0.67566   0.86931   0.00000  Uiso   1.00
O1291  O     0.16666   0.81546   0.71026   0.00000  Uiso   1.00
O1292  O     0.16667   0.68453   0.71026   0.00000  Uiso   1.00
O1293  O     0.16666   0.81547   0.78974   0.00000  Uiso   1.00
O1294  O     0.09058   0.75000   0.78045   0.00000  Uiso   1.00
O1295  O     0.24275   0.75000   0.71956   0.00000  Uiso   1.00
O1296  O     0.09058   0.74999   0.70097   0.00000  Uiso   1.00
O1297  O     0.24275   0.75000   0.79904   0.00000  Uiso   1.00
O1298  O     0.07642   0.71511   0.51825   0.00000  Uiso   1.00
Zn1299 Zn    0.16667   0.75000   0.80307   0.00000  Uiso   1.00
Zn1300 Zn    0.16667   0.74999   0.69693   0.00000  Uiso   1.00
C1301  C     0.49928   0.66430   0.75041   0.00000  Uiso   1.00
C1302  C     0.48315   0.71241   0.94597   0.00000  Uiso   1.00
C1303  C     0.49749   0.75056   0.52612   0.00000  Uiso   1.00
C1304  C     0.49821   0.75063   0.97307   0.00000  Uiso   1.00
C1305  C     0.40033   0.74900   0.73751   0.00000  Uiso   1.00
C1306  C     0.59966   0.74972   0.76260   0.00000  Uiso   1.00
C1307  C     0.34508   0.74636   0.73117   0.00000  Uiso   1.00
C1308  C     0.65491   0.74977   0.76937   0.00000  Uiso   1.00
C1309  C     0.44786   0.54735   0.74513   0.00000  Uiso   1.00
C1310  C     0.53366   0.95597   0.73306   0.00000  Uiso   1.00
C1311  C     0.44862   0.59371   0.74416   0.00000  Uiso   1.00
C1312  C     0.49883   0.83594   0.74952   0.00000  Uiso   1.00
C1313  C     0.53508   0.90992   0.73096   0.00000  Uiso   1.00
C1314  C     0.49783   0.61670   0.75206   0.00000  Uiso   1.00
C1315  C     0.49590   0.88391   0.74884   0.00000  Uiso   1.00
C1316  C     0.54554   0.59421   0.76416   0.00000  Uiso   1.00
C1317  C     0.45476   0.90410   0.76759   0.00000  Uiso   1.00
C1318  C     0.54363   0.54797   0.76722   0.00000  Uiso   1.00
C1319  C     0.45527   0.95040   0.77083   0.00000  Uiso   1.00
C1320  C     0.49522   0.52456   0.75628   0.00000  Uiso   1.00
C1321  C     0.49481   0.97617   0.75390   0.00000  Uiso   1.00
C1322  C     0.39716   0.61807   0.73605   0.00000  Uiso   1.00
C1323  C     0.45456   0.73275   0.54645   0.00000  Uiso   1.00
C1324  C     0.57773   0.88932   0.70878   0.00000  Uiso   1.00
C1325  C     0.59822   0.61903   0.77353   0.00000  Uiso   1.00
C1326  C     0.40951   0.87706   0.78267   0.00000  Uiso   1.00
C1327  C     0.37837   0.74995   0.99569   0.00000  Uiso   1.00
C1328  C     0.65339   0.73491   0.98773   0.00000  Uiso   1.00
C1329  C     0.64119   0.69901   0.94997   0.00000  Uiso   1.00
C1330  C     0.48033   0.85377   0.96879   0.00000  Uiso   1.00
C1331  C     0.49129   0.89416   0.50121   0.00000  Uiso   1.00
C1332  C     0.44263   0.92294   0.99806   0.00000  Uiso   1.00
C1333  C     0.41613   0.66327   0.60984   0.00000  Uiso   1.00
C1334  C     0.51408   0.78891   0.94893   0.00000  Uiso   1.00
C1335  C     0.35890   0.64577   0.60505   0.00000  Uiso   1.00
C1336  C     0.35566   0.59480   0.60360   0.00000  Uiso   1.00
C1337  C     0.59599   0.82353   0.89303   0.00000  Uiso   1.00
C1338  C     0.62113   0.86209   0.86802   0.00000  Uiso   1.00
C1339  C     0.34671   0.86725   0.88756   0.00000  Uiso   1.00
C1340  C     0.61412   0.82142   0.61908   0.00000  Uiso   1.00
C1341  C     0.66603   0.80395   0.60736   0.00000  Uiso   1.00
C1342  C     0.36467   0.84113   0.58678   0.00000  Uiso   1.00
C1343  C     0.41402   0.65956   0.87564   0.00000  Uiso   1.00
C1344  C     0.41501   0.60861   0.88073   0.00000  Uiso   1.00
C1345  C     0.45831   0.73003   0.59685   0.00000  Uiso   1.00
C1346  C     0.36321   0.58912   0.89316   0.00000  Uiso   1.00
C1347  C     0.51888   0.78669   0.90004   0.00000  Uiso   1.00
C1348  C     0.54127   0.76966   0.60716   0.00000  Uiso   1.00
C1349  C     0.48072   0.71341   0.89582   0.00000  Uiso   1.00
C1350  C     0.54091   0.76810   0.55715   0.00000  Uiso   1.00
H1351  H     0.65723   0.74144   0.69539   0.00000  Uiso   1.00
H1352  H     0.39713   0.64338   0.70734   0.00000  Uiso   1.00
H1353  H     0.36273   0.59488   0.72608   0.00000  Uiso   1.00
H1354  H     0.55857   0.87331   0.67545   0.00000  Uiso   1.00
H1355  H     0.60732   0.91457   0.69976   0.00000  Uiso   1.00
H1356  H     0.59895   0.86414   0.73330   0.00000  Uiso   1.00
H1357  H     0.59922   0.64187   0.80395   0.00000  Uiso   1.00
H1358  H     0.63145   0.59576   0.78214   0.00000  Uiso   1.00
H1359  H     0.60441   0.63894   0.74152   0.00000  Uiso   1.00
H1360  H     0.39204   0.85410   0.75379   0.00000  Uiso   1.00
H1361  H     0.42373   0.85732   0.81531   0.00000  Uiso   1.00
H1362  H     0.34269   0.75377   0.80542   0.00000  Uiso   1.00
H1363  H     0.37751   0.89882   0.79004   0.00000  Uiso   1.00
H1364  H     0.39038   0.75872   0.96084   0.00000  Uiso   1.00
H1365  H     0.38185   0.78087   0.51715   0.00000  Uiso   1.00
H1366  H     0.64232   0.72186   0.52157   0.00000  Uiso   1.00
H1367  H     0.62864   0.76414   0.97641   0.00000  Uiso   1.00
H1368  H     0.65037   0.71185   0.91532   0.00000  Uiso   1.00
H1369  H     0.59853   0.68943   0.94542   0.00000  Uiso   1.00
H1370  H     0.66453   0.66890   0.96111   0.00000  Uiso   1.00
H1371  H     0.44672   0.83383   0.97970   0.00000  Uiso   1.00
H1372  H     0.46904   0.86570   0.93135   0.00000  Uiso   1.00
H1373  H     0.41051   0.52908   0.73671   0.00000  Uiso   1.00
H1374  H     0.50296   0.88245   0.53858   0.00000  Uiso   1.00
H1375  H     0.52451   0.91472   0.99080   0.00000  Uiso   1.00
H1376  H     0.43074   0.93560   0.96111   0.00000  Uiso   1.00
H1377  H     0.45184   0.95194   0.52202   0.00000  Uiso   1.00
H1378  H     0.40921   0.90321   0.50915   0.00000  Uiso   1.00
H1379  H     0.44016   0.64725   0.64113   0.00000  Uiso   1.00
H1380  H     0.43244   0.65262   0.57792   0.00000  Uiso   1.00
H1381  H     0.34060   0.65736   0.63531   0.00000  Uiso   1.00
H1382  H     0.33594   0.65934   0.57175   0.00000  Uiso   1.00
H1383  H     0.37192   0.58272   0.57241   0.00000  Uiso   1.00
H1384  H     0.56274   0.97624   0.71801   0.00000  Uiso   1.00
H1385  H     0.64705   0.58324   0.60056   0.00000  Uiso   1.00
H1386  H     0.37819   0.58022   0.63660   0.00000  Uiso   1.00
H1387  H     0.61346   0.79166   0.88417   0.00000  Uiso   1.00
H1388  H     0.60583   0.82909   0.93197   0.00000  Uiso   1.00
H1389  H     0.61576   0.85585   0.82917   0.00000  Uiso   1.00
H1390  H     0.60135   0.89366   0.87373   0.00000  Uiso   1.00
H1391  H     0.35289   0.87211   0.92663   0.00000  Uiso   1.00
H1392  H     0.36364   0.89699   0.87105   0.00000  Uiso   1.00
H1393  H     0.36788   0.83707   0.87971   0.00000  Uiso   1.00
H1394  H     0.62600   0.84641   0.64711   0.00000  Uiso   1.00
H1395  H     0.57999   0.53008   0.77726   0.00000  Uiso   1.00
H1396  H     0.59124   0.84013   0.58879   0.00000  Uiso   1.00
H1397  H     0.35669   0.79117   0.64038   0.00000  Uiso   1.00
H1398  H     0.65848   0.77597   0.58214   0.00000  Uiso   1.00
H1399  H     0.34360   0.85225   0.55155   0.00000  Uiso   1.00
H1400  H     0.40402   0.82872   0.58249   0.00000  Uiso   1.00
H1401  H     0.37104   0.87009   0.61108   0.00000  Uiso   1.00
H1402  H     0.38540   0.66880   0.84363   0.00000  Uiso   1.00
H1403  H     0.39893   0.67356   0.90661   0.00000  Uiso   1.00
H1404  H     0.42239   0.59401   0.84690   0.00000  Uiso   1.00
H1405  H     0.44783   0.59912   0.90929   0.00000  Uiso   1.00
H1406  H     0.42506   0.96633   0.78672   0.00000  Uiso   1.00
H1407  H     0.35821   0.59946   0.92935   0.00000  Uiso   1.00
H1408  H     0.36381   0.55204   0.89257   0.00000  Uiso   1.00
H1409  H     0.66247   0.60061   0.86720   0.00000  Uiso   1.00
H1410  H     0.57462   0.78006   0.54184   0.00000  Uiso   1.00
H1411  H     0.47284   0.68183   0.96362   0.00000  Uiso   1.00
H1412  H     0.39216   0.63554   0.76891   0.00000  Uiso   1.00
N1413  N     0.50000   0.74999   0.62624   0.00000  Uiso   1.00
N1414  N     0.50000   0.75001   0.87377   0.00000  Uiso   1.00
O1415  O     0.50000   0.68453   0.78974   0.00000  Uiso   1.00
O1416  O     0.52646   0.82839   0.97313   0.00000  Uiso   1.00
O1417  O     0.41735   0.71015   0.61646   0.00000  Uiso   1.00
O1418  O     0.54065   0.82262   0.87821   0.00000  Uiso   1.00
O1419  O     0.58437   0.78695   0.63843   0.00000  Uiso   1.00
O1420  O     0.46501   0.67566   0.86931   0.00000  Uiso   1.00
O1421  O     0.50000   0.81546   0.71026   0.00000  Uiso   1.00
O1422  O     0.50000   0.68453   0.71026   0.00000  Uiso   1.00
O1423  O     0.50000   0.81547   0.78974   0.00000  Uiso   1.00
O1424  O     0.42392   0.75000   0.78045   0.00000  Uiso   1.00
O1425  O     0.57608   0.75000   0.71956   0.00000  Uiso   1.00
O1426  O     0.42392   0.74999   0.70097   0.00000  Uiso   1.00
O1427  O     0.57608   0.75000   0.79904   0.00000  Uiso   1.00
O1428  O     0.40975   0.71511   0.51825   0.00000  Uiso   1.00
Zn1429 Zn    0.50000   0.75000   0.80307   0.00000  Uiso   1.00
Zn1430 Zn    0.50000   0.74999   0.69693   0.00000  Uiso   1.00
C1431  C     0.83261   0.66430   0.75041   0.00000  Uiso   1.00
C1432  C     0.81649   0.71241   0.94597   0.00000  Uiso   1.00
C1433  C     0.83083   0.75056   0.52612   0.00000  Uiso   1.00
C1434  C     0.83154   0.75063   0.97307   0.00000  Uiso   1.00
C1435  C     0.73366   0.74900   0.73751   0.00000  Uiso   1.00
C1436  C     0.93299   0.74972   0.76260   0.00000  Uiso   1.00
C1437  C     0.67842   0.74636   0.73117   0.00000  Uiso   1.00
C1438  C     0.98825   0.74977   0.76937   0.00000  Uiso   1.00
C1439  C     0.78120   0.54735   0.74513   0.00000  Uiso   1.00
C1440  C     0.86699   0.95597   0.73306   0.00000  Uiso   1.00
C1441  C     0.78195   0.59371   0.74416   0.00000  Uiso   1.00
C1442  C     0.83216   0.83594   0.74952   0.00000  Uiso   1.00
C1443  C     0.86841   0.90992   0.73096   0.00000  Uiso   1.00
C1444  C     0.83117   0.61670   0.75206   0.00000  Uiso   1.00
C1445  C     0.82924   0.88391   0.74884   0.00000  Uiso   1.00
C1446  C     0.87888   0.59421   0.76416   0.00000  Uiso   1.00
C1447  C     0.78809   0.90410   0.76759   0.00000  Uiso   1.00
C1448  C     0.87696   0.54797   0.76722   0.00000  Uiso   1.00
C1449  C     0.78861   0.95040   0.77083   0.00000  Uiso   1.00
C1450  C     0.82855   0.52456   0.75628   0.00000  Uiso   1.00
C1451  C     0.82814   0.97617   0.75390   0.00000  Uiso   1.00
C1452  C     0.73050   0.61807   0.73605   0.00000  Uiso   1.00
C1453  C     0.78789   0.73275   0.54645   0.00000  Uiso   1.00
C1454  C     0.91107   0.88932   0.70878   0.00000  Uiso   1.00
C1455  C     0.93155   0.61903   0.77353   0.00000  Uiso   1.00
C1456  C     0.74284   0.87706   0.78267   0.00000  Uiso   1.00
C1457  C     0.71171   0.74995   0.99569   0.00000  Uiso   1.00
C1458  C     0.98672   0.73491   0.98773   0.00000  Uiso   1.00
C1459  C     0.97452   0.69901   0.94997   0.00000  Uiso   1.00
C1460  C     0.81367   0.85377   0.96879   0.00000  Uiso   1.00
C1461  C     0.82462   0.89416   0.50121   0.00000  Uiso   1.00
C1462  C     0.77597   0.92294   0.99806   0.00000  Uiso   1.00
C1463  C     0.74946   0.66327   0.60984   0.00000  Uiso   1.00
C1464  C     0.84741   0.78891   0.94893   0.00000  Uiso   1.00
C1465  C     0.69223   0.64577   0.60505   0.00000  Uiso   1.00
C1466  C     0.68899   0.59480   0.60360   0.00000  Uiso   1.00
C1467  C     0.92933   0.82353   0.89303   0.00000  Uiso   1.00
C1468  C     0.95446   0.86209   0.86802   0.00000  Uiso   1.00
C1469  C     0.68005   0.86725   0.88756   0.00000  Uiso   1.00
C1470  C     0.94745   0.82142   0.61908   0.00000  Uiso   1.00
C1471  C     0.99937   0.80395   0.60736   0.00000  Uiso   1.00
C1472  C     0.69800   0.84113   0.58678   0.00000  Uiso   1.00
C1473  C     0.74735   0.65956   0.87564   0.00000  Uiso   1.00
C1474  C     0.74835   0.60861   0.88073   0.00000  Uiso   1.00
C1475  C     0.79164   0.73003   0.59685   0.00000  Uiso   1.00
C1476  C     0.69655   0.58912   0.89316   0.00000  Uiso   1.00
C1477  C     0.85222   0.78669   0.90004   0.00000  Uiso   1.00
C1478  C     0.87460   0.76966   0.60716   0.00000  Uiso   1.00
C1479  C     0.81406   0.71341   0.89582   0.00000  Uiso   1.00
C1480  C     0.87424   0.76810   0.55715   0.00000  Uiso   1.00
H1481  H     0.99057   0.74144   0.69539   0.00000  Uiso   1.00
H1482  H     0.73046   0.64338   0.70734   0.00000  Uiso   1.00
H1483  H     0.69606   0.59488   0.72608   0.00000  Uiso   1.00
H1484  H     0.89190   0.87331   0.67545   0.00000  Uiso   1.00
H1485  H     0.94065   0.91457   0.69976   0.00000  Uiso   1.00
H1486  H     0.93228   0.86414   0.73330   0.00000  Uiso   1.00
H1487  H     0.93255   0.64187   0.80395   0.00000  Uiso   1.00
H1488  H     0.96479   0.59576   0.78214   0.00000  Uiso   1.00
H1489  H     0.93774   0.63894   0.74152   0.00000  Uiso   1.00
H1490  H     0.72537   0.85410   0.75379   0.00000  Uiso   1.00
H1491  H     0.75706   0.85732   0.81531   0.00000  Uiso   1.00
H1492  H     0.67603   0.75377   0.80542   0.00000  Uiso   1.00
H1493  H     0.71084   0.89882   0.79004   0.00000  Uiso   1.00
H1494  H     0.72371   0.75872   0.96084   0.00000  Uiso   1.00
H1495  H     0.71518   0.78087   0.51715   0.00000  Uiso   1.00
H1496  H     0.97565   0.72186   0.52157   0.00000  Uiso   1.00
H1497  H     0.96197   0.76414   0.97641   0.00000  Uiso   1.00
H1498  H     0.98370   0.71185   0.91532   0.00000  Uiso   1.00
H1499  H     0.93187   0.68943   0.94542   0.00000  Uiso   1.00
H1500  H     0.99786   0.66890   0.96111   0.00000  Uiso   1.00
H1501  H     0.78006   0.83383   0.97970   0.00000  Uiso   1.00
H1502  H     0.80237   0.86570   0.93135   0.00000  Uiso   1.00
H1503  H     0.74384   0.52908   0.73671   0.00000  Uiso   1.00
H1504  H     0.83629   0.88245   0.53858   0.00000  Uiso   1.00
H1505  H     0.85784   0.91472   0.99080   0.00000  Uiso   1.00
H1506  H     0.76408   0.93560   0.96111   0.00000  Uiso   1.00
H1507  H     0.78517   0.95194   0.52202   0.00000  Uiso   1.00
H1508  H     0.74254   0.90321   0.50915   0.00000  Uiso   1.00
H1509  H     0.77349   0.64725   0.64113   0.00000  Uiso   1.00
H1510  H     0.76577   0.65262   0.57792   0.00000  Uiso   1.00
H1511  H     0.67393   0.65736   0.63531   0.00000  Uiso   1.00
H1512  H     0.66928   0.65934   0.57175   0.00000  Uiso   1.00
H1513  H     0.70525   0.58272   0.57241   0.00000  Uiso   1.00
H1514  H     0.89608   0.97624   0.71801   0.00000  Uiso   1.00
H1515  H     0.98038   0.58324   0.60056   0.00000  Uiso   1.00
H1516  H     0.71153   0.58022   0.63660   0.00000  Uiso   1.00
H1517  H     0.94679   0.79166   0.88417   0.00000  Uiso   1.00
H1518  H     0.93917   0.82909   0.93197   0.00000  Uiso   1.00
H1519  H     0.94909   0.85585   0.82917   0.00000  Uiso   1.00
H1520  H     0.93469   0.89366   0.87373   0.00000  Uiso   1.00
H1521  H     0.68622   0.87211   0.92663   0.00000  Uiso   1.00
H1522  H     0.69697   0.89699   0.87105   0.00000  Uiso   1.00
H1523  H     0.70121   0.83707   0.87971   0.00000  Uiso   1.00
H1524  H     0.95933   0.84641   0.64711   0.00000  Uiso   1.00
H1525  H     0.91333   0.53008   0.77726   0.00000  Uiso   1.00
H1526  H     0.92457   0.84013   0.58879   0.00000  Uiso   1.00
H1527  H     0.69002   0.79117   0.64038   0.00000  Uiso   1.00
H1528  H     0.99181   0.77597   0.58214   0.00000  Uiso   1.00
H1529  H     0.67693   0.85225   0.55155   0.00000  Uiso   1.00
H1530  H     0.73735   0.82872   0.58249   0.00000  Uiso   1.00
H1531  H     0.70437   0.87009   0.61108   0.00000  Uiso   1.00
H1532  H     0.71873   0.66880   0.84363   0.00000  Uiso   1.00
H1533  H     0.73227   0.67356   0.90661   0.00000  Uiso   1.00
H1534  H     0.75572   0.59401   0.84690   0.00000  Uiso   1.00
H1535  H     0.78116   0.59912   0.90929   0.00000  Uiso   1.00
H1536  H     0.75839   0.96633   0.78672   0.00000  Uiso   1.00
H1537  H     0.69154   0.59946   0.92935   0.00000  Uiso   1.00
H1538  H     0.69714   0.55204   0.89257   0.00000  Uiso   1.00
H1539  H     0.99580   0.60061   0.86720   0.00000  Uiso   1.00
H1540  H     0.90795   0.78006   0.54184   0.00000  Uiso   1.00
H1541  H     0.80617   0.68183   0.96362   0.00000  Uiso   1.00
H1542  H     0.72549   0.63554   0.76891   0.00000  Uiso   1.00
N1543  N     0.83333   0.74999   0.62624   0.00000  Uiso   1.00
N1544  N     0.83333   0.75001   0.87377   0.00000  Uiso   1.00
O1545  O     0.83334   0.68453   0.78974   0.00000  Uiso   1.00
O1546  O     0.85979   0.82839   0.97313   0.00000  Uiso   1.00
O1547  O     0.75068   0.71015   0.61646   0.00000  Uiso   1.00
O1548  O     0.87398   0.82262   0.87821   0.00000  Uiso   1.00
O1549  O     0.91771   0.78695   0.63843   0.00000  Uiso   1.00
O1550  O     0.79834   0.67566   0.86931   0.00000  Uiso   1.00
O1551  O     0.83333   0.81546   0.71026   0.00000  Uiso   1.00
O1552  O     0.83334   0.68453   0.71026   0.00000  Uiso   1.00
O1553  O     0.83333   0.81547   0.78974   0.00000  Uiso   1.00
O1554  O     0.75725   0.75000   0.78045   0.00000  Uiso   1.00
O1555  O     0.90942   0.75000   0.71956   0.00000  Uiso   1.00
O1556  O     0.75725   0.74999   0.70097   0.00000  Uiso   1.00
O1557  O     0.90942   0.75000   0.79904   0.00000  Uiso   1.00
O1558  O     0.74309   0.71511   0.51825   0.00000  Uiso   1.00
Zn1559 Zn    0.83333   0.75000   0.80307   0.00000  Uiso   1.00
Zn1560 Zn    0.83333   0.74999   0.69693   0.00000  Uiso   1.00
loop_
_geom_bond_atom_site_label_1
_geom_bond_atom_site_label_2
_geom_bond_distance
_geom_bond_site_symmetry_2
_ccdc_geom_bond_type
C1     O122    1.287   .     A
C1     C14     1.424   .     S
C1     O115    1.281   .     A
C2     H111    1.083   .     S
C2     C49     1.420   .     A
C2     C4      1.401   .     A
C3     C23     1.411   .     A
C3     C50     1.401   .     A
C3     C784    1.515   1_554 S
C4     C34     1.409   .     A
C4     C783    1.515   .     S
C5     O126    1.285   .     A
C5     C7      1.399   .     S
C5     O124    1.275   .     A
C6     O127    1.283   .     A
C6     C8      1.398   .     S
C6     O125    1.277   .     A
C7     C268    1.333   1_455 S
C7     H311    1.086   1_455 S
C8     C137    1.333   .     S
C8     H192    1.088   .     S
C9     H73     1.083   .     S
C9     C20     1.398   .     A
C9     C11     1.387   .     A
C10    C21     1.396   .     A
C10    C13     1.382   .     A
C10    H84     1.084   .     S
C11    C14     1.407   .     A
C11    C22     1.509   .     S
C12    O121    1.290   .     A
C12    C15     1.439   .     S
C12    O123    1.286   .     A
C13    C24     1.500   .     S
C13    C15     1.407   .     A
C14    C16     1.404   .     A
C15    C17     1.412   .     A
C16    C25     1.510   .     S
C16    C18     1.385   .     A
C17    C26     1.509   .     S
C17    C19     1.390   .     A
C18    C20     1.400   .     A
C18    H95     1.084   .     S
C19    C21     1.398   .     A
C19    H106    1.084   .     S
C20    C411    1.450   1_545 S
C21    C410    1.450   .     S
C22    H53     1.110   .     S
C22    H112    1.108   .     S
C22    H52     1.105   .     S
C23    C45     1.425   .     A
C23    O128    1.388   .     S
C24    H55     1.111   .     S
C24    H54     1.107   .     S
C24    H56     1.111   .     S
C25    H57     1.110   .     S
C25    H58     1.110   .     S
C25    H59     1.111   .     S
C26    H63     1.110   .     S
C26    H61     1.109   .     S
C26    H60     1.111   .     S
C27    H64     1.111   .     S
C27    C288    1.531   1_455 S
C27    H845    1.112   .     S
C27    O908    1.416   .     S
C28    C29     1.525   .     S
C28    H67     1.108   .     S
C28    C157    1.531   .     S
C28    H846    1.109   .     S
C29    H69     1.110   .     S
C29    H68     1.111   .     S
C29    H70     1.109   .     S
C30    H71     1.116   .     S
C30    O116    1.411   .     S
C30    H72     1.114   .     S
C30    C811    1.527   .     S
C31    H74     1.112   .     S
C31    C810    1.527   1_554 S
C31    C812    1.526   1_554 S
C31    H855    1.112   1_554 S
C32    H76     1.111   .     S
C32    C811    1.526   .     S
C32    H857    1.110   .     S
C32    H858    1.111   .     S
C33    O117    1.418   .     S
C33    H79     1.109   .     S
C33    H80     1.116   .     S
C33    C35     1.529   .     S
C34    O116    1.382   .     S
C34    C47     1.421   .     A
C35    C36     1.526   .     S
C35    H81     1.111   .     S
C35    H82     1.110   .     S
C36    H83     1.111   .     S
C36    H86     1.111   .     S
C36    H345    1.110   1_455 S
C37    H88     1.112   .     S
C37    O118    1.413   .     S
C37    C38     1.526   .     S
C37    H87     1.115   .     S
C38    H89     1.112   .     S
C38    H90     1.112   .     S
C38    C169    1.528   .     S
C39    H93     1.111   .     S
C39    H91     1.111   .     S
C39    H92     1.109   .     S
C39    C298    1.528   1_455 S
C40    H96     1.114   .     S
C40    C41     1.531   .     S
C40    H94     1.105   .     S
C40    O119    1.421   .     S
C41    H98     1.106   .     S
C41    C172    1.527   .     S
C41    H227    1.106   .     S
C42    H100    1.110   .     S
C42    H101    1.111   .     S
C42    H99     1.111   .     S
C42    C301    1.527   1_455 S
C43    O120    1.417   .     S
C43    C44     1.529   .     S
C43    H102    1.111   .     S
C43    H103    1.112   .     S
C44    H105    1.112   .     S
C44    C46     1.526   .     S
C44    H104    1.111   .     S
C45    O117    1.382   .     S
C45    N113    1.376   .     A
C46    H108    1.110   .     S
C46    H107    1.110   .     S
C46    H369    1.109   1_455 S
C47    N114    1.372   .     A
C47    O118    1.381   .     S
C48    C50     1.425   .     A
C48    O119    1.396   .     S
C48    N113    1.378   .     A
C49    O120    1.384   .     S
C49    N114    1.372   .     A
C50    H110    1.078   .     S
H51    C137    1.086   .     S
H62    C268    1.088   1_455 S
H65    C807    1.112   1_554 S
H66    C808    1.109   1_554 S
H75    C811    1.112   .     S
H77    C812    1.110   1_554 S
H78    C812    1.111   1_554 S
H85    C166    1.110   .     S
H97    C301    1.106   1_455 S
H109   C176    1.109   .     S
N113   Zn130   2.015   .     S
N114   Zn129   2.015   .     S
O115   Zn129   2.002   .     S
O121   Zn130   2.002   .     S
O122   Zn130   1.989   .     S
O123   Zn129   1.989   .     S
O124   Zn129   1.953   .     S
O125   Zn130   1.953   .     S
O126   Zn130   1.972   .     S
O127   Zn129   1.972   .     S
O128   C807    1.416   1_554 S
C131   O252    1.287   .     A
C131   C144    1.424   .     S
C131   O245    1.281   .     A
C132   H241    1.083   .     S
C132   C179    1.420   .     A
C132   C134    1.401   .     A
C133   C153    1.411   .     A
C133   C180    1.401   .     A
C133   C914    1.515   1_554 S
C134   C164    1.409   .     A
C134   C913    1.515   .     S
C135   O256    1.285   .     A
C135   C137    1.399   .     S
C135   O254    1.275   .     A
C136   O257    1.283   .     A
C136   C138    1.398   .     S
C136   O255    1.277   .     A
C138   C267    1.333   .     S
C138   H322    1.088   .     S
C139   H203    1.083   .     S
C139   C150    1.398   .     A
C139   C141    1.387   .     A
C140   C151    1.396   .     A
C140   C143    1.382   .     A
C140   H214    1.084   .     S
C141   C144    1.407   .     A
C141   C152    1.509   .     S
C142   O251    1.290   .     A
C142   C145    1.439   .     S
C142   O253    1.286   .     A
C143   C154    1.500   .     S
C143   C145    1.407   .     A
C144   C146    1.404   .     A
C145   C147    1.412   .     A
C146   C155    1.510   .     S
C146   C148    1.385   .     A
C147   C156    1.509   .     S
C147   C149    1.390   .     A
C148   C150    1.400   .     A
C148   H225    1.084   .     S
C149   C151    1.398   .     A
C149   H236    1.084   .     S
C150   C541    1.450   1_545 S
C151   C540    1.450   .     S
C152   H183    1.110   .     S
C152   H242    1.108   .     S
C152   H182    1.105   .     S
C153   C175    1.425   .     A
C153   O258    1.388   .     S
C154   H185    1.111   .     S
C154   H184    1.107   .     S
C154   H186    1.111   .     S
C155   H187    1.110   .     S
C155   H188    1.110   .     S
C155   H189    1.111   .     S
C156   H193    1.110   .     S
C156   H191    1.109   .     S
C156   H190    1.111   .     S
C157   H194    1.111   .     S
C157   H975    1.112   .     S
C157   O1038   1.416   .     S
C158   C159    1.525   .     S
C158   H197    1.108   .     S
C158   C287    1.531   .     S
C158   H976    1.109   .     S
C159   H199    1.110   .     S
C159   H198    1.111   .     S
C159   H200    1.109   .     S
C160   H201    1.116   .     S
C160   O246    1.411   .     S
C160   H202    1.114   .     S
C160   C941    1.527   .     S
C161   H204    1.112   .     S
C161   C940    1.527   1_554 S
C161   C942    1.526   1_554 S
C161   H985    1.112   1_554 S
C162   H206    1.111   .     S
C162   C941    1.526   .     S
C162   H987    1.110   .     S
C162   H988    1.111   .     S
C163   O247    1.418   .     S
C163   H209    1.109   .     S
C163   H210    1.116   .     S
C163   C165    1.529   .     S
C164   O246    1.382   .     S
C164   C177    1.421   .     A
C165   C166    1.526   .     S
C165   H211    1.111   .     S
C165   H212    1.110   .     S
C166   H213    1.111   .     S
C166   H216    1.111   .     S
C167   H218    1.112   .     S
C167   O248    1.413   .     S
C167   C168    1.526   .     S
C167   H217    1.115   .     S
C168   H219    1.112   .     S
C168   H220    1.112   .     S
C168   C299    1.528   .     S
C169   H223    1.111   .     S
C169   H221    1.111   .     S
C169   H222    1.109   .     S
C170   H226    1.114   .     S
C170   C171    1.531   .     S
C170   H224    1.105   .     S
C170   O249    1.421   .     S
C171   H228    1.106   .     S
C171   C302    1.527   .     S
C171   H357    1.106   .     S
C172   H230    1.110   .     S
C172   H231    1.111   .     S
C172   H229    1.111   .     S
C173   O250    1.417   .     S
C173   C174    1.529   .     S
C173   H232    1.111   .     S
C173   H233    1.112   .     S
C174   H235    1.112   .     S
C174   C176    1.526   .     S
C174   H234    1.111   .     S
C175   O247    1.382   .     S
C175   N243    1.376   .     A
C176   H238    1.110   .     S
C176   H237    1.110   .     S
C177   N244    1.372   .     A
C177   O248    1.381   .     S
C178   C180    1.425   .     A
C178   O249    1.396   .     S
C178   N243    1.378   .     A
C179   O250    1.384   .     S
C179   N244    1.372   .     A
C180   H240    1.078   .     S
H181   C267    1.086   .     S
H195   C937    1.112   1_554 S
H196   C938    1.109   1_554 S
H205   C941    1.112   .     S
H207   C942    1.110   1_554 S
H208   C942    1.111   1_554 S
H215   C296    1.110   .     S
H239   C306    1.109   .     S
N243   Zn260   2.015   .     S
N244   Zn259   2.015   .     S
O245   Zn259   2.002   .     S
O251   Zn260   2.002   .     S
O252   Zn260   1.989   .     S
O253   Zn259   1.989   .     S
O254   Zn259   1.953   .     S
O255   Zn260   1.953   .     S
O256   Zn260   1.972   .     S
O257   Zn259   1.972   .     S
O258   C937    1.416   1_554 S
C261   O382    1.287   .     A
C261   C274    1.424   .     S
C261   O375    1.281   .     A
C262   H371    1.083   .     S
C262   C309    1.420   .     A
C262   C264    1.401   .     A
C263   C283    1.411   .     A
C263   C310    1.401   .     A
C263   C1044   1.515   1_554 S
C264   C294    1.409   .     A
C264   C1043   1.515   .     S
C265   O386    1.285   .     A
C265   C267    1.399   .     S
C265   O384    1.275   .     A
C266   O387    1.283   .     A
C266   C268    1.398   .     S
C266   O385    1.277   .     A
C268   C7      1.333   1_655 S
C268   H62     1.088   1_655 S
C269   H333    1.083   .     S
C269   C280    1.398   .     A
C269   C271    1.387   .     A
C270   C281    1.396   .     A
C270   C273    1.382   .     A
C270   H344    1.084   .     S
C271   C274    1.407   .     A
C271   C282    1.509   .     S
C272   O381    1.290   .     A
C272   C275    1.439   .     S
C272   O383    1.286   .     A
C273   C284    1.500   .     S
C273   C275    1.407   .     A
C274   C276    1.404   .     A
C275   C277    1.412   .     A
C276   C285    1.510   .     S
C276   C278    1.385   .     A
C277   C286    1.509   .     S
C277   C279    1.390   .     A
C278   C280    1.400   .     A
C278   H355    1.084   .     S
C279   C281    1.398   .     A
C279   H366    1.084   .     S
C280   C671    1.450   1_545 S
C281   C670    1.450   .     S
C282   H313    1.110   .     S
C282   H372    1.108   .     S
C282   H312    1.105   .     S
C283   C305    1.425   .     A
C283   O388    1.388   .     S
C284   H315    1.111   .     S
C284   H314    1.107   .     S
C284   H316    1.111   .     S
C285   H317    1.110   .     S
C285   H318    1.110   .     S
C285   H319    1.111   .     S
C286   H323    1.110   .     S
C286   H321    1.109   .     S
C286   H320    1.111   .     S
C287   H324    1.111   .     S
C287   H1105   1.112   .     S
C287   O1168   1.416   .     S
C288   C289    1.525   .     S
C288   H327    1.108   .     S
C288   C27     1.531   1_655 S
C288   H1106   1.109   .     S
C289   H329    1.110   .     S
C289   H328    1.111   .     S
C289   H330    1.109   .     S
C290   H331    1.116   .     S
C290   O376    1.411   .     S
C290   H332    1.114   .     S
C290   C1071   1.527   .     S
C291   H334    1.112   .     S
C291   C1070   1.527   1_554 S
C291   C1072   1.526   1_554 S
C291   H1115   1.112   1_554 S
C292   H336    1.111   .     S
C292   C1071   1.526   .     S
C292   H1117   1.110   .     S
C292   H1118   1.111   .     S
C293   O377    1.418   .     S
C293   H339    1.109   .     S
C293   H340    1.116   .     S
C293   C295    1.529   .     S
C294   O376    1.382   .     S
C294   C307    1.421   .     A
C295   C296    1.526   .     S
C295   H341    1.111   .     S
C295   H342    1.110   .     S
C296   H343    1.111   .     S
C296   H346    1.111   .     S
C297   H348    1.112   .     S
C297   O378    1.413   .     S
C297   C298    1.526   .     S
C297   H347    1.115   .     S
C298   H349    1.112   .     S
C298   H350    1.112   .     S
C298   C39     1.528   1_655 S
C299   H353    1.111   .     S
C299   H351    1.111   .     S
C299   H352    1.109   .     S
C300   H356    1.114   .     S
C300   C301    1.531   .     S
C300   H354    1.105   .     S
C300   O379    1.421   .     S
C301   H358    1.106   .     S
C301   C42     1.527   1_655 S
C301   H97     1.106   1_655 S
C302   H360    1.110   .     S
C302   H361    1.111   .     S
C302   H359    1.111   .     S
C303   O380    1.417   .     S
C303   C304    1.529   .     S
C303   H362    1.111   .     S
C303   H363    1.112   .     S
C304   H365    1.112   .     S
C304   C306    1.526   .     S
C304   H364    1.111   .     S
C305   O377    1.382   .     S
C305   N373    1.376   .     A
C306   H368    1.110   .     S
C306   H367    1.110   .     S
C307   N374    1.372   .     A
C307   O378    1.381   .     S
C308   C310    1.425   .     A
C308   O379    1.396   .     S
C308   N373    1.378   .     A
C309   O380    1.384   .     S
C309   N374    1.372   .     A
C310   H370    1.078   .     S
H311   C7      1.086   1_655 S
H325   C1067   1.112   1_554 S
H326   C1068   1.109   1_554 S
H335   C1071   1.112   .     S
H337   C1072   1.110   1_554 S
H338   C1072   1.111   1_554 S
H345   C36     1.110   1_655 S
H369   C46     1.109   1_655 S
N373   Zn390   2.015   .     S
N374   Zn389   2.015   .     S
O375   Zn389   2.002   .     S
O381   Zn390   2.002   .     S
O382   Zn390   1.989   .     S
O383   Zn389   1.989   .     S
O384   Zn389   1.953   .     S
O385   Zn390   1.953   .     S
O386   Zn390   1.972   .     S
O387   Zn389   1.972   .     S
O388   C1067   1.416   1_554 S
C391   O512    1.287   .     A
C391   C404    1.424   .     S
C391   O505    1.281   .     A
C392   H501    1.083   .     S
C392   C439    1.420   .     A
C392   C394    1.401   .     A
C393   C413    1.411   .     A
C393   C440    1.401   .     A
C393   C1174   1.515   1_554 S
C394   C424    1.409   .     A
C394   C1173   1.515   .     S
C395   O516    1.285   .     A
C395   C397    1.399   .     S
C395   O514    1.275   .     A
C396   O517    1.283   .     A
C396   C398    1.398   .     S
C396   O515    1.277   .     A
C397   C658    1.333   1_455 S
C397   H701    1.086   1_455 S
C398   C527    1.333   .     S
C398   H582    1.088   .     S
C399   H463    1.083   .     S
C399   C410    1.398   .     A
C399   C401    1.387   .     A
C400   C411    1.396   .     A
C400   C403    1.382   .     A
C400   H474    1.084   .     S
C401   C404    1.407   .     A
C401   C412    1.509   .     S
C402   O511    1.290   .     A
C402   C405    1.439   .     S
C402   O513    1.286   .     A
C403   C414    1.500   .     S
C403   C405    1.407   .     A
C404   C406    1.404   .     A
C405   C407    1.412   .     A
C406   C415    1.510   .     S
C406   C408    1.385   .     A
C407   C416    1.509   .     S
C407   C409    1.390   .     A
C408   C410    1.400   .     A
C408   H485    1.084   .     S
C409   C411    1.398   .     A
C409   H496    1.084   .     S
C411   C20     1.450   1_565 S
C412   H443    1.110   .     S
C412   H502    1.108   .     S
C412   H442    1.105   .     S
C413   C435    1.425   .     A
C413   O518    1.388   .     S
C414   H445    1.111   .     S
C414   H444    1.107   .     S
C414   H446    1.111   .     S
C415   H447    1.110   .     S
C415   H448    1.110   .     S
C415   H449    1.111   .     S
C416   H453    1.110   .     S
C416   H451    1.109   .     S
C416   H450    1.111   .     S
C417   H454    1.111   .     S
C417   C678    1.531   1_455 S
C417   H1235   1.112   .     S
C417   O1298   1.416   .     S
C418   C419    1.525   .     S
C418   H457    1.108   .     S
C418   C547    1.531   .     S
C418   H1236   1.109   .     S
C419   H459    1.110   .     S
C419   H458    1.111   .     S
C419   H460    1.109   .     S
C420   H461    1.116   .     S
C420   O506    1.411   .     S
C420   H462    1.114   .     S
C420   C1201   1.527   .     S
C421   H464    1.112   .     S
C421   C1200   1.527   1_554 S
C421   C1202   1.526   1_554 S
C421   H1245   1.112   1_554 S
C422   H466    1.111   .     S
C422   C1201   1.526   .     S
C422   H1247   1.110   .     S
C422   H1248   1.111   .     S
C423   O507    1.418   .     S
C423   H469    1.109   .     S
C423   H470    1.116   .     S
C423   C425    1.529   .     S
C424   O506    1.382   .     S
C424   C437    1.421   .     A
C425   C426    1.526   .     S
C425   H471    1.111   .     S
C425   H472    1.110   .     S
C426   H473    1.111   .     S
C426   H476    1.111   .     S
C426   H735    1.110   1_455 S
C427   H478    1.112   .     S
C427   O508    1.413   .     S
C427   C428    1.526   .     S
C427   H477    1.115   .     S
C428   H479    1.112   .     S
C428   H480    1.112   .     S
C428   C559    1.528   .     S
C429   H483    1.111   .     S
C429   H481    1.111   .     S
C429   H482    1.109   .     S
C429   C688    1.528   1_455 S
C430   H486    1.114   .     S
C430   C431    1.531   .     S
C430   H484    1.105   .     S
C430   O509    1.421   .     S
C431   H488    1.106   .     S
C431   C562    1.527   .     S
C431   H617    1.106   .     S
C432   H490    1.110   .     S
C432   H491    1.111   .     S
C432   H489    1.111   .     S
C432   C691    1.527   1_455 S
C433   O510    1.417   .     S
C433   C434    1.529   .     S
C433   H492    1.111   .     S
C433   H493    1.112   .     S
C434   H495    1.112   .     S
C434   C436    1.526   .     S
C434   H494    1.111   .     S
C435   O507    1.382   .     S
C435   N503    1.376   .     A
C436   H498    1.110   .     S
C436   H497    1.110   .     S
C436   H759    1.109   1_455 S
C437   N504    1.372   .     A
C437   O508    1.381   .     S
C438   C440    1.425   .     A
C438   O509    1.396   .     S
C438   N503    1.378   .     A
C439   O510    1.384   .     S
C439   N504    1.372   .     A
C440   H500    1.078   .     S
H441   C527    1.086   .     S
H452   C658    1.088   1_455 S
H455   C1197   1.112   1_554 S
H456   C1198   1.109   1_554 S
H465   C1201   1.112   .     S
H467   C1202   1.110   1_554 S
H468   C1202   1.111   1_554 S
H475   C556    1.110   .     S
H487   C691    1.106   1_455 S
H499   C566    1.109   .     S
N503   Zn520   2.015   .     S
N504   Zn519   2.015   .     S
O505   Zn519   2.002   .     S
O511   Zn520   2.002   .     S
O512   Zn520   1.989   .     S
O513   Zn519   1.989   .     S
O514   Zn519   1.953   .     S
O515   Zn520   1.953   .     S
O516   Zn520   1.972   .     S
O517   Zn519   1.972   .     S
O518   C1197   1.416   1_554 S
C521   O642    1.287   .     A
C521   C534    1.424   .     S
C521   O635    1.281   .     A
C522   H631    1.083   .     S
C522   C569    1.420   .     A
C522   C524    1.401   .     A
C523   C543    1.411   .     A
C523   C570    1.401   .     A
C523   C1304   1.515   1_554 S
C524   C554    1.409   .     A
C524   C1303   1.515   .     S
C525   O646    1.285   .     A
C525   C527    1.399   .     S
C525   O644    1.275   .     A
C526   O647    1.283   .     A
C526   C528    1.398   .     S
C526   O645    1.277   .     A
C528   C657    1.333   .     S
C528   H712    1.088   .     S
C529   H593    1.083   .     S
C529   C540    1.398   .     A
C529   C531    1.387   .     A
C530   C541    1.396   .     A
C530   C533    1.382   .     A
C530   H604    1.084   .     S
C531   C534    1.407   .     A
C531   C542    1.509   .     S
C532   O641    1.290   .     A
C532   C535    1.439   .     S
C532   O643    1.286   .     A
C533   C544    1.500   .     S
C533   C535    1.407   .     A
C534   C536    1.404   .     A
C535   C537    1.412   .     A
C536   C545    1.510   .     S
C536   C538    1.385   .     A
C537   C546    1.509   .     S
C537   C539    1.390   .     A
C538   C540    1.400   .     A
C538   H615    1.084   .     S
C539   C541    1.398   .     A
C539   H626    1.084   .     S
C541   C150    1.450   1_565 S
C542   H573    1.110   .     S
C542   H632    1.108   .     S
C542   H572    1.105   .     S
C543   C565    1.425   .     A
C543   O648    1.388   .     S
C544   H575    1.111   .     S
C544   H574    1.107   .     S
C544   H576    1.111   .     S
C545   H577    1.110   .     S
C545   H578    1.110   .     S
C545   H579    1.111   .     S
C546   H583    1.110   .     S
C546   H581    1.109   .     S
C546   H580    1.111   .     S
C547   H584    1.111   .     S
C547   H1365   1.112   .     S
C547   O1428   1.416   .     S
C548   C549    1.525   .     S
C548   H587    1.108   .     S
C548   C677    1.531   .     S
C548   H1366   1.109   .     S
C549   H589    1.110   .     S
C549   H588    1.111   .     S
C549   H590    1.109   .     S
C550   H591    1.116   .     S
C550   O636    1.411   .     S
C550   H592    1.114   .     S
C550   C1331   1.527   .     S
C551   H594    1.112   .     S
C551   C1330   1.527   1_554 S
C551   C1332   1.526   1_554 S
C551   H1375   1.112   1_554 S
C552   H596    1.111   .     S
C552   C1331   1.526   .     S
C552   H1377   1.110   .     S
C552   H1378   1.111   .     S
C553   O637    1.418   .     S
C553   H599    1.109   .     S
C553   H600    1.116   .     S
C553   C555    1.529   .     S
C554   O636    1.382   .     S
C554   C567    1.421   .     A
C555   C556    1.526   .     S
C555   H601    1.111   .     S
C555   H602    1.110   .     S
C556   H603    1.111   .     S
C556   H606    1.111   .     S
C557   H608    1.112   .     S
C557   O638    1.413   .     S
C557   C558    1.526   .     S
C557   H607    1.115   .     S
C558   H609    1.112   .     S
C558   H610    1.112   .     S
C558   C689    1.528   .     S
C559   H613    1.111   .     S
C559   H611    1.111   .     S
C559   H612    1.109   .     S
C560   H616    1.114   .     S
C560   C561    1.531   .     S
C560   H614    1.105   .     S
C560   O639    1.421   .     S
C561   H618    1.106   .     S
C561   C692    1.527   .     S
C561   H747    1.106   .     S
C562   H620    1.110   .     S
C562   H621    1.111   .     S
C562   H619    1.111   .     S
C563   O640    1.417   .     S
C563   C564    1.529   .     S
C563   H622    1.111   .     S
C563   H623    1.112   .     S
C564   H625    1.112   .     S
C564   C566    1.526   .     S
C564   H624    1.111   .     S
C565   O637    1.382   .     S
C565   N633    1.376   .     A
C566   H628    1.110   .     S
C566   H627    1.110   .     S
C567   N634    1.372   .     A
C567   O638    1.381   .     S
C568   C570    1.425   .     A
C568   O639    1.396   .     S
C568   N633    1.378   .     A
C569   O640    1.384   .     S
C569   N634    1.372   .     A
C570   H630    1.078   .     S
H571   C657    1.086   .     S
H585   C1327   1.112   1_554 S
H586   C1328   1.109   1_554 S
H595   C1331   1.112   .     S
H597   C1332   1.110   1_554 S
H598   C1332   1.111   1_554 S
H605   C686    1.110   .     S
H629   C696    1.109   .     S
N633   Zn650   2.015   .     S
N634   Zn649   2.015   .     S
O635   Zn649   2.002   .     S
O641   Zn650   2.002   .     S
O642   Zn650   1.989   .     S
O643   Zn649   1.989   .     S
O644   Zn649   1.953   .     S
O645   Zn650   1.953   .     S
O646   Zn650   1.972   .     S
O647   Zn649   1.972   .     S
O648   C1327   1.416   1_554 S
C651   O772    1.287   .     A
C651   C664    1.424   .     S
C651   O765    1.281   .     A
C652   H761    1.083   .     S
C652   C699    1.420   .     A
C652   C654    1.401   .     A
C653   C673    1.411   .     A
C653   C700    1.401   .     A
C653   C1434   1.515   1_554 S
C654   C684    1.409   .     A
C654   C1433   1.515   .     S
C655   O776    1.285   .     A
C655   C657    1.399   .     S
C655   O774    1.275   .     A
C656   O777    1.283   .     A
C656   C658    1.398   .     S
C656   O775    1.277   .     A
C658   C397    1.333   1_655 S
C658   H452    1.088   1_655 S
C659   H723    1.083   .     S
C659   C670    1.398   .     A
C659   C661    1.387   .     A
C660   C671    1.396   .     A
C660   C663    1.382   .     A
C660   H734    1.084   .     S
C661   C664    1.407   .     A
C661   C672    1.509   .     S
C662   O771    1.290   .     A
C662   C665    1.439   .     S
C662   O773    1.286   .     A
C663   C674    1.500   .     S
C663   C665    1.407   .     A
C664   C666    1.404   .     A
C665   C667    1.412   .     A
C666   C675    1.510   .     S
C666   C668    1.385   .     A
C667   C676    1.509   .     S
C667   C669    1.390   .     A
C668   C670    1.400   .     A
C668   H745    1.084   .     S
C669   C671    1.398   .     A
C669   H756    1.084   .     S
C671   C280    1.450   1_565 S
C672   H703    1.110   .     S
C672   H762    1.108   .     S
C672   H702    1.105   .     S
C673   C695    1.425   .     A
C673   O778    1.388   .     S
C674   H705    1.111   .     S
C674   H704    1.107   .     S
C674   H706    1.111   .     S
C675   H707    1.110   .     S
C675   H708    1.110   .     S
C675   H709    1.111   .     S
C676   H713    1.110   .     S
C676   H711    1.109   .     S
C676   H710    1.111   .     S
C677   H714    1.111   .     S
C677   H1495   1.112   .     S
C677   O1558   1.416   .     S
C678   C679    1.525   .     S
C678   H717    1.108   .     S
C678   C417    1.531   1_655 S
C678   H1496   1.109   .     S
C679   H719    1.110   .     S
C679   H718    1.111   .     S
C679   H720    1.109   .     S
C680   H721    1.116   .     S
C680   O766    1.411   .     S
C680   H722    1.114   .     S
C680   C1461   1.527   .     S
C681   H724    1.112   .     S
C681   C1460   1.527   1_554 S
C681   C1462   1.526   1_554 S
C681   H1505   1.112   1_554 S
C682   H726    1.111   .     S
C682   C1461   1.526   .     S
C682   H1507   1.110   .     S
C682   H1508   1.111   .     S
C683   O767    1.418   .     S
C683   H729    1.109   .     S
C683   H730    1.116   .     S
C683   C685    1.529   .     S
C684   O766    1.382   .     S
C684   C697    1.421   .     A
C685   C686    1.526   .     S
C685   H731    1.111   .     S
C685   H732    1.110   .     S
C686   H733    1.111   .     S
C686   H736    1.111   .     S
C687   H738    1.112   .     S
C687   O768    1.413   .     S
C687   C688    1.526   .     S
C687   H737    1.115   .     S
C688   H739    1.112   .     S
C688   H740    1.112   .     S
C688   C429    1.528   1_655 S
C689   H743    1.111   .     S
C689   H741    1.111   .     S
C689   H742    1.109   .     S
C690   H746    1.114   .     S
C690   C691    1.531   .     S
C690   H744    1.105   .     S
C690   O769    1.421   .     S
C691   H748    1.106   .     S
C691   C432    1.527   1_655 S
C691   H487    1.106   1_655 S
C692   H750    1.110   .     S
C692   H751    1.111   .     S
C692   H749    1.111   .     S
C693   O770    1.417   .     S
C693   C694    1.529   .     S
C693   H752    1.111   .     S
C693   H753    1.112   .     S
C694   H755    1.112   .     S
C694   C696    1.526   .     S
C694   H754    1.111   .     S
C695   O767    1.382   .     S
C695   N763    1.376   .     A
C696   H758    1.110   .     S
C696   H757    1.110   .     S
C697   N764    1.372   .     A
C697   O768    1.381   .     S
C698   C700    1.425   .     A
C698   O769    1.396   .     S
C698   N763    1.378   .     A
C699   O770    1.384   .     S
C699   N764    1.372   .     A
C700   H760    1.078   .     S
H701   C397    1.086   1_655 S
H715   C1457   1.112   1_554 S
H716   C1458   1.109   1_554 S
H725   C1461   1.112   .     S
H727   C1462   1.110   1_554 S
H728   C1462   1.111   1_554 S
H735   C426    1.110   1_655 S
H759   C436    1.109   1_655 S
N763   Zn780   2.015   .     S
N764   Zn779   2.015   .     S
O765   Zn779   2.002   .     S
O771   Zn780   2.002   .     S
O772   Zn780   1.989   .     S
O773   Zn779   1.989   .     S
O774   Zn779   1.953   .     S
O775   Zn780   1.953   .     S
O776   Zn780   1.972   .     S
O777   Zn779   1.972   .     S
O778   C1457   1.416   1_554 S
C781   O902    1.287   .     A
C781   C794    1.424   .     S
C781   O895    1.281   .     A
C782   H891    1.083   .     S
C782   C829    1.420   .     A
C782   C784    1.401   .     A
C783   C803    1.411   .     A
C783   C830    1.401   .     A
C784   C814    1.409   .     A
C784   C3      1.515   1_556 S
C785   O906    1.285   .     A
C785   C787    1.399   .     S
C785   O904    1.275   .     A
C786   O907    1.283   .     A
C786   C788    1.398   .     S
C786   O905    1.277   .     A
C787   C1048   1.333   1_455 S
C787   H1091   1.086   1_455 S
C788   C917    1.333   .     S
C788   H972    1.088   .     S
C789   H853    1.083   .     S
C789   C800    1.398   .     A
C789   C791    1.387   .     A
C790   C801    1.396   .     A
C790   C793    1.382   .     A
C790   H864    1.084   .     S
C791   C794    1.407   .     A
C791   C802    1.509   .     S
C792   O901    1.290   .     A
C792   C795    1.439   .     S
C792   O903    1.286   .     A
C793   C804    1.500   .     S
C793   C795    1.407   .     A
C794   C796    1.404   .     A
C795   C797    1.412   .     A
C796   C805    1.510   .     S
C796   C798    1.385   .     A
C797   C806    1.509   .     S
C797   C799    1.390   .     A
C798   C800    1.400   .     A
C798   H875    1.084   .     S
C799   C801    1.398   .     A
C799   H886    1.084   .     S
C800   C1191   1.450   1_545 S
C801   C1190   1.450   .     S
C802   H833    1.110   .     S
C802   H892    1.108   .     S
C802   H832    1.105   .     S
C803   C825    1.425   .     A
C803   O908    1.388   .     S
C804   H835    1.111   .     S
C804   H834    1.107   .     S
C804   H836    1.111   .     S
C805   H837    1.110   .     S
C805   H838    1.110   .     S
C805   H839    1.111   .     S
C806   H843    1.110   .     S
C806   H841    1.109   .     S
C806   H840    1.111   .     S
C807   H844    1.111   .     S
C807   C1068   1.531   1_455 S
C807   H65     1.112   1_556 S
C807   O128    1.416   1_556 S
C808   C809    1.525   .     S
C808   H847    1.108   .     S
C808   C937    1.531   .     S
C808   H66     1.109   1_556 S
C809   H849    1.110   .     S
C809   H848    1.111   .     S
C809   H850    1.109   .     S
C810   H851    1.116   .     S
C810   O896    1.411   .     S
C810   H852    1.114   .     S
C810   C31     1.527   1_556 S
C811   H854    1.112   .     S
C812   H856    1.111   .     S
C812   C31     1.526   1_556 S
C812   H77     1.110   1_556 S
C812   H78     1.111   1_556 S
C813   O897    1.418   .     S
C813   H859    1.109   .     S
C813   H860    1.116   .     S
C813   C815    1.529   .     S
C814   O896    1.382   .     S
C814   C827    1.421   .     A
C815   C816    1.526   .     S
C815   H861    1.111   .     S
C815   H862    1.110   .     S
C816   H863    1.111   .     S
C816   H866    1.111   .     S
C816   H1125   1.110   1_455 S
C817   H868    1.112   .     S
C817   O898    1.413   .     S
C817   C818    1.526   .     S
C817   H867    1.115   .     S
C818   H869    1.112   .     S
C818   H870    1.112   .     S
C818   C949    1.528   .     S
C819   H873    1.111   .     S
C819   H871    1.111   .     S
C819   H872    1.109   .     S
C819   C1078   1.528   1_455 S
C820   H876    1.114   .     S
C820   C821    1.531   .     S
C820   H874    1.105   .     S
C820   O899    1.421   .     S
C821   H878    1.106   .     S
C821   C952    1.527   .     S
C821   H1007   1.106   .     S
C822   H880    1.110   .     S
C822   H881    1.111   .     S
C822   H879    1.111   .     S
C822   C1081   1.527   1_455 S
C823   O900    1.417   .     S
C823   C824    1.529   .     S
C823   H882    1.111   .     S
C823   H883    1.112   .     S
C824   H885    1.112   .     S
C824   C826    1.526   .     S
C824   H884    1.111   .     S
C825   O897    1.382   .     S
C825   N893    1.376   .     A
C826   H888    1.110   .     S
C826   H887    1.110   .     S
C826   H1149   1.109   1_455 S
C827   N894    1.372   .     A
C827   O898    1.381   .     S
C828   C830    1.425   .     A
C828   O899    1.396   .     S
C828   N893    1.378   .     A
C829   O900    1.384   .     S
C829   N894    1.372   .     A
C830   H890    1.078   .     S
H831   C917    1.086   .     S
H842   C1048   1.088   1_455 S
H855   C31     1.112   1_556 S
H865   C946    1.110   .     S
H877   C1081   1.106   1_455 S
H889   C956    1.109   .     S
N893   Zn910   2.015   .     S
N894   Zn909   2.015   .     S
O895   Zn909   2.002   .     S
O901   Zn910   2.002   .     S
O902   Zn910   1.989   .     S
O903   Zn909   1.989   .     S
O904   Zn909   1.953   .     S
O905   Zn910   1.953   .     S
O906   Zn910   1.972   .     S
O907   Zn909   1.972   .     S
C911   O1032   1.287   .     A
C911   C924    1.424   .     S
C911   O1025   1.281   .     A
C912   H1021   1.083   .     S
C912   C959    1.420   .     A
C912   C914    1.401   .     A
C913   C933    1.411   .     A
C913   C960    1.401   .     A
C914   C944    1.409   .     A
C914   C133    1.515   1_556 S
C915   O1036   1.285   .     A
C915   C917    1.399   .     S
C915   O1034   1.275   .     A
C916   O1037   1.283   .     A
C916   C918    1.398   .     S
C916   O1035   1.277   .     A
C918   C1047   1.333   .     S
C918   H1102   1.088   .     S
C919   H983    1.083   .     S
C919   C930    1.398   .     A
C919   C921    1.387   .     A
C920   C931    1.396   .     A
C920   C923    1.382   .     A
C920   H994    1.084   .     S
C921   C924    1.407   .     A
C921   C932    1.509   .     S
C922   O1031   1.290   .     A
C922   C925    1.439   .     S
C922   O1033   1.286   .     A
C923   C934    1.500   .     S
C923   C925    1.407   .     A
C924   C926    1.404   .     A
C925   C927    1.412   .     A
C926   C935    1.510   .     S
C926   C928    1.385   .     A
C927   C936    1.509   .     S
C927   C929    1.390   .     A
C928   C930    1.400   .     A
C928   H1005   1.084   .     S
C929   C931    1.398   .     A
C929   H1016   1.084   .     S
C930   C1321   1.450   1_545 S
C931   C1320   1.450   .     S
C932   H963    1.110   .     S
C932   H1022   1.108   .     S
C932   H962    1.105   .     S
C933   C955    1.425   .     A
C933   O1038   1.388   .     S
C934   H965    1.111   .     S
C934   H964    1.107   .     S
C934   H966    1.111   .     S
C935   H967    1.110   .     S
C935   H968    1.110   .     S
C935   H969    1.111   .     S
C936   H973    1.110   .     S
C936   H971    1.109   .     S
C936   H970    1.111   .     S
C937   H974    1.111   .     S
C937   H195    1.112   1_556 S
C937   O258    1.416   1_556 S
C938   C939    1.525   .     S
C938   H977    1.108   .     S
C938   C1067   1.531   .     S
C938   H196    1.109   1_556 S
C939   H979    1.110   .     S
C939   H978    1.111   .     S
C939   H980    1.109   .     S
C940   H981    1.116   .     S
C940   O1026   1.411   .     S
C940   H982    1.114   .     S
C940   C161    1.527   1_556 S
C941   H984    1.112   .     S
C942   H986    1.111   .     S
C942   C161    1.526   1_556 S
C942   H207    1.110   1_556 S
C942   H208    1.111   1_556 S
C943   O1027   1.418   .     S
C943   H989    1.109   .     S
C943   H990    1.116   .     S
C943   C945    1.529   .     S
C944   O1026   1.382   .     S
C944   C957    1.421   .     A
C945   C946    1.526   .     S
C945   H991    1.111   .     S
C945   H992    1.110   .     S
C946   H993    1.111   .     S
C946   H996    1.111   .     S
C947   H998    1.112   .     S
C947   O1028   1.413   .     S
C947   C948    1.526   .     S
C947   H997    1.115   .     S
C948   H999    1.112   .     S
C948   H1000   1.112   .     S
C948   C1079   1.528   .     S
C949   H1003   1.111   .     S
C949   H1001   1.111   .     S
C949   H1002   1.109   .     S
C950   H1006   1.114   .     S
C950   C951    1.531   .     S
C950   H1004   1.105   .     S
C950   O1029   1.421   .     S
C951   H1008   1.106   .     S
C951   C1082   1.527   .     S
C951   H1137   1.106   .     S
C952   H1010   1.110   .     S
C952   H1011   1.111   .     S
C952   H1009   1.111   .     S
C953   O1030   1.417   .     S
C953   C954    1.529   .     S
C953   H1012   1.111   .     S
C953   H1013   1.112   .     S
C954   H1015   1.112   .     S
C954   C956    1.526   .     S
C954   H1014   1.111   .     S
C955   O1027   1.382   .     S
C955   N1023   1.376   .     A
C956   H1018   1.110   .     S
C956   H1017   1.110   .     S
C957   N1024   1.372   .     A
C957   O1028   1.381   .     S
C958   C960    1.425   .     A
C958   O1029   1.396   .     S
C958   N1023   1.378   .     A
C959   O1030   1.384   .     S
C959   N1024   1.372   .     A
C960   H1020   1.078   .     S
H961   C1047   1.086   .     S
H985   C161    1.112   1_556 S
H995   C1076   1.110   .     S
H1019  C1086   1.109   .     S
N1023  Zn1040  2.015   .     S
N1024  Zn1039  2.015   .     S
O1025  Zn1039  2.002   .     S
O1031  Zn1040  2.002   .     S
O1032  Zn1040  1.989   .     S
O1033  Zn1039  1.989   .     S
O1034  Zn1039  1.953   .     S
O1035  Zn1040  1.953   .     S
O1036  Zn1040  1.972   .     S
O1037  Zn1039  1.972   .     S
C1041  O1162   1.287   .     A
C1041  C1054   1.424   .     S
C1041  O1155   1.281   .     A
C1042  H1151   1.083   .     S
C1042  C1089   1.420   .     A
C1042  C1044   1.401   .     A
C1043  C1063   1.411   .     A
C1043  C1090   1.401   .     A
C1044  C1074   1.409   .     A
C1044  C263    1.515   1_556 S
C1045  O1166   1.285   .     A
C1045  C1047   1.399   .     S
C1045  O1164   1.275   .     A
C1046  O1167   1.283   .     A
C1046  C1048   1.398   .     S
C1046  O1165   1.277   .     A
C1048  C787    1.333   1_655 S
C1048  H842    1.088   1_655 S
C1049  H1113   1.083   .     S
C1049  C1060   1.398   .     A
C1049  C1051   1.387   .     A
C1050  C1061   1.396   .     A
C1050  C1053   1.382   .     A
C1050  H1124   1.084   .     S
C1051  C1054   1.407   .     A
C1051  C1062   1.509   .     S
C1052  O1161   1.290   .     A
C1052  C1055   1.439   .     S
C1052  O1163   1.286   .     A
C1053  C1064   1.500   .     S
C1053  C1055   1.407   .     A
C1054  C1056   1.404   .     A
C1055  C1057   1.412   .     A
C1056  C1065   1.510   .     S
C1056  C1058   1.385   .     A
C1057  C1066   1.509   .     S
C1057  C1059   1.390   .     A
C1058  C1060   1.400   .     A
C1058  H1135   1.084   .     S
C1059  C1061   1.398   .     A
C1059  H1146   1.084   .     S
C1060  C1451   1.450   1_545 S
C1061  C1450   1.450   .     S
C1062  H1093   1.110   .     S
C1062  H1152   1.108   .     S
C1062  H1092   1.105   .     S
C1063  C1085   1.425   .     A
C1063  O1168   1.388   .     S
C1064  H1095   1.111   .     S
C1064  H1094   1.107   .     S
C1064  H1096   1.111   .     S
C1065  H1097   1.110   .     S
C1065  H1098   1.110   .     S
C1065  H1099   1.111   .     S
C1066  H1103   1.110   .     S
C1066  H1101   1.109   .     S
C1066  H1100   1.111   .     S
C1067  H1104   1.111   .     S
C1067  H325    1.112   1_556 S
C1067  O388    1.416   1_556 S
C1068  C1069   1.525   .     S
C1068  H1107   1.108   .     S
C1068  C807    1.531   1_655 S
C1068  H326    1.109   1_556 S
C1069  H1109   1.110   .     S
C1069  H1108   1.111   .     S
C1069  H1110   1.109   .     S
C1070  H1111   1.116   .     S
C1070  O1156   1.411   .     S
C1070  H1112   1.114   .     S
C1070  C291    1.527   1_556 S
C1071  H1114   1.112   .     S
C1072  H1116   1.111   .     S
C1072  C291    1.526   1_556 S
C1072  H337    1.110   1_556 S
C1072  H338    1.111   1_556 S
C1073  O1157   1.418   .     S
C1073  H1119   1.109   .     S
C1073  H1120   1.116   .     S
C1073  C1075   1.529   .     S
C1074  O1156   1.382   .     S
C1074  C1087   1.421   .     A
C1075  C1076   1.526   .     S
C1075  H1121   1.111   .     S
C1075  H1122   1.110   .     S
C1076  H1123   1.111   .     S
C1076  H1126   1.111   .     S
C1077  H1128   1.112   .     S
C1077  O1158   1.413   .     S
C1077  C1078   1.526   .     S
C1077  H1127   1.115   .     S
C1078  H1129   1.112   .     S
C1078  H1130   1.112   .     S
C1078  C819    1.528   1_655 S
C1079  H1133   1.111   .     S
C1079  H1131   1.111   .     S
C1079  H1132   1.109   .     S
C1080  H1136   1.114   .     S
C1080  C1081   1.531   .     S
C1080  H1134   1.105   .     S
C1080  O1159   1.421   .     S
C1081  H1138   1.106   .     S
C1081  C822    1.527   1_655 S
C1081  H877    1.106   1_655 S
C1082  H1140   1.110   .     S
C1082  H1141   1.111   .     S
C1082  H1139   1.111   .     S
C1083  O1160   1.417   .     S
C1083  C1084   1.529   .     S
C1083  H1142   1.111   .     S
C1083  H1143   1.112   .     S
C1084  H1145   1.112   .     S
C1084  C1086   1.526   .     S
C1084  H1144   1.111   .     S
C1085  O1157   1.382   .     S
C1085  N1153   1.376   .     A
C1086  H1148   1.110   .     S
C1086  H1147   1.110   .     S
C1087  N1154   1.372   .     A
C1087  O1158   1.381   .     S
C1088  C1090   1.425   .     A
C1088  O1159   1.396   .     S
C1088  N1153   1.378   .     A
C1089  O1160   1.384   .     S
C1089  N1154   1.372   .     A
C1090  H1150   1.078   .     S
H1091  C787    1.086   1_655 S
H1115  C291    1.112   1_556 S
H1125  C816    1.110   1_655 S
H1149  C826    1.109   1_655 S
N1153  Zn1170  2.015   .     S
N1154  Zn1169  2.015   .     S
O1155  Zn1169  2.002   .     S
O1161  Zn1170  2.002   .     S
O1162  Zn1170  1.989   .     S
O1163  Zn1169  1.989   .     S
O1164  Zn1169  1.953   .     S
O1165  Zn1170  1.953   .     S
O1166  Zn1170  1.972   .     S
O1167  Zn1169  1.972   .     S
C1171  O1292   1.287   .     A
C1171  C1184   1.424   .     S
C1171  O1285   1.281   .     A
C1172  H1281   1.083   .     S
C1172  C1219   1.420   .     A
C1172  C1174   1.401   .     A
C1173  C1193   1.411   .     A
C1173  C1220   1.401   .     A
C1174  C1204   1.409   .     A
C1174  C393    1.515   1_556 S
C1175  O1296   1.285   .     A
C1175  C1177   1.399   .     S
C1175  O1294   1.275   .     A
C1176  O1297   1.283   .     A
C1176  C1178   1.398   .     S
C1176  O1295   1.277   .     A
C1177  C1438   1.333   1_455 S
C1177  H1481   1.086   1_455 S
C1178  C1307   1.333   .     S
C1178  H1362   1.088   .     S
C1179  H1243   1.083   .     S
C1179  C1190   1.398   .     A
C1179  C1181   1.387   .     A
C1180  C1191   1.396   .     A
C1180  C1183   1.382   .     A
C1180  H1254   1.084   .     S
C1181  C1184   1.407   .     A
C1181  C1192   1.509   .     S
C1182  O1291   1.290   .     A
C1182  C1185   1.439   .     S
C1182  O1293   1.286   .     A
C1183  C1194   1.500   .     S
C1183  C1185   1.407   .     A
C1184  C1186   1.404   .     A
C1185  C1187   1.412   .     A
C1186  C1195   1.510   .     S
C1186  C1188   1.385   .     A
C1187  C1196   1.509   .     S
C1187  C1189   1.390   .     A
C1188  C1190   1.400   .     A
C1188  H1265   1.084   .     S
C1189  C1191   1.398   .     A
C1189  H1276   1.084   .     S
C1191  C800    1.450   1_565 S
C1192  H1223   1.110   .     S
C1192  H1282   1.108   .     S
C1192  H1222   1.105   .     S
C1193  C1215   1.425   .     A
C1193  O1298   1.388   .     S
C1194  H1225   1.111   .     S
C1194  H1224   1.107   .     S
C1194  H1226   1.111   .     S
C1195  H1227   1.110   .     S
C1195  H1228   1.110   .     S
C1195  H1229   1.111   .     S
C1196  H1233   1.110   .     S
C1196  H1231   1.109   .     S
C1196  H1230   1.111   .     S
C1197  H1234   1.111   .     S
C1197  C1458   1.531   1_455 S
C1197  H455    1.112   1_556 S
C1197  O518    1.416   1_556 S
C1198  C1199   1.525   .     S
C1198  H1237   1.108   .     S
C1198  C1327   1.531   .     S
C1198  H456    1.109   1_556 S
C1199  H1239   1.110   .     S
C1199  H1238   1.111   .     S
C1199  H1240   1.109   .     S
C1200  H1241   1.116   .     S
C1200  O1286   1.411   .     S
C1200  H1242   1.114   .     S
C1200  C421    1.527   1_556 S
C1201  H1244   1.112   .     S
C1202  H1246   1.111   .     S
C1202  C421    1.526   1_556 S
C1202  H467    1.110   1_556 S
C1202  H468    1.111   1_556 S
C1203  O1287   1.418   .     S
C1203  H1249   1.109   .     S
C1203  H1250   1.116   .     S
C1203  C1205   1.529   .     S
C1204  O1286   1.382   .     S
C1204  C1217   1.421   .     A
C1205  C1206   1.526   .     S
C1205  H1251   1.111   .     S
C1205  H1252   1.110   .     S
C1206  H1253   1.111   .     S
C1206  H1256   1.111   .     S
C1206  H1515   1.110   1_455 S
C1207  H1258   1.112   .     S
C1207  O1288   1.413   .     S
C1207  C1208   1.526   .     S
C1207  H1257   1.115   .     S
C1208  H1259   1.112   .     S
C1208  H1260   1.112   .     S
C1208  C1339   1.528   .     S
C1209  H1263   1.111   .     S
C1209  H1261   1.111   .     S
C1209  H1262   1.109   .     S
C1209  C1468   1.528   1_455 S
C1210  H1266   1.114   .     S
C1210  C1211   1.531   .     S
C1210  H1264   1.105   .     S
C1210  O1289   1.421   .     S
C1211  H1268   1.106   .     S
C1211  C1342   1.527   .     S
C1211  H1397   1.106   .     S
C1212  H1270   1.110   .     S
C1212  H1271   1.111   .     S
C1212  H1269   1.111   .     S
C1212  C1471   1.527   1_455 S
C1213  O1290   1.417   .     S
C1213  C1214   1.529   .     S
C1213  H1272   1.111   .     S
C1213  H1273   1.112   .     S
C1214  H1275   1.112   .     S
C1214  C1216   1.526   .     S
C1214  H1274   1.111   .     S
C1215  O1287   1.382   .     S
C1215  N1283   1.376   .     A
C1216  H1278   1.110   .     S
C1216  H1277   1.110   .     S
C1216  H1539   1.109   1_455 S
C1217  N1284   1.372   .     A
C1217  O1288   1.381   .     S
C1218  C1220   1.425   .     A
C1218  O1289   1.396   .     S
C1218  N1283   1.378   .     A
C1219  O1290   1.384   .     S
C1219  N1284   1.372   .     A
C1220  H1280   1.078   .     S
H1221  C1307   1.086   .     S
H1232  C1438   1.088   1_455 S
H1245  C421    1.112   1_556 S
H1255  C1336   1.110   .     S
H1267  C1471   1.106   1_455 S
H1279  C1346   1.109   .     S
N1283  Zn1300  2.015   .     S
N1284  Zn1299  2.015   .     S
O1285  Zn1299  2.002   .     S
O1291  Zn1300  2.002   .     S
O1292  Zn1300  1.989   .     S
O1293  Zn1299  1.989   .     S
O1294  Zn1299  1.953   .     S
O1295  Zn1300  1.953   .     S
O1296  Zn1300  1.972   .     S
O1297  Zn1299  1.972   .     S
C1301  O1422   1.287   .     A
C1301  C1314   1.424   .     S
C1301  O1415   1.281   .     A
C1302  H1411   1.083   .     S
C1302  C1349   1.420   .     A
C1302  C1304   1.401   .     A
C1303  C1323   1.411   .     A
C1303  C1350   1.401   .     A
C1304  C1334   1.409   .     A
C1304  C523    1.515   1_556 S
C1305  O1426   1.285   .     A
C1305  C1307   1.399   .     S
C1305  O1424   1.275   .     A
C1306  O1427   1.283   .     A
C1306  C1308   1.398   .     S
C1306  O1425   1.277   .     A
C1308  C1437   1.333   .     S
C1308  H1492   1.088   .     S
C1309  H1373   1.083   .     S
C1309  C1320   1.398   .     A
C1309  C1311   1.387   .     A
C1310  C1321   1.396   .     A
C1310  C1313   1.382   .     A
C1310  H1384   1.084   .     S
C1311  C1314   1.407   .     A
C1311  C1322   1.509   .     S
C1312  O1421   1.290   .     A
C1312  C1315   1.439   .     S
C1312  O1423   1.286   .     A
C1313  C1324   1.500   .     S
C1313  C1315   1.407   .     A
C1314  C1316   1.404   .     A
C1315  C1317   1.412   .     A
C1316  C1325   1.510   .     S
C1316  C1318   1.385   .     A
C1317  C1326   1.509   .     S
C1317  C1319   1.390   .     A
C1318  C1320   1.400   .     A
C1318  H1395   1.084   .     S
C1319  C1321   1.398   .     A
C1319  H1406   1.084   .     S
C1321  C930    1.450   1_565 S
C1322  H1353   1.110   .     S
C1322  H1412   1.108   .     S
C1322  H1352   1.105   .     S
C1323  C1345   1.425   .     A
C1323  O1428   1.388   .     S
C1324  H1355   1.111   .     S
C1324  H1354   1.107   .     S
C1324  H1356   1.111   .     S
C1325  H1357   1.110   .     S
C1325  H1358   1.110   .     S
C1325  H1359   1.111   .     S
C1326  H1363   1.110   .     S
C1326  H1361   1.109   .     S
C1326  H1360   1.111   .     S
C1327  H1364   1.111   .     S
C1327  H585    1.112   1_556 S
C1327  O648    1.416   1_556 S
C1328  C1329   1.525   .     S
C1328  H1367   1.108   .     S
C1328  C1457   1.531   .     S
C1328  H586    1.109   1_556 S
C1329  H1369   1.110   .     S
C1329  H1368   1.111   .     S
C1329  H1370   1.109   .     S
C1330  H1371   1.116   .     S
C1330  O1416   1.411   .     S
C1330  H1372   1.114   .     S
C1330  C551    1.527   1_556 S
C1331  H1374   1.112   .     S
C1332  H1376   1.111   .     S
C1332  C551    1.526   1_556 S
C1332  H597    1.110   1_556 S
C1332  H598    1.111   1_556 S
C1333  O1417   1.418   .     S
C1333  H1379   1.109   .     S
C1333  H1380   1.116   .     S
C1333  C1335   1.529   .     S
C1334  O1416   1.382   .     S
C1334  C1347   1.421   .     A
C1335  C1336   1.526   .     S
C1335  H1381   1.111   .     S
C1335  H1382   1.110   .     S
C1336  H1383   1.111   .     S
C1336  H1386   1.111   .     S
C1337  H1388   1.112   .     S
C1337  O1418   1.413   .     S
C1337  C1338   1.526   .     S
C1337  H1387   1.115   .     S
C1338  H1389   1.112   .     S
C1338  H1390   1.112   .     S
C1338  C1469   1.528   .     S
C1339  H1393   1.111   .     S
C1339  H1391   1.111   .     S
C1339  H1392   1.109   .     S
C1340  H1396   1.114   .     S
C1340  C1341   1.531   .     S
C1340  H1394   1.105   .     S
C1340  O1419   1.421   .     S
C1341  H1398   1.106   .     S
C1341  C1472   1.527   .     S
C1341  H1527   1.106   .     S
C1342  H1400   1.110   .     S
C1342  H1401   1.111   .     S
C1342  H1399   1.111   .     S
C1343  O1420   1.417   .     S
C1343  C1344   1.529   .     S
C1343  H1402   1.111   .     S
C1343  H1403   1.112   .     S
C1344  H1405   1.112   .     S
C1344  C1346   1.526   .     S
C1344  H1404   1.111   .     S
C1345  O1417   1.382   .     S
C1345  N1413   1.376   .     A
C1346  H1408   1.110   .     S
C1346  H1407   1.110   .     S
C1347  N1414   1.372   .     A
C1347  O1418   1.381   .     S
C1348  C1350   1.425   .     A
C1348  O1419   1.396   .     S
C1348  N1413   1.378   .     A
C1349  O1420   1.384   .     S
C1349  N1414   1.372   .     A
C1350  H1410   1.078   .     S
H1351  C1437   1.086   .     S
H1375  C551    1.112   1_556 S
H1385  C1466   1.110   .     S
H1409  C1476   1.109   .     S
N1413  Zn1430  2.015   .     S
N1414  Zn1429  2.015   .     S
O1415  Zn1429  2.002   .     S
O1421  Zn1430  2.002   .     S
O1422  Zn1430  1.989   .     S
O1423  Zn1429  1.989   .     S
O1424  Zn1429  1.953   .     S
O1425  Zn1430  1.953   .     S
O1426  Zn1430  1.972   .     S
O1427  Zn1429  1.972   .     S
C1431  O1552   1.287   .     A
C1431  C1444   1.424   .     S
C1431  O1545   1.281   .     A
C1432  H1541   1.083   .     S
C1432  C1479   1.420   .     A
C1432  C1434   1.401   .     A
C1433  C1453   1.411   .     A
C1433  C1480   1.401   .     A
C1434  C1464   1.409   .     A
C1434  C653    1.515   1_556 S
C1435  O1556   1.285   .     A
C1435  C1437   1.399   .     S
C1435  O1554   1.275   .     A
C1436  O1557   1.283   .     A
C1436  C1438   1.398   .     S
C1436  O1555   1.277   .     A
C1438  C1177   1.333   1_655 S
C1438  H1232   1.088   1_655 S
C1439  H1503   1.083   .     S
C1439  C1450   1.398   .     A
C1439  C1441   1.387   .     A
C1440  C1451   1.396   .     A
C1440  C1443   1.382   .     A
C1440  H1514   1.084   .     S
C1441  C1444   1.407   .     A
C1441  C1452   1.509   .     S
C1442  O1551   1.290   .     A
C1442  C1445   1.439   .     S
C1442  O1553   1.286   .     A
C1443  C1454   1.500   .     S
C1443  C1445   1.407   .     A
C1444  C1446   1.404   .     A
C1445  C1447   1.412   .     A
C1446  C1455   1.510   .     S
C1446  C1448   1.385   .     A
C1447  C1456   1.509   .     S
C1447  C1449   1.390   .     A
C1448  C1450   1.400   .     A
C1448  H1525   1.084   .     S
C1449  C1451   1.398   .     A
C1449  H1536   1.084   .     S
C1451  C1060   1.450   1_565 S
C1452  H1483   1.110   .     S
C1452  H1542   1.108   .     S
C1452  H1482   1.105   .     S
C1453  C1475   1.425   .     A
C1453  O1558   1.388   .     S
C1454  H1485   1.111   .     S
C1454  H1484   1.107   .     S
C1454  H1486   1.111   .     S
C1455  H1487   1.110   .     S
C1455  H1488   1.110   .     S
C1455  H1489   1.111   .     S
C1456  H1493   1.110   .     S
C1456  H1491   1.109   .     S
C1456  H1490   1.111   .     S
C1457  H1494   1.111   .     S
C1457  H715    1.112   1_556 S
C1457  O778    1.416   1_556 S
C1458  C1459   1.525   .     S
C1458  H1497   1.108   .     S
C1458  C1197   1.531   1_655 S
C1458  H716    1.109   1_556 S
C1459  H1499   1.110   .     S
C1459  H1498   1.111   .     S
C1459  H1500   1.109   .     S
C1460  H1501   1.116   .     S
C1460  O1546   1.411   .     S
C1460  H1502   1.114   .     S
C1460  C681    1.527   1_556 S
C1461  H1504   1.112   .     S
C1462  H1506   1.111   .     S
C1462  C681    1.526   1_556 S
C1462  H727    1.110   1_556 S
C1462  H728    1.111   1_556 S
C1463  O1547   1.418   .     S
C1463  H1509   1.109   .     S
C1463  H1510   1.116   .     S
C1463  C1465   1.529   .     S
C1464  O1546   1.382   .     S
C1464  C1477   1.421   .     A
C1465  C1466   1.526   .     S
C1465  H1511   1.111   .     S
C1465  H1512   1.110   .     S
C1466  H1513   1.111   .     S
C1466  H1516   1.111   .     S
C1467  H1518   1.112   .     S
C1467  O1548   1.413   .     S
C1467  C1468   1.526   .     S
C1467  H1517   1.115   .     S
C1468  H1519   1.112   .     S
C1468  H1520   1.112   .     S
C1468  C1209   1.528   1_655 S
C1469  H1523   1.111   .     S
C1469  H1521   1.111   .     S
C1469  H1522   1.109   .     S
C1470  H1526   1.114   .     S
C1470  C1471   1.531   .     S
C1470  H1524   1.105   .     S
C1470  O1549   1.421   .     S
C1471  H1528   1.106   .     S
C1471  C1212   1.527   1_655 S
C1471  H1267   1.106   1_655 S
C1472  H1530   1.110   .     S
C1472  H1531   1.111   .     S
C1472  H1529   1.111   .     S
C1473  O1550   1.417   .     S
C1473  C1474   1.529   .     S
C1473  H1532   1.111   .     S
C1473  H1533   1.112   .     S
C1474  H1535   1.112   .     S
C1474  C1476   1.526   .     S
C1474  H1534   1.111   .     S
C1475  O1547   1.382   .     S
C1475  N1543   1.376   .     A
C1476  H1538   1.110   .     S
C1476  H1537   1.110   .     S
C1477  N1544   1.372   .     A
C1477  O1548   1.381   .     S
C1478  C1480   1.425   .     A
C1478  O1549   1.396   .     S
C1478  N1543   1.378   .     A
C1479  O1550   1.384   .     S
C1479  N1544   1.372   .     A
C1480  H1540   1.078   .     S
H1481  C1177   1.086   1_655 S
H1505  C681    1.112   1_556 S
H1515  C1206   1.110   1_655 S
H1539  C1216   1.109   1_655 S
N1543  Zn1560  2.015   .     S
N1544  Zn1559  2.015   .     S
O1545  Zn1559  2.002   .     S
O1551  Zn1560  2.002   .     S
O1552  Zn1560  1.989   .     S
O1553  Zn1559  1.989   .     S
O1554  Zn1559  1.953   .     S
O1555  Zn1560  1.953   .     S
O1556  Zn1560  1.972   .     S
O1557  Zn1559  1.972   .     S
