data_str_m3_o1_o17_pcu_sym.89
_audit_creation_date              2020-01-03
_audit_creation_method            'Materials Studio'
_symmetry_space_group_name_H-M    'P1'
_symmetry_Int_Tables_number       1
_symmetry_cell_setting            triclinic
loop_
_symmetry_equiv_pos_as_xyz
  x,y,z
_cell_length_a                    32.5290
_cell_length_b                    29.4894
_cell_length_c                    30.0333
_cell_angle_alpha                 89.9990
_cell_angle_beta                  92.2200
_cell_angle_gamma                 91.1957
loop_
_atom_site_label
_atom_site_type_symbol
_atom_site_fract_x
_atom_site_fract_y
_atom_site_fract_z
_atom_site_U_iso_or_equiv
_atom_site_adp_type
_atom_site_occupancy
O1     O     0.10559   0.20487   0.25000   0.00000  Uiso   1.00
O2     O     0.22774   0.12846   0.25001   0.00000  Uiso   1.00
O3     O     0.22774   0.20487   0.25001   0.00000  Uiso   1.00
O4     O     0.10559   0.12846   0.25000   0.00000  Uiso   1.00
C5     C     0.08669   0.16608   0.25083   0.00000  Uiso   1.00
C6     C     0.24664   0.16726   0.24917   0.00000  Uiso   1.00
O7     O     0.16666   0.20489   0.18393   0.00000  Uiso   1.00
O8     O     0.16667   0.12844   0.31608   0.00000  Uiso   1.00
O9     O     0.16667   0.20489   0.31608   0.00000  Uiso   1.00
O10    O     0.16666   0.12844   0.18393   0.00000  Uiso   1.00
C11    C     0.16654   0.16675   0.16358   0.00000  Uiso   1.00
C12    C     0.16678   0.16659   0.33642   0.00000  Uiso   1.00
Zn13   Zn    0.16667   0.21771   0.25000   0.00000  Uiso   1.00
Zn14   Zn    0.16667   0.11563   0.25000   0.00000  Uiso   1.00
C15    C     0.20092   0.18370   0.40818   0.00000  Uiso   1.00
C16    C     0.13239   0.14962   0.09184   0.00000  Uiso   1.00
C17    C     0.16672   0.16598   0.38417   0.00000  Uiso   1.00
C18    C     0.16661   0.16732   0.11583   0.00000  Uiso   1.00
C19    C     0.13270   0.14748   0.40522   0.00000  Uiso   1.00
C20    C     0.20068   0.18570   0.09478   0.00000  Uiso   1.00
C21    C     0.13058   0.15207   0.45170   0.00000  Uiso   1.00
C22    C     0.20280   0.18106   0.04830   0.00000  Uiso   1.00
C23    C     0.16664   0.16635   0.47663   0.00000  Uiso   1.00
C24    C     0.16673   0.16678   0.02338   0.00000  Uiso   1.00
C25    C     0.20273   0.17990   0.45475   0.00000  Uiso   1.00
C26    C     0.13062   0.15325   0.04526   0.00000  Uiso   1.00
C27    C     0.09356   0.14384   0.47385   0.00000  Uiso   1.00
C28    C     0.23982   0.18922   0.02615   0.00000  Uiso   1.00
C29    C     0.09354   0.14491   0.02027   0.00000  Uiso   1.00
C30    C     0.23984   0.18813   0.47972   0.00000  Uiso   1.00
C31    C     0.01947   0.13036   0.22926   0.00000  Uiso   1.00
C32    C     0.31386   0.20300   0.27071   0.00000  Uiso   1.00
C33    C     0.31033   0.13329   0.22555   0.00000  Uiso   1.00
C34    C     0.02300   0.20007   0.27442   0.00000  Uiso   1.00
C35    C     0.29086   0.16847   0.24781   0.00000  Uiso   1.00
C36    C     0.04248   0.16488   0.25218   0.00000  Uiso   1.00
C37    C     0.18307   0.02436   0.28555   0.00000  Uiso   1.00
C38    C     0.15026   0.30897   0.21445   0.00000  Uiso   1.00
C39    C     0.15035   0.02360   0.21441   0.00000  Uiso   1.00
C40    C     0.18298   0.30973   0.28559   0.00000  Uiso   1.00
H41    H     0.19627   0.04281   0.31396   0.00000  Uiso   1.00
H42    H     0.13707   0.29053   0.18604   0.00000  Uiso   1.00
H43    H     0.13742   0.04144   0.18589   0.00000  Uiso   1.00
H44    H     0.19591   0.29189   0.31411   0.00000  Uiso   1.00
N45    N     0.16667   0.28573   0.25000   0.00000  Uiso   1.00
N46    N     0.16667   0.04760   0.25000   0.00000  Uiso   1.00
N47    N     0.23332   0.20591   0.38488   0.00000  Uiso   1.00
O48    O     0.25401   0.18352   0.35625   0.00000  Uiso   1.00
O49    O     0.24168   0.24871   0.39188   0.00000  Uiso   1.00
N50    N     0.09993   0.12758   0.11519   0.00000  Uiso   1.00
O51    O     0.09186   0.08462   0.10877   0.00000  Uiso   1.00
O52    O     0.07917   0.15018   0.14361   0.00000  Uiso   1.00
C53    C     0.10124   0.12298   0.37846   0.00000  Uiso   1.00
N54    N     0.07648   0.10348   0.35686   0.00000  Uiso   1.00
C55    C     0.23219   0.21010   0.12155   0.00000  Uiso   1.00
N56    N     0.25701   0.22951   0.14316   0.00000  Uiso   1.00
N57    N     0.05473   0.14111   0.44967   0.00000  Uiso   1.00
O58    O     0.04189   0.17576   0.42662   0.00000  Uiso   1.00
O59    O     0.03362   0.10314   0.44821   0.00000  Uiso   1.00
N60    N     0.27865   0.19192   0.05032   0.00000  Uiso   1.00
O61    O     0.29966   0.22995   0.05201   0.00000  Uiso   1.00
O62    O     0.29150   0.15722   0.07329   0.00000  Uiso   1.00
N63    N     0.05469   0.14520   0.04122   0.00000  Uiso   1.00
O64    O     0.04311   0.18198   0.06061   0.00000  Uiso   1.00
O65    O     0.03017   0.10978   0.03924   0.00000  Uiso   1.00
N66    N     0.27868   0.18772   0.45875   0.00000  Uiso   1.00
O67    O     0.30347   0.22290   0.46111   0.00000  Uiso   1.00
O68    O     0.28998   0.15108   0.43892   0.00000  Uiso   1.00
C69    C     0.03860   0.09120   0.20996   0.00000  Uiso   1.00
N70    N     0.05341   0.05967   0.19481   0.00000  Uiso   1.00
C71    C     0.29473   0.24216   0.29001   0.00000  Uiso   1.00
N72    N     0.27992   0.27368   0.30518   0.00000  Uiso   1.00
C73    C     0.28707   0.10138   0.19678   0.00000  Uiso   1.00
N74    N     0.26862   0.07608   0.17386   0.00000  Uiso   1.00
C75    C     0.04626   0.23200   0.30317   0.00000  Uiso   1.00
N76    N     0.06470   0.25732   0.32608   0.00000  Uiso   1.00
O77    O     0.43892   0.20487   0.25000   0.00000  Uiso   1.00
O78    O     0.56108   0.12846   0.25001   0.00000  Uiso   1.00
O79    O     0.56108   0.20487   0.25001   0.00000  Uiso   1.00
O80    O     0.43892   0.12846   0.25000   0.00000  Uiso   1.00
C81    C     0.42002   0.16608   0.25083   0.00000  Uiso   1.00
C82    C     0.57998   0.16726   0.24917   0.00000  Uiso   1.00
O83    O     0.49999   0.20489   0.18393   0.00000  Uiso   1.00
O84    O     0.50001   0.12844   0.31608   0.00000  Uiso   1.00
O85    O     0.50001   0.20489   0.31608   0.00000  Uiso   1.00
O86    O     0.49999   0.12844   0.18393   0.00000  Uiso   1.00
C87    C     0.49988   0.16675   0.16358   0.00000  Uiso   1.00
C88    C     0.50011   0.16659   0.33642   0.00000  Uiso   1.00
Zn89   Zn    0.50000   0.21771   0.25000   0.00000  Uiso   1.00
Zn90   Zn    0.50000   0.11563   0.25000   0.00000  Uiso   1.00
C91    C     0.53426   0.18370   0.40818   0.00000  Uiso   1.00
C92    C     0.46572   0.14962   0.09184   0.00000  Uiso   1.00
C93    C     0.50005   0.16598   0.38417   0.00000  Uiso   1.00
C94    C     0.49994   0.16732   0.11583   0.00000  Uiso   1.00
C95    C     0.46603   0.14748   0.40522   0.00000  Uiso   1.00
C96    C     0.53401   0.18570   0.09478   0.00000  Uiso   1.00
C97    C     0.46391   0.15207   0.45170   0.00000  Uiso   1.00
C98    C     0.53613   0.18106   0.04830   0.00000  Uiso   1.00
C99    C     0.49997   0.16635   0.47663   0.00000  Uiso   1.00
C100   C     0.50006   0.16678   0.02338   0.00000  Uiso   1.00
C101   C     0.53607   0.17990   0.45475   0.00000  Uiso   1.00
C102   C     0.46395   0.15325   0.04526   0.00000  Uiso   1.00
C103   C     0.42690   0.14384   0.47385   0.00000  Uiso   1.00
C104   C     0.57315   0.18922   0.02615   0.00000  Uiso   1.00
C105   C     0.42687   0.14491   0.02027   0.00000  Uiso   1.00
C106   C     0.57318   0.18813   0.47972   0.00000  Uiso   1.00
C107   C     0.35281   0.13036   0.22926   0.00000  Uiso   1.00
C108   C     0.64719   0.20300   0.27071   0.00000  Uiso   1.00
C109   C     0.64366   0.13329   0.22555   0.00000  Uiso   1.00
C110   C     0.35634   0.20007   0.27442   0.00000  Uiso   1.00
C111   C     0.62419   0.16847   0.24781   0.00000  Uiso   1.00
C112   C     0.37581   0.16488   0.25218   0.00000  Uiso   1.00
C113   C     0.51641   0.02436   0.28555   0.00000  Uiso   1.00
C114   C     0.48359   0.30897   0.21445   0.00000  Uiso   1.00
C115   C     0.48369   0.02360   0.21441   0.00000  Uiso   1.00
C116   C     0.51631   0.30973   0.28559   0.00000  Uiso   1.00
H117   H     0.52960   0.04281   0.31396   0.00000  Uiso   1.00
H118   H     0.47040   0.29053   0.18604   0.00000  Uiso   1.00
H119   H     0.47075   0.04144   0.18589   0.00000  Uiso   1.00
H120   H     0.52925   0.29189   0.31411   0.00000  Uiso   1.00
N121   N     0.50000   0.28573   0.25000   0.00000  Uiso   1.00
N122   N     0.50000   0.04760   0.25000   0.00000  Uiso   1.00
N123   N     0.56665   0.20591   0.38488   0.00000  Uiso   1.00
O124   O     0.58734   0.18352   0.35625   0.00000  Uiso   1.00
O125   O     0.57501   0.24871   0.39188   0.00000  Uiso   1.00
N126   N     0.43326   0.12758   0.11519   0.00000  Uiso   1.00
O127   O     0.42520   0.08462   0.10877   0.00000  Uiso   1.00
O128   O     0.41251   0.15018   0.14361   0.00000  Uiso   1.00
C129   C     0.43458   0.12298   0.37846   0.00000  Uiso   1.00
N130   N     0.40981   0.10348   0.35686   0.00000  Uiso   1.00
C131   C     0.56552   0.21010   0.12155   0.00000  Uiso   1.00
N132   N     0.59034   0.22951   0.14316   0.00000  Uiso   1.00
N133   N     0.38806   0.14111   0.44967   0.00000  Uiso   1.00
O134   O     0.37522   0.17576   0.42662   0.00000  Uiso   1.00
O135   O     0.36695   0.10314   0.44821   0.00000  Uiso   1.00
N136   N     0.61198   0.19192   0.05032   0.00000  Uiso   1.00
O137   O     0.63299   0.22995   0.05201   0.00000  Uiso   1.00
O138   O     0.62483   0.15722   0.07329   0.00000  Uiso   1.00
N139   N     0.38803   0.14520   0.04122   0.00000  Uiso   1.00
O140   O     0.37644   0.18198   0.06061   0.00000  Uiso   1.00
O141   O     0.36351   0.10978   0.03924   0.00000  Uiso   1.00
N142   N     0.61201   0.18772   0.45875   0.00000  Uiso   1.00
O143   O     0.63681   0.22290   0.46111   0.00000  Uiso   1.00
O144   O     0.62331   0.15108   0.43892   0.00000  Uiso   1.00
C145   C     0.37193   0.09120   0.20996   0.00000  Uiso   1.00
N146   N     0.38674   0.05967   0.19481   0.00000  Uiso   1.00
C147   C     0.62807   0.24216   0.29001   0.00000  Uiso   1.00
N148   N     0.61325   0.27368   0.30518   0.00000  Uiso   1.00
C149   C     0.62040   0.10138   0.19678   0.00000  Uiso   1.00
N150   N     0.60196   0.07608   0.17386   0.00000  Uiso   1.00
C151   C     0.37959   0.23200   0.30317   0.00000  Uiso   1.00
N152   N     0.39804   0.25732   0.32608   0.00000  Uiso   1.00
O153   O     0.77226   0.20487   0.25000   0.00000  Uiso   1.00
O154   O     0.89441   0.12846   0.25001   0.00000  Uiso   1.00
O155   O     0.89441   0.20487   0.25001   0.00000  Uiso   1.00
O156   O     0.77226   0.12846   0.25000   0.00000  Uiso   1.00
C157   C     0.75336   0.16608   0.25083   0.00000  Uiso   1.00
C158   C     0.91331   0.16726   0.24917   0.00000  Uiso   1.00
O159   O     0.83333   0.20489   0.18393   0.00000  Uiso   1.00
O160   O     0.83334   0.12844   0.31608   0.00000  Uiso   1.00
O161   O     0.83334   0.20489   0.31608   0.00000  Uiso   1.00
O162   O     0.83333   0.12844   0.18393   0.00000  Uiso   1.00
C163   C     0.83321   0.16675   0.16358   0.00000  Uiso   1.00
C164   C     0.83344   0.16659   0.33642   0.00000  Uiso   1.00
Zn165  Zn    0.83333   0.21771   0.25000   0.00000  Uiso   1.00
Zn166  Zn    0.83333   0.11563   0.25000   0.00000  Uiso   1.00
C167   C     0.86759   0.18370   0.40818   0.00000  Uiso   1.00
C168   C     0.79906   0.14962   0.09184   0.00000  Uiso   1.00
C169   C     0.83339   0.16598   0.38417   0.00000  Uiso   1.00
C170   C     0.83327   0.16732   0.11583   0.00000  Uiso   1.00
C171   C     0.79936   0.14748   0.40522   0.00000  Uiso   1.00
C172   C     0.86735   0.18570   0.09478   0.00000  Uiso   1.00
C173   C     0.79724   0.15207   0.45170   0.00000  Uiso   1.00
C174   C     0.86946   0.18106   0.04830   0.00000  Uiso   1.00
C175   C     0.83331   0.16635   0.47663   0.00000  Uiso   1.00
C176   C     0.83339   0.16678   0.02338   0.00000  Uiso   1.00
C177   C     0.86940   0.17990   0.45475   0.00000  Uiso   1.00
C178   C     0.79729   0.15325   0.04526   0.00000  Uiso   1.00
C179   C     0.76023   0.14384   0.47385   0.00000  Uiso   1.00
C180   C     0.90649   0.18922   0.02615   0.00000  Uiso   1.00
C181   C     0.76020   0.14491   0.02027   0.00000  Uiso   1.00
C182   C     0.90651   0.18813   0.47972   0.00000  Uiso   1.00
C183   C     0.68614   0.13036   0.22926   0.00000  Uiso   1.00
C184   C     0.98052   0.20300   0.27071   0.00000  Uiso   1.00
C185   C     0.97700   0.13329   0.22555   0.00000  Uiso   1.00
C186   C     0.68967   0.20007   0.27442   0.00000  Uiso   1.00
C187   C     0.95752   0.16847   0.24781   0.00000  Uiso   1.00
C188   C     0.70914   0.16488   0.25218   0.00000  Uiso   1.00
C189   C     0.84974   0.02436   0.28555   0.00000  Uiso   1.00
C190   C     0.81692   0.30897   0.21445   0.00000  Uiso   1.00
C191   C     0.81702   0.02360   0.21441   0.00000  Uiso   1.00
C192   C     0.84965   0.30973   0.28559   0.00000  Uiso   1.00
H193   H     0.86293   0.04281   0.31396   0.00000  Uiso   1.00
H194   H     0.80373   0.29053   0.18604   0.00000  Uiso   1.00
H195   H     0.80409   0.04144   0.18589   0.00000  Uiso   1.00
H196   H     0.86258   0.29189   0.31411   0.00000  Uiso   1.00
N197   N     0.83333   0.28573   0.25000   0.00000  Uiso   1.00
N198   N     0.83333   0.04760   0.25000   0.00000  Uiso   1.00
N199   N     0.89999   0.20591   0.38488   0.00000  Uiso   1.00
O200   O     0.92067   0.18352   0.35625   0.00000  Uiso   1.00
O201   O     0.90835   0.24871   0.39188   0.00000  Uiso   1.00
N202   N     0.76660   0.12758   0.11519   0.00000  Uiso   1.00
O203   O     0.75853   0.08462   0.10877   0.00000  Uiso   1.00
O204   O     0.74584   0.15018   0.14361   0.00000  Uiso   1.00
C205   C     0.76791   0.12298   0.37846   0.00000  Uiso   1.00
N206   N     0.74314   0.10348   0.35686   0.00000  Uiso   1.00
C207   C     0.89886   0.21010   0.12155   0.00000  Uiso   1.00
N208   N     0.92367   0.22951   0.14316   0.00000  Uiso   1.00
N209   N     0.72140   0.14111   0.44967   0.00000  Uiso   1.00
O210   O     0.70856   0.17576   0.42662   0.00000  Uiso   1.00
O211   O     0.70028   0.10314   0.44821   0.00000  Uiso   1.00
N212   N     0.94532   0.19192   0.05032   0.00000  Uiso   1.00
O213   O     0.96632   0.22995   0.05201   0.00000  Uiso   1.00
O214   O     0.95817   0.15722   0.07329   0.00000  Uiso   1.00
N215   N     0.72136   0.14520   0.04122   0.00000  Uiso   1.00
O216   O     0.70977   0.18198   0.06061   0.00000  Uiso   1.00
O217   O     0.69684   0.10978   0.03924   0.00000  Uiso   1.00
N218   N     0.94534   0.18772   0.45875   0.00000  Uiso   1.00
O219   O     0.97014   0.22290   0.46111   0.00000  Uiso   1.00
O220   O     0.95665   0.15108   0.43892   0.00000  Uiso   1.00
C221   C     0.70527   0.09120   0.20996   0.00000  Uiso   1.00
N222   N     0.72008   0.05967   0.19481   0.00000  Uiso   1.00
C223   C     0.96140   0.24216   0.29001   0.00000  Uiso   1.00
N224   N     0.94659   0.27368   0.30518   0.00000  Uiso   1.00
C225   C     0.95374   0.10138   0.19678   0.00000  Uiso   1.00
N226   N     0.93529   0.07608   0.17386   0.00000  Uiso   1.00
C227   C     0.71293   0.23200   0.30317   0.00000  Uiso   1.00
N228   N     0.73137   0.25732   0.32608   0.00000  Uiso   1.00
O229   O     0.10559   0.53821   0.25000   0.00000  Uiso   1.00
O230   O     0.22774   0.46179   0.25001   0.00000  Uiso   1.00
O231   O     0.22774   0.53821   0.25001   0.00000  Uiso   1.00
O232   O     0.10559   0.46179   0.25000   0.00000  Uiso   1.00
C233   C     0.08669   0.49941   0.25083   0.00000  Uiso   1.00
C234   C     0.24664   0.50059   0.24917   0.00000  Uiso   1.00
O235   O     0.16666   0.53823   0.18393   0.00000  Uiso   1.00
O236   O     0.16667   0.46177   0.31608   0.00000  Uiso   1.00
O237   O     0.16667   0.53823   0.31608   0.00000  Uiso   1.00
O238   O     0.16666   0.46177   0.18393   0.00000  Uiso   1.00
C239   C     0.16654   0.50008   0.16358   0.00000  Uiso   1.00
C240   C     0.16678   0.49992   0.33642   0.00000  Uiso   1.00
Zn241  Zn    0.16667   0.55104   0.25000   0.00000  Uiso   1.00
Zn242  Zn    0.16667   0.44896   0.25000   0.00000  Uiso   1.00
C243   C     0.20092   0.51703   0.40818   0.00000  Uiso   1.00
C244   C     0.13239   0.48295   0.09184   0.00000  Uiso   1.00
C245   C     0.16672   0.49932   0.38417   0.00000  Uiso   1.00
C246   C     0.16661   0.50066   0.11583   0.00000  Uiso   1.00
C247   C     0.13270   0.48081   0.40522   0.00000  Uiso   1.00
C248   C     0.20068   0.51903   0.09478   0.00000  Uiso   1.00
C249   C     0.13058   0.48541   0.45170   0.00000  Uiso   1.00
C250   C     0.20280   0.51439   0.04830   0.00000  Uiso   1.00
C251   C     0.16664   0.49968   0.47663   0.00000  Uiso   1.00
C252   C     0.16673   0.50012   0.02338   0.00000  Uiso   1.00
C253   C     0.20273   0.51324   0.45475   0.00000  Uiso   1.00
C254   C     0.13062   0.48659   0.04526   0.00000  Uiso   1.00
C255   C     0.09356   0.47717   0.47385   0.00000  Uiso   1.00
C256   C     0.23982   0.52256   0.02615   0.00000  Uiso   1.00
C257   C     0.09354   0.47824   0.02027   0.00000  Uiso   1.00
C258   C     0.23984   0.52146   0.47972   0.00000  Uiso   1.00
C259   C     0.01947   0.46369   0.22926   0.00000  Uiso   1.00
C260   C     0.31386   0.53633   0.27071   0.00000  Uiso   1.00
C261   C     0.31033   0.46663   0.22555   0.00000  Uiso   1.00
C262   C     0.02300   0.53340   0.27442   0.00000  Uiso   1.00
C263   C     0.29086   0.50180   0.24781   0.00000  Uiso   1.00
C264   C     0.04248   0.49821   0.25218   0.00000  Uiso   1.00
C265   C     0.18307   0.35770   0.28555   0.00000  Uiso   1.00
C266   C     0.15026   0.64230   0.21445   0.00000  Uiso   1.00
C267   C     0.15035   0.35694   0.21441   0.00000  Uiso   1.00
C268   C     0.18298   0.64306   0.28559   0.00000  Uiso   1.00
H269   H     0.19627   0.37614   0.31396   0.00000  Uiso   1.00
H270   H     0.13707   0.62386   0.18604   0.00000  Uiso   1.00
H271   H     0.13742   0.37478   0.18589   0.00000  Uiso   1.00
H272   H     0.19591   0.62522   0.31411   0.00000  Uiso   1.00
N273   N     0.16667   0.61907   0.25000   0.00000  Uiso   1.00
N274   N     0.16667   0.38093   0.25000   0.00000  Uiso   1.00
N275   N     0.23332   0.53924   0.38488   0.00000  Uiso   1.00
O276   O     0.25401   0.51685   0.35625   0.00000  Uiso   1.00
O277   O     0.24168   0.58204   0.39188   0.00000  Uiso   1.00
N278   N     0.09993   0.46091   0.11519   0.00000  Uiso   1.00
O279   O     0.09186   0.41795   0.10877   0.00000  Uiso   1.00
O280   O     0.07917   0.48352   0.14361   0.00000  Uiso   1.00
C281   C     0.10124   0.45632   0.37846   0.00000  Uiso   1.00
N282   N     0.07648   0.43682   0.35686   0.00000  Uiso   1.00
C283   C     0.23219   0.54343   0.12155   0.00000  Uiso   1.00
N284   N     0.25701   0.56284   0.14316   0.00000  Uiso   1.00
N285   N     0.05473   0.47444   0.44967   0.00000  Uiso   1.00
O286   O     0.04189   0.50909   0.42662   0.00000  Uiso   1.00
O287   O     0.03362   0.43648   0.44821   0.00000  Uiso   1.00
N288   N     0.27865   0.52525   0.05032   0.00000  Uiso   1.00
O289   O     0.29966   0.56329   0.05201   0.00000  Uiso   1.00
O290   O     0.29150   0.49055   0.07329   0.00000  Uiso   1.00
N291   N     0.05469   0.47854   0.04122   0.00000  Uiso   1.00
O292   O     0.04311   0.51531   0.06061   0.00000  Uiso   1.00
O293   O     0.03017   0.44311   0.03924   0.00000  Uiso   1.00
N294   N     0.27868   0.52106   0.45875   0.00000  Uiso   1.00
O295   O     0.30347   0.55623   0.46111   0.00000  Uiso   1.00
O296   O     0.28998   0.48441   0.43892   0.00000  Uiso   1.00
C297   C     0.03860   0.42453   0.20996   0.00000  Uiso   1.00
N298   N     0.05341   0.39301   0.19481   0.00000  Uiso   1.00
C299   C     0.29473   0.57549   0.29001   0.00000  Uiso   1.00
N300   N     0.27992   0.60701   0.30518   0.00000  Uiso   1.00
C301   C     0.28707   0.43471   0.19678   0.00000  Uiso   1.00
N302   N     0.26862   0.40941   0.17386   0.00000  Uiso   1.00
C303   C     0.04626   0.56533   0.30317   0.00000  Uiso   1.00
N304   N     0.06470   0.59065   0.32608   0.00000  Uiso   1.00
O305   O     0.43892   0.53821   0.25000   0.00000  Uiso   1.00
O306   O     0.56108   0.46179   0.25001   0.00000  Uiso   1.00
O307   O     0.56108   0.53821   0.25001   0.00000  Uiso   1.00
O308   O     0.43892   0.46179   0.25000   0.00000  Uiso   1.00
C309   C     0.42002   0.49941   0.25083   0.00000  Uiso   1.00
C310   C     0.57998   0.50059   0.24917   0.00000  Uiso   1.00
O311   O     0.49999   0.53823   0.18393   0.00000  Uiso   1.00
O312   O     0.50001   0.46177   0.31608   0.00000  Uiso   1.00
O313   O     0.50001   0.53823   0.31608   0.00000  Uiso   1.00
O314   O     0.49999   0.46177   0.18393   0.00000  Uiso   1.00
C315   C     0.49988   0.50008   0.16358   0.00000  Uiso   1.00
C316   C     0.50011   0.49992   0.33642   0.00000  Uiso   1.00
Zn317  Zn    0.50000   0.55104   0.25000   0.00000  Uiso   1.00
Zn318  Zn    0.50000   0.44896   0.25000   0.00000  Uiso   1.00
C319   C     0.53426   0.51703   0.40818   0.00000  Uiso   1.00
C320   C     0.46572   0.48295   0.09184   0.00000  Uiso   1.00
C321   C     0.50005   0.49932   0.38417   0.00000  Uiso   1.00
C322   C     0.49994   0.50066   0.11583   0.00000  Uiso   1.00
C323   C     0.46603   0.48081   0.40522   0.00000  Uiso   1.00
C324   C     0.53401   0.51903   0.09478   0.00000  Uiso   1.00
C325   C     0.46391   0.48541   0.45170   0.00000  Uiso   1.00
C326   C     0.53613   0.51439   0.04830   0.00000  Uiso   1.00
C327   C     0.49997   0.49968   0.47663   0.00000  Uiso   1.00
C328   C     0.50006   0.50012   0.02338   0.00000  Uiso   1.00
C329   C     0.53607   0.51324   0.45475   0.00000  Uiso   1.00
C330   C     0.46395   0.48659   0.04526   0.00000  Uiso   1.00
C331   C     0.42690   0.47717   0.47385   0.00000  Uiso   1.00
C332   C     0.57315   0.52256   0.02615   0.00000  Uiso   1.00
C333   C     0.42687   0.47824   0.02027   0.00000  Uiso   1.00
C334   C     0.57318   0.52146   0.47972   0.00000  Uiso   1.00
C335   C     0.35281   0.46369   0.22926   0.00000  Uiso   1.00
C336   C     0.64719   0.53633   0.27071   0.00000  Uiso   1.00
C337   C     0.64366   0.46663   0.22555   0.00000  Uiso   1.00
C338   C     0.35634   0.53340   0.27442   0.00000  Uiso   1.00
C339   C     0.62419   0.50180   0.24781   0.00000  Uiso   1.00
C340   C     0.37581   0.49821   0.25218   0.00000  Uiso   1.00
C341   C     0.51641   0.35770   0.28555   0.00000  Uiso   1.00
C342   C     0.48359   0.64230   0.21445   0.00000  Uiso   1.00
C343   C     0.48369   0.35694   0.21441   0.00000  Uiso   1.00
C344   C     0.51631   0.64306   0.28559   0.00000  Uiso   1.00
H345   H     0.52960   0.37614   0.31396   0.00000  Uiso   1.00
H346   H     0.47040   0.62386   0.18604   0.00000  Uiso   1.00
H347   H     0.47075   0.37478   0.18589   0.00000  Uiso   1.00
H348   H     0.52925   0.62522   0.31411   0.00000  Uiso   1.00
N349   N     0.50000   0.61907   0.25000   0.00000  Uiso   1.00
N350   N     0.50000   0.38093   0.25000   0.00000  Uiso   1.00
N351   N     0.56665   0.53924   0.38488   0.00000  Uiso   1.00
O352   O     0.58734   0.51685   0.35625   0.00000  Uiso   1.00
O353   O     0.57501   0.58204   0.39188   0.00000  Uiso   1.00
N354   N     0.43326   0.46091   0.11519   0.00000  Uiso   1.00
O355   O     0.42520   0.41795   0.10877   0.00000  Uiso   1.00
O356   O     0.41251   0.48352   0.14361   0.00000  Uiso   1.00
C357   C     0.43458   0.45632   0.37846   0.00000  Uiso   1.00
N358   N     0.40981   0.43682   0.35686   0.00000  Uiso   1.00
C359   C     0.56552   0.54343   0.12155   0.00000  Uiso   1.00
N360   N     0.59034   0.56284   0.14316   0.00000  Uiso   1.00
N361   N     0.38806   0.47444   0.44967   0.00000  Uiso   1.00
O362   O     0.37522   0.50909   0.42662   0.00000  Uiso   1.00
O363   O     0.36695   0.43648   0.44821   0.00000  Uiso   1.00
N364   N     0.61198   0.52525   0.05032   0.00000  Uiso   1.00
O365   O     0.63299   0.56329   0.05201   0.00000  Uiso   1.00
O366   O     0.62483   0.49055   0.07329   0.00000  Uiso   1.00
N367   N     0.38803   0.47854   0.04122   0.00000  Uiso   1.00
O368   O     0.37644   0.51531   0.06061   0.00000  Uiso   1.00
O369   O     0.36351   0.44311   0.03924   0.00000  Uiso   1.00
N370   N     0.61201   0.52106   0.45875   0.00000  Uiso   1.00
O371   O     0.63681   0.55623   0.46111   0.00000  Uiso   1.00
O372   O     0.62331   0.48441   0.43892   0.00000  Uiso   1.00
C373   C     0.37193   0.42453   0.20996   0.00000  Uiso   1.00
N374   N     0.38674   0.39301   0.19481   0.00000  Uiso   1.00
C375   C     0.62807   0.57549   0.29001   0.00000  Uiso   1.00
N376   N     0.61325   0.60701   0.30518   0.00000  Uiso   1.00
C377   C     0.62040   0.43471   0.19678   0.00000  Uiso   1.00
N378   N     0.60196   0.40941   0.17386   0.00000  Uiso   1.00
C379   C     0.37959   0.56533   0.30317   0.00000  Uiso   1.00
N380   N     0.39804   0.59065   0.32608   0.00000  Uiso   1.00
O381   O     0.77226   0.53821   0.25000   0.00000  Uiso   1.00
O382   O     0.89441   0.46179   0.25001   0.00000  Uiso   1.00
O383   O     0.89441   0.53821   0.25001   0.00000  Uiso   1.00
O384   O     0.77226   0.46179   0.25000   0.00000  Uiso   1.00
C385   C     0.75336   0.49941   0.25083   0.00000  Uiso   1.00
C386   C     0.91331   0.50059   0.24917   0.00000  Uiso   1.00
O387   O     0.83333   0.53823   0.18393   0.00000  Uiso   1.00
O388   O     0.83334   0.46177   0.31608   0.00000  Uiso   1.00
O389   O     0.83334   0.53823   0.31608   0.00000  Uiso   1.00
O390   O     0.83333   0.46177   0.18393   0.00000  Uiso   1.00
C391   C     0.83321   0.50008   0.16358   0.00000  Uiso   1.00
C392   C     0.83344   0.49992   0.33642   0.00000  Uiso   1.00
Zn393  Zn    0.83333   0.55104   0.25000   0.00000  Uiso   1.00
Zn394  Zn    0.83333   0.44896   0.25000   0.00000  Uiso   1.00
C395   C     0.86759   0.51703   0.40818   0.00000  Uiso   1.00
C396   C     0.79906   0.48295   0.09184   0.00000  Uiso   1.00
C397   C     0.83339   0.49932   0.38417   0.00000  Uiso   1.00
C398   C     0.83327   0.50066   0.11583   0.00000  Uiso   1.00
C399   C     0.79936   0.48081   0.40522   0.00000  Uiso   1.00
C400   C     0.86735   0.51903   0.09478   0.00000  Uiso   1.00
C401   C     0.79724   0.48541   0.45170   0.00000  Uiso   1.00
C402   C     0.86946   0.51439   0.04830   0.00000  Uiso   1.00
C403   C     0.83331   0.49968   0.47663   0.00000  Uiso   1.00
C404   C     0.83339   0.50012   0.02338   0.00000  Uiso   1.00
C405   C     0.86940   0.51324   0.45475   0.00000  Uiso   1.00
C406   C     0.79729   0.48659   0.04526   0.00000  Uiso   1.00
C407   C     0.76023   0.47717   0.47385   0.00000  Uiso   1.00
C408   C     0.90649   0.52256   0.02615   0.00000  Uiso   1.00
C409   C     0.76020   0.47824   0.02027   0.00000  Uiso   1.00
C410   C     0.90651   0.52146   0.47972   0.00000  Uiso   1.00
C411   C     0.68614   0.46369   0.22926   0.00000  Uiso   1.00
C412   C     0.98052   0.53633   0.27071   0.00000  Uiso   1.00
C413   C     0.97700   0.46663   0.22555   0.00000  Uiso   1.00
C414   C     0.68967   0.53340   0.27442   0.00000  Uiso   1.00
C415   C     0.95752   0.50180   0.24781   0.00000  Uiso   1.00
C416   C     0.70914   0.49821   0.25218   0.00000  Uiso   1.00
C417   C     0.84974   0.35770   0.28555   0.00000  Uiso   1.00
C418   C     0.81692   0.64230   0.21445   0.00000  Uiso   1.00
C419   C     0.81702   0.35694   0.21441   0.00000  Uiso   1.00
C420   C     0.84965   0.64306   0.28559   0.00000  Uiso   1.00
H421   H     0.86293   0.37614   0.31396   0.00000  Uiso   1.00
H422   H     0.80373   0.62386   0.18604   0.00000  Uiso   1.00
H423   H     0.80409   0.37478   0.18589   0.00000  Uiso   1.00
H424   H     0.86258   0.62522   0.31411   0.00000  Uiso   1.00
N425   N     0.83333   0.61907   0.25000   0.00000  Uiso   1.00
N426   N     0.83333   0.38093   0.25000   0.00000  Uiso   1.00
N427   N     0.89999   0.53924   0.38488   0.00000  Uiso   1.00
O428   O     0.92067   0.51685   0.35625   0.00000  Uiso   1.00
O429   O     0.90835   0.58204   0.39188   0.00000  Uiso   1.00
N430   N     0.76660   0.46091   0.11519   0.00000  Uiso   1.00
O431   O     0.75853   0.41795   0.10877   0.00000  Uiso   1.00
O432   O     0.74584   0.48352   0.14361   0.00000  Uiso   1.00
C433   C     0.76791   0.45632   0.37846   0.00000  Uiso   1.00
N434   N     0.74314   0.43682   0.35686   0.00000  Uiso   1.00
C435   C     0.89886   0.54343   0.12155   0.00000  Uiso   1.00
N436   N     0.92367   0.56284   0.14316   0.00000  Uiso   1.00
N437   N     0.72140   0.47444   0.44967   0.00000  Uiso   1.00
O438   O     0.70856   0.50909   0.42662   0.00000  Uiso   1.00
O439   O     0.70028   0.43648   0.44821   0.00000  Uiso   1.00
N440   N     0.94532   0.52525   0.05032   0.00000  Uiso   1.00
O441   O     0.96632   0.56329   0.05201   0.00000  Uiso   1.00
O442   O     0.95817   0.49055   0.07329   0.00000  Uiso   1.00
N443   N     0.72136   0.47854   0.04122   0.00000  Uiso   1.00
O444   O     0.70977   0.51531   0.06061   0.00000  Uiso   1.00
O445   O     0.69684   0.44311   0.03924   0.00000  Uiso   1.00
N446   N     0.94534   0.52106   0.45875   0.00000  Uiso   1.00
O447   O     0.97014   0.55623   0.46111   0.00000  Uiso   1.00
O448   O     0.95665   0.48441   0.43892   0.00000  Uiso   1.00
C449   C     0.70527   0.42453   0.20996   0.00000  Uiso   1.00
N450   N     0.72008   0.39301   0.19481   0.00000  Uiso   1.00
C451   C     0.96140   0.57549   0.29001   0.00000  Uiso   1.00
N452   N     0.94659   0.60701   0.30518   0.00000  Uiso   1.00
C453   C     0.95374   0.43471   0.19678   0.00000  Uiso   1.00
N454   N     0.93529   0.40941   0.17386   0.00000  Uiso   1.00
C455   C     0.71293   0.56533   0.30317   0.00000  Uiso   1.00
N456   N     0.73137   0.59065   0.32608   0.00000  Uiso   1.00
O457   O     0.10559   0.87154   0.25000   0.00000  Uiso   1.00
O458   O     0.22774   0.79513   0.25001   0.00000  Uiso   1.00
O459   O     0.22774   0.87154   0.25001   0.00000  Uiso   1.00
O460   O     0.10559   0.79513   0.25000   0.00000  Uiso   1.00
C461   C     0.08669   0.83275   0.25083   0.00000  Uiso   1.00
C462   C     0.24664   0.83392   0.24917   0.00000  Uiso   1.00
O463   O     0.16666   0.87156   0.18393   0.00000  Uiso   1.00
O464   O     0.16667   0.79511   0.31608   0.00000  Uiso   1.00
O465   O     0.16667   0.87156   0.31608   0.00000  Uiso   1.00
O466   O     0.16666   0.79511   0.18393   0.00000  Uiso   1.00
C467   C     0.16654   0.83341   0.16358   0.00000  Uiso   1.00
C468   C     0.16678   0.83325   0.33642   0.00000  Uiso   1.00
Zn469  Zn    0.16667   0.88437   0.25000   0.00000  Uiso   1.00
Zn470  Zn    0.16667   0.78229   0.25000   0.00000  Uiso   1.00
C471   C     0.20092   0.85036   0.40818   0.00000  Uiso   1.00
C472   C     0.13239   0.81628   0.09184   0.00000  Uiso   1.00
C473   C     0.16672   0.83265   0.38417   0.00000  Uiso   1.00
C474   C     0.16661   0.83399   0.11583   0.00000  Uiso   1.00
C475   C     0.13270   0.81415   0.40522   0.00000  Uiso   1.00
C476   C     0.20068   0.85237   0.09478   0.00000  Uiso   1.00
C477   C     0.13058   0.81874   0.45170   0.00000  Uiso   1.00
C478   C     0.20280   0.84772   0.04830   0.00000  Uiso   1.00
C479   C     0.16664   0.83301   0.47663   0.00000  Uiso   1.00
C480   C     0.16673   0.83345   0.02338   0.00000  Uiso   1.00
C481   C     0.20273   0.84657   0.45475   0.00000  Uiso   1.00
C482   C     0.13062   0.81992   0.04526   0.00000  Uiso   1.00
C483   C     0.09356   0.81051   0.47385   0.00000  Uiso   1.00
C484   C     0.23982   0.85589   0.02615   0.00000  Uiso   1.00
C485   C     0.09354   0.81158   0.02027   0.00000  Uiso   1.00
C486   C     0.23984   0.85480   0.47972   0.00000  Uiso   1.00
C487   C     0.01947   0.79703   0.22926   0.00000  Uiso   1.00
C488   C     0.31386   0.86966   0.27071   0.00000  Uiso   1.00
C489   C     0.31033   0.79996   0.22555   0.00000  Uiso   1.00
C490   C     0.02300   0.86673   0.27442   0.00000  Uiso   1.00
C491   C     0.29086   0.83514   0.24781   0.00000  Uiso   1.00
C492   C     0.04248   0.83154   0.25218   0.00000  Uiso   1.00
C493   C     0.18307   0.69103   0.28555   0.00000  Uiso   1.00
C494   C     0.15026   0.97564   0.21445   0.00000  Uiso   1.00
C495   C     0.15035   0.69027   0.21441   0.00000  Uiso   1.00
C496   C     0.18298   0.97640   0.28559   0.00000  Uiso   1.00
H497   H     0.19627   0.70947   0.31396   0.00000  Uiso   1.00
H498   H     0.13707   0.95719   0.18604   0.00000  Uiso   1.00
H499   H     0.13742   0.70811   0.18589   0.00000  Uiso   1.00
H500   H     0.19591   0.95856   0.31411   0.00000  Uiso   1.00
N501   N     0.16667   0.95240   0.25000   0.00000  Uiso   1.00
N502   N     0.16667   0.71427   0.25000   0.00000  Uiso   1.00
N503   N     0.23332   0.87258   0.38488   0.00000  Uiso   1.00
O504   O     0.25401   0.85018   0.35625   0.00000  Uiso   1.00
O505   O     0.24168   0.91538   0.39188   0.00000  Uiso   1.00
N506   N     0.09993   0.79425   0.11519   0.00000  Uiso   1.00
O507   O     0.09186   0.75128   0.10877   0.00000  Uiso   1.00
O508   O     0.07917   0.81685   0.14361   0.00000  Uiso   1.00
C509   C     0.10124   0.78965   0.37846   0.00000  Uiso   1.00
N510   N     0.07648   0.77015   0.35686   0.00000  Uiso   1.00
C511   C     0.23219   0.87677   0.12155   0.00000  Uiso   1.00
N512   N     0.25701   0.89618   0.14316   0.00000  Uiso   1.00
N513   N     0.05473   0.80778   0.44967   0.00000  Uiso   1.00
O514   O     0.04189   0.84242   0.42662   0.00000  Uiso   1.00
O515   O     0.03362   0.76981   0.44821   0.00000  Uiso   1.00
N516   N     0.27865   0.85859   0.05032   0.00000  Uiso   1.00
O517   O     0.29966   0.89662   0.05201   0.00000  Uiso   1.00
O518   O     0.29150   0.82389   0.07329   0.00000  Uiso   1.00
N519   N     0.05469   0.81187   0.04122   0.00000  Uiso   1.00
O520   O     0.04311   0.84865   0.06061   0.00000  Uiso   1.00
O521   O     0.03017   0.77644   0.03924   0.00000  Uiso   1.00
N522   N     0.27868   0.85439   0.45875   0.00000  Uiso   1.00
O523   O     0.30347   0.88957   0.46111   0.00000  Uiso   1.00
O524   O     0.28998   0.81774   0.43892   0.00000  Uiso   1.00
C525   C     0.03860   0.75786   0.20996   0.00000  Uiso   1.00
N526   N     0.05341   0.72634   0.19481   0.00000  Uiso   1.00
C527   C     0.29473   0.90883   0.29001   0.00000  Uiso   1.00
N528   N     0.27992   0.94034   0.30518   0.00000  Uiso   1.00
C529   C     0.28707   0.76805   0.19678   0.00000  Uiso   1.00
N530   N     0.26862   0.74274   0.17386   0.00000  Uiso   1.00
C531   C     0.04626   0.89866   0.30317   0.00000  Uiso   1.00
N532   N     0.06470   0.92398   0.32608   0.00000  Uiso   1.00
O533   O     0.43892   0.87154   0.25000   0.00000  Uiso   1.00
O534   O     0.56108   0.79513   0.25001   0.00000  Uiso   1.00
O535   O     0.56108   0.87154   0.25001   0.00000  Uiso   1.00
O536   O     0.43892   0.79513   0.25000   0.00000  Uiso   1.00
C537   C     0.42002   0.83275   0.25083   0.00000  Uiso   1.00
C538   C     0.57998   0.83392   0.24917   0.00000  Uiso   1.00
O539   O     0.49999   0.87156   0.18393   0.00000  Uiso   1.00
O540   O     0.50001   0.79511   0.31608   0.00000  Uiso   1.00
O541   O     0.50001   0.87156   0.31608   0.00000  Uiso   1.00
O542   O     0.49999   0.79511   0.18393   0.00000  Uiso   1.00
C543   C     0.49988   0.83341   0.16358   0.00000  Uiso   1.00
C544   C     0.50011   0.83325   0.33642   0.00000  Uiso   1.00
Zn545  Zn    0.50000   0.88437   0.25000   0.00000  Uiso   1.00
Zn546  Zn    0.50000   0.78229   0.25000   0.00000  Uiso   1.00
C547   C     0.53426   0.85036   0.40818   0.00000  Uiso   1.00
C548   C     0.46572   0.81628   0.09184   0.00000  Uiso   1.00
C549   C     0.50005   0.83265   0.38417   0.00000  Uiso   1.00
C550   C     0.49994   0.83399   0.11583   0.00000  Uiso   1.00
C551   C     0.46603   0.81415   0.40522   0.00000  Uiso   1.00
C552   C     0.53401   0.85237   0.09478   0.00000  Uiso   1.00
C553   C     0.46391   0.81874   0.45170   0.00000  Uiso   1.00
C554   C     0.53613   0.84772   0.04830   0.00000  Uiso   1.00
C555   C     0.49997   0.83301   0.47663   0.00000  Uiso   1.00
C556   C     0.50006   0.83345   0.02338   0.00000  Uiso   1.00
C557   C     0.53607   0.84657   0.45475   0.00000  Uiso   1.00
C558   C     0.46395   0.81992   0.04526   0.00000  Uiso   1.00
C559   C     0.42690   0.81051   0.47385   0.00000  Uiso   1.00
C560   C     0.57315   0.85589   0.02615   0.00000  Uiso   1.00
C561   C     0.42687   0.81158   0.02027   0.00000  Uiso   1.00
C562   C     0.57318   0.85480   0.47972   0.00000  Uiso   1.00
C563   C     0.35281   0.79703   0.22926   0.00000  Uiso   1.00
C564   C     0.64719   0.86966   0.27071   0.00000  Uiso   1.00
C565   C     0.64366   0.79996   0.22555   0.00000  Uiso   1.00
C566   C     0.35634   0.86673   0.27442   0.00000  Uiso   1.00
C567   C     0.62419   0.83514   0.24781   0.00000  Uiso   1.00
C568   C     0.37581   0.83154   0.25218   0.00000  Uiso   1.00
C569   C     0.51641   0.69103   0.28555   0.00000  Uiso   1.00
C570   C     0.48359   0.97564   0.21445   0.00000  Uiso   1.00
C571   C     0.48369   0.69027   0.21441   0.00000  Uiso   1.00
C572   C     0.51631   0.97640   0.28559   0.00000  Uiso   1.00
H573   H     0.52960   0.70947   0.31396   0.00000  Uiso   1.00
H574   H     0.47040   0.95719   0.18604   0.00000  Uiso   1.00
H575   H     0.47075   0.70811   0.18589   0.00000  Uiso   1.00
H576   H     0.52925   0.95856   0.31411   0.00000  Uiso   1.00
N577   N     0.50000   0.95240   0.25000   0.00000  Uiso   1.00
N578   N     0.50000   0.71427   0.25000   0.00000  Uiso   1.00
N579   N     0.56665   0.87258   0.38488   0.00000  Uiso   1.00
O580   O     0.58734   0.85018   0.35625   0.00000  Uiso   1.00
O581   O     0.57501   0.91538   0.39188   0.00000  Uiso   1.00
N582   N     0.43326   0.79425   0.11519   0.00000  Uiso   1.00
O583   O     0.42520   0.75128   0.10877   0.00000  Uiso   1.00
O584   O     0.41251   0.81685   0.14361   0.00000  Uiso   1.00
C585   C     0.43458   0.78965   0.37846   0.00000  Uiso   1.00
N586   N     0.40981   0.77015   0.35686   0.00000  Uiso   1.00
C587   C     0.56552   0.87677   0.12155   0.00000  Uiso   1.00
N588   N     0.59034   0.89618   0.14316   0.00000  Uiso   1.00
N589   N     0.38806   0.80778   0.44967   0.00000  Uiso   1.00
O590   O     0.37522   0.84242   0.42662   0.00000  Uiso   1.00
O591   O     0.36695   0.76981   0.44821   0.00000  Uiso   1.00
N592   N     0.61198   0.85859   0.05032   0.00000  Uiso   1.00
O593   O     0.63299   0.89662   0.05201   0.00000  Uiso   1.00
O594   O     0.62483   0.82389   0.07329   0.00000  Uiso   1.00
N595   N     0.38803   0.81187   0.04122   0.00000  Uiso   1.00
O596   O     0.37644   0.84865   0.06061   0.00000  Uiso   1.00
O597   O     0.36351   0.77644   0.03924   0.00000  Uiso   1.00
N598   N     0.61201   0.85439   0.45875   0.00000  Uiso   1.00
O599   O     0.63681   0.88957   0.46111   0.00000  Uiso   1.00
O600   O     0.62331   0.81774   0.43892   0.00000  Uiso   1.00
C601   C     0.37193   0.75786   0.20996   0.00000  Uiso   1.00
N602   N     0.38674   0.72634   0.19481   0.00000  Uiso   1.00
C603   C     0.62807   0.90883   0.29001   0.00000  Uiso   1.00
N604   N     0.61325   0.94034   0.30518   0.00000  Uiso   1.00
C605   C     0.62040   0.76805   0.19678   0.00000  Uiso   1.00
N606   N     0.60196   0.74274   0.17386   0.00000  Uiso   1.00
C607   C     0.37959   0.89866   0.30317   0.00000  Uiso   1.00
N608   N     0.39804   0.92398   0.32608   0.00000  Uiso   1.00
O609   O     0.77226   0.87154   0.25000   0.00000  Uiso   1.00
O610   O     0.89441   0.79513   0.25001   0.00000  Uiso   1.00
O611   O     0.89441   0.87154   0.25001   0.00000  Uiso   1.00
O612   O     0.77226   0.79513   0.25000   0.00000  Uiso   1.00
C613   C     0.75336   0.83275   0.25083   0.00000  Uiso   1.00
C614   C     0.91331   0.83392   0.24917   0.00000  Uiso   1.00
O615   O     0.83333   0.87156   0.18393   0.00000  Uiso   1.00
O616   O     0.83334   0.79511   0.31608   0.00000  Uiso   1.00
O617   O     0.83334   0.87156   0.31608   0.00000  Uiso   1.00
O618   O     0.83333   0.79511   0.18393   0.00000  Uiso   1.00
C619   C     0.83321   0.83341   0.16358   0.00000  Uiso   1.00
C620   C     0.83344   0.83325   0.33642   0.00000  Uiso   1.00
Zn621  Zn    0.83333   0.88437   0.25000   0.00000  Uiso   1.00
Zn622  Zn    0.83333   0.78229   0.25000   0.00000  Uiso   1.00
C623   C     0.86759   0.85036   0.40818   0.00000  Uiso   1.00
C624   C     0.79906   0.81628   0.09184   0.00000  Uiso   1.00
C625   C     0.83339   0.83265   0.38417   0.00000  Uiso   1.00
C626   C     0.83327   0.83399   0.11583   0.00000  Uiso   1.00
C627   C     0.79936   0.81415   0.40522   0.00000  Uiso   1.00
C628   C     0.86735   0.85237   0.09478   0.00000  Uiso   1.00
C629   C     0.79724   0.81874   0.45170   0.00000  Uiso   1.00
C630   C     0.86946   0.84772   0.04830   0.00000  Uiso   1.00
C631   C     0.83331   0.83301   0.47663   0.00000  Uiso   1.00
C632   C     0.83339   0.83345   0.02338   0.00000  Uiso   1.00
C633   C     0.86940   0.84657   0.45475   0.00000  Uiso   1.00
C634   C     0.79729   0.81992   0.04526   0.00000  Uiso   1.00
C635   C     0.76023   0.81051   0.47385   0.00000  Uiso   1.00
C636   C     0.90649   0.85589   0.02615   0.00000  Uiso   1.00
C637   C     0.76020   0.81158   0.02027   0.00000  Uiso   1.00
C638   C     0.90651   0.85480   0.47972   0.00000  Uiso   1.00
C639   C     0.68614   0.79703   0.22926   0.00000  Uiso   1.00
C640   C     0.98052   0.86966   0.27071   0.00000  Uiso   1.00
C641   C     0.97700   0.79996   0.22555   0.00000  Uiso   1.00
C642   C     0.68967   0.86673   0.27442   0.00000  Uiso   1.00
C643   C     0.95752   0.83514   0.24781   0.00000  Uiso   1.00
C644   C     0.70914   0.83154   0.25218   0.00000  Uiso   1.00
C645   C     0.84974   0.69103   0.28555   0.00000  Uiso   1.00
C646   C     0.81692   0.97564   0.21445   0.00000  Uiso   1.00
C647   C     0.81702   0.69027   0.21441   0.00000  Uiso   1.00
C648   C     0.84965   0.97640   0.28559   0.00000  Uiso   1.00
H649   H     0.86293   0.70947   0.31396   0.00000  Uiso   1.00
H650   H     0.80373   0.95719   0.18604   0.00000  Uiso   1.00
H651   H     0.80409   0.70811   0.18589   0.00000  Uiso   1.00
H652   H     0.86258   0.95856   0.31411   0.00000  Uiso   1.00
N653   N     0.83333   0.95240   0.25000   0.00000  Uiso   1.00
N654   N     0.83333   0.71427   0.25000   0.00000  Uiso   1.00
N655   N     0.89999   0.87258   0.38488   0.00000  Uiso   1.00
O656   O     0.92067   0.85018   0.35625   0.00000  Uiso   1.00
O657   O     0.90835   0.91538   0.39188   0.00000  Uiso   1.00
N658   N     0.76660   0.79425   0.11519   0.00000  Uiso   1.00
O659   O     0.75853   0.75128   0.10877   0.00000  Uiso   1.00
O660   O     0.74584   0.81685   0.14361   0.00000  Uiso   1.00
C661   C     0.76791   0.78965   0.37846   0.00000  Uiso   1.00
N662   N     0.74314   0.77015   0.35686   0.00000  Uiso   1.00
C663   C     0.89886   0.87677   0.12155   0.00000  Uiso   1.00
N664   N     0.92367   0.89618   0.14316   0.00000  Uiso   1.00
N665   N     0.72140   0.80778   0.44967   0.00000  Uiso   1.00
O666   O     0.70856   0.84242   0.42662   0.00000  Uiso   1.00
O667   O     0.70028   0.76981   0.44821   0.00000  Uiso   1.00
N668   N     0.94532   0.85859   0.05032   0.00000  Uiso   1.00
O669   O     0.96632   0.89662   0.05201   0.00000  Uiso   1.00
O670   O     0.95817   0.82389   0.07329   0.00000  Uiso   1.00
N671   N     0.72136   0.81187   0.04122   0.00000  Uiso   1.00
O672   O     0.70977   0.84865   0.06061   0.00000  Uiso   1.00
O673   O     0.69684   0.77644   0.03924   0.00000  Uiso   1.00
N674   N     0.94534   0.85439   0.45875   0.00000  Uiso   1.00
O675   O     0.97014   0.88957   0.46111   0.00000  Uiso   1.00
O676   O     0.95665   0.81774   0.43892   0.00000  Uiso   1.00
C677   C     0.70527   0.75786   0.20996   0.00000  Uiso   1.00
N678   N     0.72008   0.72634   0.19481   0.00000  Uiso   1.00
C679   C     0.96140   0.90883   0.29001   0.00000  Uiso   1.00
N680   N     0.94659   0.94034   0.30518   0.00000  Uiso   1.00
C681   C     0.95374   0.76805   0.19678   0.00000  Uiso   1.00
N682   N     0.93529   0.74274   0.17386   0.00000  Uiso   1.00
C683   C     0.71293   0.89866   0.30317   0.00000  Uiso   1.00
N684   N     0.73137   0.92398   0.32608   0.00000  Uiso   1.00
O685   O     0.10559   0.20487   0.75000   0.00000  Uiso   1.00
O686   O     0.22774   0.12846   0.75001   0.00000  Uiso   1.00
O687   O     0.22774   0.20487   0.75001   0.00000  Uiso   1.00
O688   O     0.10559   0.12846   0.75000   0.00000  Uiso   1.00
C689   C     0.08669   0.16608   0.75083   0.00000  Uiso   1.00
C690   C     0.24664   0.16726   0.74917   0.00000  Uiso   1.00
O691   O     0.16666   0.20489   0.68393   0.00000  Uiso   1.00
O692   O     0.16667   0.12844   0.81608   0.00000  Uiso   1.00
O693   O     0.16667   0.20489   0.81608   0.00000  Uiso   1.00
O694   O     0.16666   0.12844   0.68393   0.00000  Uiso   1.00
C695   C     0.16654   0.16675   0.66358   0.00000  Uiso   1.00
C696   C     0.16678   0.16659   0.83642   0.00000  Uiso   1.00
Zn697  Zn    0.16667   0.21771   0.75000   0.00000  Uiso   1.00
Zn698  Zn    0.16667   0.11563   0.75000   0.00000  Uiso   1.00
C699   C     0.20092   0.18370   0.90818   0.00000  Uiso   1.00
C700   C     0.13239   0.14962   0.59184   0.00000  Uiso   1.00
C701   C     0.16672   0.16598   0.88417   0.00000  Uiso   1.00
C702   C     0.16661   0.16732   0.61583   0.00000  Uiso   1.00
C703   C     0.13270   0.14748   0.90522   0.00000  Uiso   1.00
C704   C     0.20068   0.18570   0.59478   0.00000  Uiso   1.00
C705   C     0.13058   0.15207   0.95170   0.00000  Uiso   1.00
C706   C     0.20280   0.18106   0.54830   0.00000  Uiso   1.00
C707   C     0.16664   0.16635   0.97663   0.00000  Uiso   1.00
C708   C     0.16673   0.16678   0.52338   0.00000  Uiso   1.00
C709   C     0.20273   0.17990   0.95475   0.00000  Uiso   1.00
C710   C     0.13062   0.15325   0.54526   0.00000  Uiso   1.00
C711   C     0.09356   0.14384   0.97385   0.00000  Uiso   1.00
C712   C     0.23982   0.18922   0.52615   0.00000  Uiso   1.00
C713   C     0.09354   0.14491   0.52027   0.00000  Uiso   1.00
C714   C     0.23984   0.18813   0.97972   0.00000  Uiso   1.00
C715   C     0.01947   0.13036   0.72926   0.00000  Uiso   1.00
C716   C     0.31386   0.20300   0.77071   0.00000  Uiso   1.00
C717   C     0.31033   0.13329   0.72555   0.00000  Uiso   1.00
C718   C     0.02300   0.20007   0.77442   0.00000  Uiso   1.00
C719   C     0.29086   0.16847   0.74781   0.00000  Uiso   1.00
C720   C     0.04248   0.16488   0.75218   0.00000  Uiso   1.00
C721   C     0.18307   0.02436   0.78555   0.00000  Uiso   1.00
C722   C     0.15026   0.30897   0.71445   0.00000  Uiso   1.00
C723   C     0.15035   0.02360   0.71441   0.00000  Uiso   1.00
C724   C     0.18298   0.30973   0.78559   0.00000  Uiso   1.00
H725   H     0.19627   0.04281   0.81396   0.00000  Uiso   1.00
H726   H     0.13707   0.29053   0.68604   0.00000  Uiso   1.00
H727   H     0.13742   0.04144   0.68589   0.00000  Uiso   1.00
H728   H     0.19591   0.29189   0.81411   0.00000  Uiso   1.00
N729   N     0.16667   0.28573   0.75000   0.00000  Uiso   1.00
N730   N     0.16667   0.04760   0.75000   0.00000  Uiso   1.00
N731   N     0.23332   0.20591   0.88488   0.00000  Uiso   1.00
O732   O     0.25401   0.18352   0.85625   0.00000  Uiso   1.00
O733   O     0.24168   0.24871   0.89188   0.00000  Uiso   1.00
N734   N     0.09993   0.12758   0.61519   0.00000  Uiso   1.00
O735   O     0.09186   0.08462   0.60877   0.00000  Uiso   1.00
O736   O     0.07917   0.15018   0.64361   0.00000  Uiso   1.00
C737   C     0.10124   0.12298   0.87846   0.00000  Uiso   1.00
N738   N     0.07648   0.10348   0.85686   0.00000  Uiso   1.00
C739   C     0.23219   0.21010   0.62155   0.00000  Uiso   1.00
N740   N     0.25701   0.22951   0.64316   0.00000  Uiso   1.00
N741   N     0.05473   0.14111   0.94967   0.00000  Uiso   1.00
O742   O     0.04189   0.17576   0.92662   0.00000  Uiso   1.00
O743   O     0.03362   0.10314   0.94821   0.00000  Uiso   1.00
N744   N     0.27865   0.19192   0.55032   0.00000  Uiso   1.00
O745   O     0.29966   0.22995   0.55201   0.00000  Uiso   1.00
O746   O     0.29150   0.15722   0.57329   0.00000  Uiso   1.00
N747   N     0.05469   0.14520   0.54122   0.00000  Uiso   1.00
O748   O     0.04311   0.18198   0.56061   0.00000  Uiso   1.00
O749   O     0.03017   0.10978   0.53924   0.00000  Uiso   1.00
N750   N     0.27868   0.18772   0.95875   0.00000  Uiso   1.00
O751   O     0.30347   0.22290   0.96111   0.00000  Uiso   1.00
O752   O     0.28998   0.15108   0.93892   0.00000  Uiso   1.00
C753   C     0.03860   0.09120   0.70996   0.00000  Uiso   1.00
N754   N     0.05341   0.05967   0.69481   0.00000  Uiso   1.00
C755   C     0.29473   0.24216   0.79001   0.00000  Uiso   1.00
N756   N     0.27992   0.27368   0.80518   0.00000  Uiso   1.00
C757   C     0.28707   0.10138   0.69678   0.00000  Uiso   1.00
N758   N     0.26862   0.07608   0.67386   0.00000  Uiso   1.00
C759   C     0.04626   0.23200   0.80317   0.00000  Uiso   1.00
N760   N     0.06470   0.25732   0.82608   0.00000  Uiso   1.00
O761   O     0.43892   0.20487   0.75000   0.00000  Uiso   1.00
O762   O     0.56108   0.12846   0.75001   0.00000  Uiso   1.00
O763   O     0.56108   0.20487   0.75001   0.00000  Uiso   1.00
O764   O     0.43892   0.12846   0.75000   0.00000  Uiso   1.00
C765   C     0.42002   0.16608   0.75083   0.00000  Uiso   1.00
C766   C     0.57998   0.16726   0.74917   0.00000  Uiso   1.00
O767   O     0.49999   0.20489   0.68393   0.00000  Uiso   1.00
O768   O     0.50001   0.12844   0.81608   0.00000  Uiso   1.00
O769   O     0.50001   0.20489   0.81608   0.00000  Uiso   1.00
O770   O     0.49999   0.12844   0.68393   0.00000  Uiso   1.00
C771   C     0.49988   0.16675   0.66358   0.00000  Uiso   1.00
C772   C     0.50011   0.16659   0.83642   0.00000  Uiso   1.00
Zn773  Zn    0.50000   0.21771   0.75000   0.00000  Uiso   1.00
Zn774  Zn    0.50000   0.11563   0.75000   0.00000  Uiso   1.00
C775   C     0.53426   0.18370   0.90818   0.00000  Uiso   1.00
C776   C     0.46572   0.14962   0.59184   0.00000  Uiso   1.00
C777   C     0.50005   0.16598   0.88417   0.00000  Uiso   1.00
C778   C     0.49994   0.16732   0.61583   0.00000  Uiso   1.00
C779   C     0.46603   0.14748   0.90522   0.00000  Uiso   1.00
C780   C     0.53401   0.18570   0.59478   0.00000  Uiso   1.00
C781   C     0.46391   0.15207   0.95170   0.00000  Uiso   1.00
C782   C     0.53613   0.18106   0.54830   0.00000  Uiso   1.00
C783   C     0.49997   0.16635   0.97663   0.00000  Uiso   1.00
C784   C     0.50006   0.16678   0.52338   0.00000  Uiso   1.00
C785   C     0.53607   0.17990   0.95475   0.00000  Uiso   1.00
C786   C     0.46395   0.15325   0.54526   0.00000  Uiso   1.00
C787   C     0.42690   0.14384   0.97385   0.00000  Uiso   1.00
C788   C     0.57315   0.18922   0.52615   0.00000  Uiso   1.00
C789   C     0.42687   0.14491   0.52027   0.00000  Uiso   1.00
C790   C     0.57318   0.18813   0.97972   0.00000  Uiso   1.00
C791   C     0.35281   0.13036   0.72926   0.00000  Uiso   1.00
C792   C     0.64719   0.20300   0.77071   0.00000  Uiso   1.00
C793   C     0.64366   0.13329   0.72555   0.00000  Uiso   1.00
C794   C     0.35634   0.20007   0.77442   0.00000  Uiso   1.00
C795   C     0.62419   0.16847   0.74781   0.00000  Uiso   1.00
C796   C     0.37581   0.16488   0.75218   0.00000  Uiso   1.00
C797   C     0.51641   0.02436   0.78555   0.00000  Uiso   1.00
C798   C     0.48359   0.30897   0.71445   0.00000  Uiso   1.00
C799   C     0.48369   0.02360   0.71441   0.00000  Uiso   1.00
C800   C     0.51631   0.30973   0.78559   0.00000  Uiso   1.00
H801   H     0.52960   0.04281   0.81396   0.00000  Uiso   1.00
H802   H     0.47040   0.29053   0.68604   0.00000  Uiso   1.00
H803   H     0.47075   0.04144   0.68589   0.00000  Uiso   1.00
H804   H     0.52925   0.29189   0.81411   0.00000  Uiso   1.00
N805   N     0.50000   0.28573   0.75000   0.00000  Uiso   1.00
N806   N     0.50000   0.04760   0.75000   0.00000  Uiso   1.00
N807   N     0.56665   0.20591   0.88488   0.00000  Uiso   1.00
O808   O     0.58734   0.18352   0.85625   0.00000  Uiso   1.00
O809   O     0.57501   0.24871   0.89188   0.00000  Uiso   1.00
N810   N     0.43326   0.12758   0.61519   0.00000  Uiso   1.00
O811   O     0.42520   0.08462   0.60877   0.00000  Uiso   1.00
O812   O     0.41251   0.15018   0.64361   0.00000  Uiso   1.00
C813   C     0.43458   0.12298   0.87846   0.00000  Uiso   1.00
N814   N     0.40981   0.10348   0.85686   0.00000  Uiso   1.00
C815   C     0.56552   0.21010   0.62155   0.00000  Uiso   1.00
N816   N     0.59034   0.22951   0.64316   0.00000  Uiso   1.00
N817   N     0.38806   0.14111   0.94967   0.00000  Uiso   1.00
O818   O     0.37522   0.17576   0.92662   0.00000  Uiso   1.00
O819   O     0.36695   0.10314   0.94821   0.00000  Uiso   1.00
N820   N     0.61198   0.19192   0.55032   0.00000  Uiso   1.00
O821   O     0.63299   0.22995   0.55201   0.00000  Uiso   1.00
O822   O     0.62483   0.15722   0.57329   0.00000  Uiso   1.00
N823   N     0.38803   0.14520   0.54122   0.00000  Uiso   1.00
O824   O     0.37644   0.18198   0.56061   0.00000  Uiso   1.00
O825   O     0.36351   0.10978   0.53924   0.00000  Uiso   1.00
N826   N     0.61201   0.18772   0.95875   0.00000  Uiso   1.00
O827   O     0.63681   0.22290   0.96111   0.00000  Uiso   1.00
O828   O     0.62331   0.15108   0.93892   0.00000  Uiso   1.00
C829   C     0.37193   0.09120   0.70996   0.00000  Uiso   1.00
N830   N     0.38674   0.05967   0.69481   0.00000  Uiso   1.00
C831   C     0.62807   0.24216   0.79001   0.00000  Uiso   1.00
N832   N     0.61325   0.27368   0.80518   0.00000  Uiso   1.00
C833   C     0.62040   0.10138   0.69678   0.00000  Uiso   1.00
N834   N     0.60196   0.07608   0.67386   0.00000  Uiso   1.00
C835   C     0.37959   0.23200   0.80317   0.00000  Uiso   1.00
N836   N     0.39804   0.25732   0.82608   0.00000  Uiso   1.00
O837   O     0.77226   0.20487   0.75000   0.00000  Uiso   1.00
O838   O     0.89441   0.12846   0.75001   0.00000  Uiso   1.00
O839   O     0.89441   0.20487   0.75001   0.00000  Uiso   1.00
O840   O     0.77226   0.12846   0.75000   0.00000  Uiso   1.00
C841   C     0.75336   0.16608   0.75083   0.00000  Uiso   1.00
C842   C     0.91331   0.16726   0.74917   0.00000  Uiso   1.00
O843   O     0.83333   0.20489   0.68393   0.00000  Uiso   1.00
O844   O     0.83334   0.12844   0.81608   0.00000  Uiso   1.00
O845   O     0.83334   0.20489   0.81608   0.00000  Uiso   1.00
O846   O     0.83333   0.12844   0.68393   0.00000  Uiso   1.00
C847   C     0.83321   0.16675   0.66358   0.00000  Uiso   1.00
C848   C     0.83344   0.16659   0.83642   0.00000  Uiso   1.00
Zn849  Zn    0.83333   0.21771   0.75000   0.00000  Uiso   1.00
Zn850  Zn    0.83333   0.11563   0.75000   0.00000  Uiso   1.00
C851   C     0.86759   0.18370   0.90818   0.00000  Uiso   1.00
C852   C     0.79906   0.14962   0.59184   0.00000  Uiso   1.00
C853   C     0.83339   0.16598   0.88417   0.00000  Uiso   1.00
C854   C     0.83327   0.16732   0.61583   0.00000  Uiso   1.00
C855   C     0.79936   0.14748   0.90522   0.00000  Uiso   1.00
C856   C     0.86735   0.18570   0.59478   0.00000  Uiso   1.00
C857   C     0.79724   0.15207   0.95170   0.00000  Uiso   1.00
C858   C     0.86946   0.18106   0.54830   0.00000  Uiso   1.00
C859   C     0.83331   0.16635   0.97663   0.00000  Uiso   1.00
C860   C     0.83339   0.16678   0.52338   0.00000  Uiso   1.00
C861   C     0.86940   0.17990   0.95475   0.00000  Uiso   1.00
C862   C     0.79729   0.15325   0.54526   0.00000  Uiso   1.00
C863   C     0.76023   0.14384   0.97385   0.00000  Uiso   1.00
C864   C     0.90649   0.18922   0.52615   0.00000  Uiso   1.00
C865   C     0.76020   0.14491   0.52027   0.00000  Uiso   1.00
C866   C     0.90651   0.18813   0.97972   0.00000  Uiso   1.00
C867   C     0.68614   0.13036   0.72926   0.00000  Uiso   1.00
C868   C     0.98052   0.20300   0.77071   0.00000  Uiso   1.00
C869   C     0.97700   0.13329   0.72555   0.00000  Uiso   1.00
C870   C     0.68967   0.20007   0.77442   0.00000  Uiso   1.00
C871   C     0.95752   0.16847   0.74781   0.00000  Uiso   1.00
C872   C     0.70914   0.16488   0.75218   0.00000  Uiso   1.00
C873   C     0.84974   0.02436   0.78555   0.00000  Uiso   1.00
C874   C     0.81692   0.30897   0.71445   0.00000  Uiso   1.00
C875   C     0.81702   0.02360   0.71441   0.00000  Uiso   1.00
C876   C     0.84965   0.30973   0.78559   0.00000  Uiso   1.00
H877   H     0.86293   0.04281   0.81396   0.00000  Uiso   1.00
H878   H     0.80373   0.29053   0.68604   0.00000  Uiso   1.00
H879   H     0.80409   0.04144   0.68589   0.00000  Uiso   1.00
H880   H     0.86258   0.29189   0.81411   0.00000  Uiso   1.00
N881   N     0.83333   0.28573   0.75000   0.00000  Uiso   1.00
N882   N     0.83333   0.04760   0.75000   0.00000  Uiso   1.00
N883   N     0.89999   0.20591   0.88488   0.00000  Uiso   1.00
O884   O     0.92067   0.18352   0.85625   0.00000  Uiso   1.00
O885   O     0.90835   0.24871   0.89188   0.00000  Uiso   1.00
N886   N     0.76660   0.12758   0.61519   0.00000  Uiso   1.00
O887   O     0.75853   0.08462   0.60877   0.00000  Uiso   1.00
O888   O     0.74584   0.15018   0.64361   0.00000  Uiso   1.00
C889   C     0.76791   0.12298   0.87846   0.00000  Uiso   1.00
N890   N     0.74314   0.10348   0.85686   0.00000  Uiso   1.00
C891   C     0.89886   0.21010   0.62155   0.00000  Uiso   1.00
N892   N     0.92367   0.22951   0.64316   0.00000  Uiso   1.00
N893   N     0.72140   0.14111   0.94967   0.00000  Uiso   1.00
O894   O     0.70856   0.17576   0.92662   0.00000  Uiso   1.00
O895   O     0.70028   0.10314   0.94821   0.00000  Uiso   1.00
N896   N     0.94532   0.19192   0.55032   0.00000  Uiso   1.00
O897   O     0.96632   0.22995   0.55201   0.00000  Uiso   1.00
O898   O     0.95817   0.15722   0.57329   0.00000  Uiso   1.00
N899   N     0.72136   0.14520   0.54122   0.00000  Uiso   1.00
O900   O     0.70977   0.18198   0.56061   0.00000  Uiso   1.00
O901   O     0.69684   0.10978   0.53924   0.00000  Uiso   1.00
N902   N     0.94534   0.18772   0.95875   0.00000  Uiso   1.00
O903   O     0.97014   0.22290   0.96111   0.00000  Uiso   1.00
O904   O     0.95665   0.15108   0.93892   0.00000  Uiso   1.00
C905   C     0.70527   0.09120   0.70996   0.00000  Uiso   1.00
N906   N     0.72008   0.05967   0.69481   0.00000  Uiso   1.00
C907   C     0.96140   0.24216   0.79001   0.00000  Uiso   1.00
N908   N     0.94659   0.27368   0.80518   0.00000  Uiso   1.00
C909   C     0.95374   0.10138   0.69678   0.00000  Uiso   1.00
N910   N     0.93529   0.07608   0.67386   0.00000  Uiso   1.00
C911   C     0.71293   0.23200   0.80317   0.00000  Uiso   1.00
N912   N     0.73137   0.25732   0.82608   0.00000  Uiso   1.00
O913   O     0.10559   0.53821   0.75000   0.00000  Uiso   1.00
O914   O     0.22774   0.46179   0.75001   0.00000  Uiso   1.00
O915   O     0.22774   0.53821   0.75001   0.00000  Uiso   1.00
O916   O     0.10559   0.46179   0.75000   0.00000  Uiso   1.00
C917   C     0.08669   0.49941   0.75083   0.00000  Uiso   1.00
C918   C     0.24664   0.50059   0.74917   0.00000  Uiso   1.00
O919   O     0.16666   0.53823   0.68393   0.00000  Uiso   1.00
O920   O     0.16667   0.46177   0.81608   0.00000  Uiso   1.00
O921   O     0.16667   0.53823   0.81608   0.00000  Uiso   1.00
O922   O     0.16666   0.46177   0.68393   0.00000  Uiso   1.00
C923   C     0.16654   0.50008   0.66358   0.00000  Uiso   1.00
C924   C     0.16678   0.49992   0.83642   0.00000  Uiso   1.00
Zn925  Zn    0.16667   0.55104   0.75000   0.00000  Uiso   1.00
Zn926  Zn    0.16667   0.44896   0.75000   0.00000  Uiso   1.00
C927   C     0.20092   0.51703   0.90818   0.00000  Uiso   1.00
C928   C     0.13239   0.48295   0.59184   0.00000  Uiso   1.00
C929   C     0.16672   0.49932   0.88417   0.00000  Uiso   1.00
C930   C     0.16661   0.50066   0.61583   0.00000  Uiso   1.00
C931   C     0.13270   0.48081   0.90522   0.00000  Uiso   1.00
C932   C     0.20068   0.51903   0.59478   0.00000  Uiso   1.00
C933   C     0.13058   0.48541   0.95170   0.00000  Uiso   1.00
C934   C     0.20280   0.51439   0.54830   0.00000  Uiso   1.00
C935   C     0.16664   0.49968   0.97663   0.00000  Uiso   1.00
C936   C     0.16673   0.50012   0.52338   0.00000  Uiso   1.00
C937   C     0.20273   0.51324   0.95475   0.00000  Uiso   1.00
C938   C     0.13062   0.48659   0.54526   0.00000  Uiso   1.00
C939   C     0.09356   0.47717   0.97385   0.00000  Uiso   1.00
C940   C     0.23982   0.52256   0.52615   0.00000  Uiso   1.00
C941   C     0.09354   0.47824   0.52027   0.00000  Uiso   1.00
C942   C     0.23984   0.52146   0.97972   0.00000  Uiso   1.00
C943   C     0.01947   0.46369   0.72926   0.00000  Uiso   1.00
C944   C     0.31386   0.53633   0.77071   0.00000  Uiso   1.00
C945   C     0.31033   0.46663   0.72555   0.00000  Uiso   1.00
C946   C     0.02300   0.53340   0.77442   0.00000  Uiso   1.00
C947   C     0.29086   0.50180   0.74781   0.00000  Uiso   1.00
C948   C     0.04248   0.49821   0.75218   0.00000  Uiso   1.00
C949   C     0.18307   0.35770   0.78555   0.00000  Uiso   1.00
C950   C     0.15026   0.64230   0.71445   0.00000  Uiso   1.00
C951   C     0.15035   0.35694   0.71441   0.00000  Uiso   1.00
C952   C     0.18298   0.64306   0.78559   0.00000  Uiso   1.00
H953   H     0.19627   0.37614   0.81396   0.00000  Uiso   1.00
H954   H     0.13707   0.62386   0.68604   0.00000  Uiso   1.00
H955   H     0.13742   0.37478   0.68589   0.00000  Uiso   1.00
H956   H     0.19591   0.62522   0.81411   0.00000  Uiso   1.00
N957   N     0.16667   0.61907   0.75000   0.00000  Uiso   1.00
N958   N     0.16667   0.38093   0.75000   0.00000  Uiso   1.00
N959   N     0.23332   0.53924   0.88488   0.00000  Uiso   1.00
O960   O     0.25401   0.51685   0.85625   0.00000  Uiso   1.00
O961   O     0.24168   0.58204   0.89188   0.00000  Uiso   1.00
N962   N     0.09993   0.46091   0.61519   0.00000  Uiso   1.00
O963   O     0.09186   0.41795   0.60877   0.00000  Uiso   1.00
O964   O     0.07917   0.48352   0.64361   0.00000  Uiso   1.00
C965   C     0.10124   0.45632   0.87846   0.00000  Uiso   1.00
N966   N     0.07648   0.43682   0.85686   0.00000  Uiso   1.00
C967   C     0.23219   0.54343   0.62155   0.00000  Uiso   1.00
N968   N     0.25701   0.56284   0.64316   0.00000  Uiso   1.00
N969   N     0.05473   0.47444   0.94967   0.00000  Uiso   1.00
O970   O     0.04189   0.50909   0.92662   0.00000  Uiso   1.00
O971   O     0.03362   0.43648   0.94821   0.00000  Uiso   1.00
N972   N     0.27865   0.52525   0.55032   0.00000  Uiso   1.00
O973   O     0.29966   0.56329   0.55201   0.00000  Uiso   1.00
O974   O     0.29150   0.49055   0.57329   0.00000  Uiso   1.00
N975   N     0.05469   0.47854   0.54122   0.00000  Uiso   1.00
O976   O     0.04311   0.51531   0.56061   0.00000  Uiso   1.00
O977   O     0.03017   0.44311   0.53924   0.00000  Uiso   1.00
N978   N     0.27868   0.52106   0.95875   0.00000  Uiso   1.00
O979   O     0.30347   0.55623   0.96111   0.00000  Uiso   1.00
O980   O     0.28998   0.48441   0.93892   0.00000  Uiso   1.00
C981   C     0.03860   0.42453   0.70996   0.00000  Uiso   1.00
N982   N     0.05341   0.39301   0.69481   0.00000  Uiso   1.00
C983   C     0.29473   0.57549   0.79001   0.00000  Uiso   1.00
N984   N     0.27992   0.60701   0.80518   0.00000  Uiso   1.00
C985   C     0.28707   0.43471   0.69678   0.00000  Uiso   1.00
N986   N     0.26862   0.40941   0.67386   0.00000  Uiso   1.00
C987   C     0.04626   0.56533   0.80317   0.00000  Uiso   1.00
N988   N     0.06470   0.59065   0.82608   0.00000  Uiso   1.00
O989   O     0.43892   0.53821   0.75000   0.00000  Uiso   1.00
O990   O     0.56108   0.46179   0.75001   0.00000  Uiso   1.00
O991   O     0.56108   0.53821   0.75001   0.00000  Uiso   1.00
O992   O     0.43892   0.46179   0.75000   0.00000  Uiso   1.00
C993   C     0.42002   0.49941   0.75083   0.00000  Uiso   1.00
C994   C     0.57998   0.50059   0.74917   0.00000  Uiso   1.00
O995   O     0.49999   0.53823   0.68393   0.00000  Uiso   1.00
O996   O     0.50001   0.46177   0.81608   0.00000  Uiso   1.00
O997   O     0.50001   0.53823   0.81608   0.00000  Uiso   1.00
O998   O     0.49999   0.46177   0.68393   0.00000  Uiso   1.00
C999   C     0.49988   0.50008   0.66358   0.00000  Uiso   1.00
C1000  C     0.50011   0.49992   0.83642   0.00000  Uiso   1.00
Zn1001 Zn    0.50000   0.55104   0.75000   0.00000  Uiso   1.00
Zn1002 Zn    0.50000   0.44896   0.75000   0.00000  Uiso   1.00
C1003  C     0.53426   0.51703   0.90818   0.00000  Uiso   1.00
C1004  C     0.46572   0.48295   0.59184   0.00000  Uiso   1.00
C1005  C     0.50005   0.49932   0.88417   0.00000  Uiso   1.00
C1006  C     0.49994   0.50066   0.61583   0.00000  Uiso   1.00
C1007  C     0.46603   0.48081   0.90522   0.00000  Uiso   1.00
C1008  C     0.53401   0.51903   0.59478   0.00000  Uiso   1.00
C1009  C     0.46391   0.48541   0.95170   0.00000  Uiso   1.00
C1010  C     0.53613   0.51439   0.54830   0.00000  Uiso   1.00
C1011  C     0.49997   0.49968   0.97663   0.00000  Uiso   1.00
C1012  C     0.50006   0.50012   0.52338   0.00000  Uiso   1.00
C1013  C     0.53607   0.51324   0.95475   0.00000  Uiso   1.00
C1014  C     0.46395   0.48659   0.54526   0.00000  Uiso   1.00
C1015  C     0.42690   0.47717   0.97385   0.00000  Uiso   1.00
C1016  C     0.57315   0.52256   0.52615   0.00000  Uiso   1.00
C1017  C     0.42687   0.47824   0.52027   0.00000  Uiso   1.00
C1018  C     0.57318   0.52146   0.97972   0.00000  Uiso   1.00
C1019  C     0.35281   0.46369   0.72926   0.00000  Uiso   1.00
C1020  C     0.64719   0.53633   0.77071   0.00000  Uiso   1.00
C1021  C     0.64366   0.46663   0.72555   0.00000  Uiso   1.00
C1022  C     0.35634   0.53340   0.77442   0.00000  Uiso   1.00
C1023  C     0.62419   0.50180   0.74781   0.00000  Uiso   1.00
C1024  C     0.37581   0.49821   0.75218   0.00000  Uiso   1.00
C1025  C     0.51641   0.35770   0.78555   0.00000  Uiso   1.00
C1026  C     0.48359   0.64230   0.71445   0.00000  Uiso   1.00
C1027  C     0.48369   0.35694   0.71441   0.00000  Uiso   1.00
C1028  C     0.51631   0.64306   0.78559   0.00000  Uiso   1.00
H1029  H     0.52960   0.37614   0.81396   0.00000  Uiso   1.00
H1030  H     0.47040   0.62386   0.68604   0.00000  Uiso   1.00
H1031  H     0.47075   0.37478   0.68589   0.00000  Uiso   1.00
H1032  H     0.52925   0.62522   0.81411   0.00000  Uiso   1.00
N1033  N     0.50000   0.61907   0.75000   0.00000  Uiso   1.00
N1034  N     0.50000   0.38093   0.75000   0.00000  Uiso   1.00
N1035  N     0.56665   0.53924   0.88488   0.00000  Uiso   1.00
O1036  O     0.58734   0.51685   0.85625   0.00000  Uiso   1.00
O1037  O     0.57501   0.58204   0.89188   0.00000  Uiso   1.00
N1038  N     0.43326   0.46091   0.61519   0.00000  Uiso   1.00
O1039  O     0.42520   0.41795   0.60877   0.00000  Uiso   1.00
O1040  O     0.41251   0.48352   0.64361   0.00000  Uiso   1.00
C1041  C     0.43458   0.45632   0.87846   0.00000  Uiso   1.00
N1042  N     0.40981   0.43682   0.85686   0.00000  Uiso   1.00
C1043  C     0.56552   0.54343   0.62155   0.00000  Uiso   1.00
N1044  N     0.59034   0.56284   0.64316   0.00000  Uiso   1.00
N1045  N     0.38806   0.47444   0.94967   0.00000  Uiso   1.00
O1046  O     0.37522   0.50909   0.92662   0.00000  Uiso   1.00
O1047  O     0.36695   0.43648   0.94821   0.00000  Uiso   1.00
N1048  N     0.61198   0.52525   0.55032   0.00000  Uiso   1.00
O1049  O     0.63299   0.56329   0.55201   0.00000  Uiso   1.00
O1050  O     0.62483   0.49055   0.57329   0.00000  Uiso   1.00
N1051  N     0.38803   0.47854   0.54122   0.00000  Uiso   1.00
O1052  O     0.37644   0.51531   0.56061   0.00000  Uiso   1.00
O1053  O     0.36351   0.44311   0.53924   0.00000  Uiso   1.00
N1054  N     0.61201   0.52106   0.95875   0.00000  Uiso   1.00
O1055  O     0.63681   0.55623   0.96111   0.00000  Uiso   1.00
O1056  O     0.62331   0.48441   0.93892   0.00000  Uiso   1.00
C1057  C     0.37193   0.42453   0.70996   0.00000  Uiso   1.00
N1058  N     0.38674   0.39301   0.69481   0.00000  Uiso   1.00
C1059  C     0.62807   0.57549   0.79001   0.00000  Uiso   1.00
N1060  N     0.61325   0.60701   0.80518   0.00000  Uiso   1.00
C1061  C     0.62040   0.43471   0.69678   0.00000  Uiso   1.00
N1062  N     0.60196   0.40941   0.67386   0.00000  Uiso   1.00
C1063  C     0.37959   0.56533   0.80317   0.00000  Uiso   1.00
N1064  N     0.39804   0.59065   0.82608   0.00000  Uiso   1.00
O1065  O     0.77226   0.53821   0.75000   0.00000  Uiso   1.00
O1066  O     0.89441   0.46179   0.75001   0.00000  Uiso   1.00
O1067  O     0.89441   0.53821   0.75001   0.00000  Uiso   1.00
O1068  O     0.77226   0.46179   0.75000   0.00000  Uiso   1.00
C1069  C     0.75336   0.49941   0.75083   0.00000  Uiso   1.00
C1070  C     0.91331   0.50059   0.74917   0.00000  Uiso   1.00
O1071  O     0.83333   0.53823   0.68393   0.00000  Uiso   1.00
O1072  O     0.83334   0.46177   0.81608   0.00000  Uiso   1.00
O1073  O     0.83334   0.53823   0.81608   0.00000  Uiso   1.00
O1074  O     0.83333   0.46177   0.68393   0.00000  Uiso   1.00
C1075  C     0.83321   0.50008   0.66358   0.00000  Uiso   1.00
C1076  C     0.83344   0.49992   0.83642   0.00000  Uiso   1.00
Zn1077 Zn    0.83333   0.55104   0.75000   0.00000  Uiso   1.00
Zn1078 Zn    0.83333   0.44896   0.75000   0.00000  Uiso   1.00
C1079  C     0.86759   0.51703   0.90818   0.00000  Uiso   1.00
C1080  C     0.79906   0.48295   0.59184   0.00000  Uiso   1.00
C1081  C     0.83339   0.49932   0.88417   0.00000  Uiso   1.00
C1082  C     0.83327   0.50066   0.61583   0.00000  Uiso   1.00
C1083  C     0.79936   0.48081   0.90522   0.00000  Uiso   1.00
C1084  C     0.86735   0.51903   0.59478   0.00000  Uiso   1.00
C1085  C     0.79724   0.48541   0.95170   0.00000  Uiso   1.00
C1086  C     0.86946   0.51439   0.54830   0.00000  Uiso   1.00
C1087  C     0.83331   0.49968   0.97663   0.00000  Uiso   1.00
C1088  C     0.83339   0.50012   0.52338   0.00000  Uiso   1.00
C1089  C     0.86940   0.51324   0.95475   0.00000  Uiso   1.00
C1090  C     0.79729   0.48659   0.54526   0.00000  Uiso   1.00
C1091  C     0.76023   0.47717   0.97385   0.00000  Uiso   1.00
C1092  C     0.90649   0.52256   0.52615   0.00000  Uiso   1.00
C1093  C     0.76020   0.47824   0.52027   0.00000  Uiso   1.00
C1094  C     0.90651   0.52146   0.97972   0.00000  Uiso   1.00
C1095  C     0.68614   0.46369   0.72926   0.00000  Uiso   1.00
C1096  C     0.98052   0.53633   0.77071   0.00000  Uiso   1.00
C1097  C     0.97700   0.46663   0.72555   0.00000  Uiso   1.00
C1098  C     0.68967   0.53340   0.77442   0.00000  Uiso   1.00
C1099  C     0.95752   0.50180   0.74781   0.00000  Uiso   1.00
C1100  C     0.70914   0.49821   0.75218   0.00000  Uiso   1.00
C1101  C     0.84974   0.35770   0.78555   0.00000  Uiso   1.00
C1102  C     0.81692   0.64230   0.71445   0.00000  Uiso   1.00
C1103  C     0.81702   0.35694   0.71441   0.00000  Uiso   1.00
C1104  C     0.84965   0.64306   0.78559   0.00000  Uiso   1.00
H1105  H     0.86293   0.37614   0.81396   0.00000  Uiso   1.00
H1106  H     0.80373   0.62386   0.68604   0.00000  Uiso   1.00
H1107  H     0.80409   0.37478   0.68589   0.00000  Uiso   1.00
H1108  H     0.86258   0.62522   0.81411   0.00000  Uiso   1.00
N1109  N     0.83333   0.61907   0.75000   0.00000  Uiso   1.00
N1110  N     0.83333   0.38093   0.75000   0.00000  Uiso   1.00
N1111  N     0.89999   0.53924   0.88488   0.00000  Uiso   1.00
O1112  O     0.92067   0.51685   0.85625   0.00000  Uiso   1.00
O1113  O     0.90835   0.58204   0.89188   0.00000  Uiso   1.00
N1114  N     0.76660   0.46091   0.61519   0.00000  Uiso   1.00
O1115  O     0.75853   0.41795   0.60877   0.00000  Uiso   1.00
O1116  O     0.74584   0.48352   0.64361   0.00000  Uiso   1.00
C1117  C     0.76791   0.45632   0.87846   0.00000  Uiso   1.00
N1118  N     0.74314   0.43682   0.85686   0.00000  Uiso   1.00
C1119  C     0.89886   0.54343   0.62155   0.00000  Uiso   1.00
N1120  N     0.92367   0.56284   0.64316   0.00000  Uiso   1.00
N1121  N     0.72140   0.47444   0.94967   0.00000  Uiso   1.00
O1122  O     0.70856   0.50909   0.92662   0.00000  Uiso   1.00
O1123  O     0.70028   0.43648   0.94821   0.00000  Uiso   1.00
N1124  N     0.94532   0.52525   0.55032   0.00000  Uiso   1.00
O1125  O     0.96632   0.56329   0.55201   0.00000  Uiso   1.00
O1126  O     0.95817   0.49055   0.57329   0.00000  Uiso   1.00
N1127  N     0.72136   0.47854   0.54122   0.00000  Uiso   1.00
O1128  O     0.70977   0.51531   0.56061   0.00000  Uiso   1.00
O1129  O     0.69684   0.44311   0.53924   0.00000  Uiso   1.00
N1130  N     0.94534   0.52106   0.95875   0.00000  Uiso   1.00
O1131  O     0.97014   0.55623   0.96111   0.00000  Uiso   1.00
O1132  O     0.95665   0.48441   0.93892   0.00000  Uiso   1.00
C1133  C     0.70527   0.42453   0.70996   0.00000  Uiso   1.00
N1134  N     0.72008   0.39301   0.69481   0.00000  Uiso   1.00
C1135  C     0.96140   0.57549   0.79001   0.00000  Uiso   1.00
N1136  N     0.94659   0.60701   0.80518   0.00000  Uiso   1.00
C1137  C     0.95374   0.43471   0.69678   0.00000  Uiso   1.00
N1138  N     0.93529   0.40941   0.67386   0.00000  Uiso   1.00
C1139  C     0.71293   0.56533   0.80317   0.00000  Uiso   1.00
N1140  N     0.73137   0.59065   0.82608   0.00000  Uiso   1.00
O1141  O     0.10559   0.87154   0.75000   0.00000  Uiso   1.00
O1142  O     0.22774   0.79513   0.75001   0.00000  Uiso   1.00
O1143  O     0.22774   0.87154   0.75001   0.00000  Uiso   1.00
O1144  O     0.10559   0.79513   0.75000   0.00000  Uiso   1.00
C1145  C     0.08669   0.83275   0.75083   0.00000  Uiso   1.00
C1146  C     0.24664   0.83392   0.74917   0.00000  Uiso   1.00
O1147  O     0.16666   0.87156   0.68393   0.00000  Uiso   1.00
O1148  O     0.16667   0.79511   0.81608   0.00000  Uiso   1.00
O1149  O     0.16667   0.87156   0.81608   0.00000  Uiso   1.00
O1150  O     0.16666   0.79511   0.68393   0.00000  Uiso   1.00
C1151  C     0.16654   0.83341   0.66358   0.00000  Uiso   1.00
C1152  C     0.16678   0.83325   0.83642   0.00000  Uiso   1.00
Zn1153 Zn    0.16667   0.88437   0.75000   0.00000  Uiso   1.00
Zn1154 Zn    0.16667   0.78229   0.75000   0.00000  Uiso   1.00
C1155  C     0.20092   0.85036   0.90818   0.00000  Uiso   1.00
C1156  C     0.13239   0.81628   0.59184   0.00000  Uiso   1.00
C1157  C     0.16672   0.83265   0.88417   0.00000  Uiso   1.00
C1158  C     0.16661   0.83399   0.61583   0.00000  Uiso   1.00
C1159  C     0.13270   0.81415   0.90522   0.00000  Uiso   1.00
C1160  C     0.20068   0.85237   0.59478   0.00000  Uiso   1.00
C1161  C     0.13058   0.81874   0.95170   0.00000  Uiso   1.00
C1162  C     0.20280   0.84772   0.54830   0.00000  Uiso   1.00
C1163  C     0.16664   0.83301   0.97663   0.00000  Uiso   1.00
C1164  C     0.16673   0.83345   0.52338   0.00000  Uiso   1.00
C1165  C     0.20273   0.84657   0.95475   0.00000  Uiso   1.00
C1166  C     0.13062   0.81992   0.54526   0.00000  Uiso   1.00
C1167  C     0.09356   0.81051   0.97385   0.00000  Uiso   1.00
C1168  C     0.23982   0.85589   0.52615   0.00000  Uiso   1.00
C1169  C     0.09354   0.81158   0.52027   0.00000  Uiso   1.00
C1170  C     0.23984   0.85480   0.97972   0.00000  Uiso   1.00
C1171  C     0.01947   0.79703   0.72926   0.00000  Uiso   1.00
C1172  C     0.31386   0.86966   0.77071   0.00000  Uiso   1.00
C1173  C     0.31033   0.79996   0.72555   0.00000  Uiso   1.00
C1174  C     0.02300   0.86673   0.77442   0.00000  Uiso   1.00
C1175  C     0.29086   0.83514   0.74781   0.00000  Uiso   1.00
C1176  C     0.04248   0.83154   0.75218   0.00000  Uiso   1.00
C1177  C     0.18307   0.69103   0.78555   0.00000  Uiso   1.00
C1178  C     0.15026   0.97564   0.71445   0.00000  Uiso   1.00
C1179  C     0.15035   0.69027   0.71441   0.00000  Uiso   1.00
C1180  C     0.18298   0.97640   0.78559   0.00000  Uiso   1.00
H1181  H     0.19627   0.70947   0.81396   0.00000  Uiso   1.00
H1182  H     0.13707   0.95719   0.68604   0.00000  Uiso   1.00
H1183  H     0.13742   0.70811   0.68589   0.00000  Uiso   1.00
H1184  H     0.19591   0.95856   0.81411   0.00000  Uiso   1.00
N1185  N     0.16667   0.95240   0.75000   0.00000  Uiso   1.00
N1186  N     0.16667   0.71427   0.75000   0.00000  Uiso   1.00
N1187  N     0.23332   0.87258   0.88488   0.00000  Uiso   1.00
O1188  O     0.25401   0.85018   0.85625   0.00000  Uiso   1.00
O1189  O     0.24168   0.91538   0.89188   0.00000  Uiso   1.00
N1190  N     0.09993   0.79425   0.61519   0.00000  Uiso   1.00
O1191  O     0.09186   0.75128   0.60877   0.00000  Uiso   1.00
O1192  O     0.07917   0.81685   0.64361   0.00000  Uiso   1.00
C1193  C     0.10124   0.78965   0.87846   0.00000  Uiso   1.00
N1194  N     0.07648   0.77015   0.85686   0.00000  Uiso   1.00
C1195  C     0.23219   0.87677   0.62155   0.00000  Uiso   1.00
N1196  N     0.25701   0.89618   0.64316   0.00000  Uiso   1.00
N1197  N     0.05473   0.80778   0.94967   0.00000  Uiso   1.00
O1198  O     0.04189   0.84242   0.92662   0.00000  Uiso   1.00
O1199  O     0.03362   0.76981   0.94821   0.00000  Uiso   1.00
N1200  N     0.27865   0.85859   0.55032   0.00000  Uiso   1.00
O1201  O     0.29966   0.89662   0.55201   0.00000  Uiso   1.00
O1202  O     0.29150   0.82389   0.57329   0.00000  Uiso   1.00
N1203  N     0.05469   0.81187   0.54122   0.00000  Uiso   1.00
O1204  O     0.04311   0.84865   0.56061   0.00000  Uiso   1.00
O1205  O     0.03017   0.77644   0.53924   0.00000  Uiso   1.00
N1206  N     0.27868   0.85439   0.95875   0.00000  Uiso   1.00
O1207  O     0.30347   0.88957   0.96111   0.00000  Uiso   1.00
O1208  O     0.28998   0.81774   0.93892   0.00000  Uiso   1.00
C1209  C     0.03860   0.75786   0.70996   0.00000  Uiso   1.00
N1210  N     0.05341   0.72634   0.69481   0.00000  Uiso   1.00
C1211  C     0.29473   0.90883   0.79001   0.00000  Uiso   1.00
N1212  N     0.27992   0.94034   0.80518   0.00000  Uiso   1.00
C1213  C     0.28707   0.76805   0.69678   0.00000  Uiso   1.00
N1214  N     0.26862   0.74274   0.67386   0.00000  Uiso   1.00
C1215  C     0.04626   0.89866   0.80317   0.00000  Uiso   1.00
N1216  N     0.06470   0.92398   0.82608   0.00000  Uiso   1.00
O1217  O     0.43892   0.87154   0.75000   0.00000  Uiso   1.00
O1218  O     0.56108   0.79513   0.75001   0.00000  Uiso   1.00
O1219  O     0.56108   0.87154   0.75001   0.00000  Uiso   1.00
O1220  O     0.43892   0.79513   0.75000   0.00000  Uiso   1.00
C1221  C     0.42002   0.83275   0.75083   0.00000  Uiso   1.00
C1222  C     0.57998   0.83392   0.74917   0.00000  Uiso   1.00
O1223  O     0.49999   0.87156   0.68393   0.00000  Uiso   1.00
O1224  O     0.50001   0.79511   0.81608   0.00000  Uiso   1.00
O1225  O     0.50001   0.87156   0.81608   0.00000  Uiso   1.00
O1226  O     0.49999   0.79511   0.68393   0.00000  Uiso   1.00
C1227  C     0.49988   0.83341   0.66358   0.00000  Uiso   1.00
C1228  C     0.50011   0.83325   0.83642   0.00000  Uiso   1.00
Zn1229 Zn    0.50000   0.88437   0.75000   0.00000  Uiso   1.00
Zn1230 Zn    0.50000   0.78229   0.75000   0.00000  Uiso   1.00
C1231  C     0.53426   0.85036   0.90818   0.00000  Uiso   1.00
C1232  C     0.46572   0.81628   0.59184   0.00000  Uiso   1.00
C1233  C     0.50005   0.83265   0.88417   0.00000  Uiso   1.00
C1234  C     0.49994   0.83399   0.61583   0.00000  Uiso   1.00
C1235  C     0.46603   0.81415   0.90522   0.00000  Uiso   1.00
C1236  C     0.53401   0.85237   0.59478   0.00000  Uiso   1.00
C1237  C     0.46391   0.81874   0.95170   0.00000  Uiso   1.00
C1238  C     0.53613   0.84772   0.54830   0.00000  Uiso   1.00
C1239  C     0.49997   0.83301   0.97663   0.00000  Uiso   1.00
C1240  C     0.50006   0.83345   0.52338   0.00000  Uiso   1.00
C1241  C     0.53607   0.84657   0.95475   0.00000  Uiso   1.00
C1242  C     0.46395   0.81992   0.54526   0.00000  Uiso   1.00
C1243  C     0.42690   0.81051   0.97385   0.00000  Uiso   1.00
C1244  C     0.57315   0.85589   0.52615   0.00000  Uiso   1.00
C1245  C     0.42687   0.81158   0.52027   0.00000  Uiso   1.00
C1246  C     0.57318   0.85480   0.97972   0.00000  Uiso   1.00
C1247  C     0.35281   0.79703   0.72926   0.00000  Uiso   1.00
C1248  C     0.64719   0.86966   0.77071   0.00000  Uiso   1.00
C1249  C     0.64366   0.79996   0.72555   0.00000  Uiso   1.00
C1250  C     0.35634   0.86673   0.77442   0.00000  Uiso   1.00
C1251  C     0.62419   0.83514   0.74781   0.00000  Uiso   1.00
C1252  C     0.37581   0.83154   0.75218   0.00000  Uiso   1.00
C1253  C     0.51641   0.69103   0.78555   0.00000  Uiso   1.00
C1254  C     0.48359   0.97564   0.71445   0.00000  Uiso   1.00
C1255  C     0.48369   0.69027   0.71441   0.00000  Uiso   1.00
C1256  C     0.51631   0.97640   0.78559   0.00000  Uiso   1.00
H1257  H     0.52960   0.70947   0.81396   0.00000  Uiso   1.00
H1258  H     0.47040   0.95719   0.68604   0.00000  Uiso   1.00
H1259  H     0.47075   0.70811   0.68589   0.00000  Uiso   1.00
H1260  H     0.52925   0.95856   0.81411   0.00000  Uiso   1.00
N1261  N     0.50000   0.95240   0.75000   0.00000  Uiso   1.00
N1262  N     0.50000   0.71427   0.75000   0.00000  Uiso   1.00
N1263  N     0.56665   0.87258   0.88488   0.00000  Uiso   1.00
O1264  O     0.58734   0.85018   0.85625   0.00000  Uiso   1.00
O1265  O     0.57501   0.91538   0.89188   0.00000  Uiso   1.00
N1266  N     0.43326   0.79425   0.61519   0.00000  Uiso   1.00
O1267  O     0.42520   0.75128   0.60877   0.00000  Uiso   1.00
O1268  O     0.41251   0.81685   0.64361   0.00000  Uiso   1.00
C1269  C     0.43458   0.78965   0.87846   0.00000  Uiso   1.00
N1270  N     0.40981   0.77015   0.85686   0.00000  Uiso   1.00
C1271  C     0.56552   0.87677   0.62155   0.00000  Uiso   1.00
N1272  N     0.59034   0.89618   0.64316   0.00000  Uiso   1.00
N1273  N     0.38806   0.80778   0.94967   0.00000  Uiso   1.00
O1274  O     0.37522   0.84242   0.92662   0.00000  Uiso   1.00
O1275  O     0.36695   0.76981   0.94821   0.00000  Uiso   1.00
N1276  N     0.61198   0.85859   0.55032   0.00000  Uiso   1.00
O1277  O     0.63299   0.89662   0.55201   0.00000  Uiso   1.00
O1278  O     0.62483   0.82389   0.57329   0.00000  Uiso   1.00
N1279  N     0.38803   0.81187   0.54122   0.00000  Uiso   1.00
O1280  O     0.37644   0.84865   0.56061   0.00000  Uiso   1.00
O1281  O     0.36351   0.77644   0.53924   0.00000  Uiso   1.00
N1282  N     0.61201   0.85439   0.95875   0.00000  Uiso   1.00
O1283  O     0.63681   0.88957   0.96111   0.00000  Uiso   1.00
O1284  O     0.62331   0.81774   0.93892   0.00000  Uiso   1.00
C1285  C     0.37193   0.75786   0.70996   0.00000  Uiso   1.00
N1286  N     0.38674   0.72634   0.69481   0.00000  Uiso   1.00
C1287  C     0.62807   0.90883   0.79001   0.00000  Uiso   1.00
N1288  N     0.61325   0.94034   0.80518   0.00000  Uiso   1.00
C1289  C     0.62040   0.76805   0.69678   0.00000  Uiso   1.00
N1290  N     0.60196   0.74274   0.67386   0.00000  Uiso   1.00
C1291  C     0.37959   0.89866   0.80317   0.00000  Uiso   1.00
N1292  N     0.39804   0.92398   0.82608   0.00000  Uiso   1.00
O1293  O     0.77226   0.87154   0.75000   0.00000  Uiso   1.00
O1294  O     0.89441   0.79513   0.75001   0.00000  Uiso   1.00
O1295  O     0.89441   0.87154   0.75001   0.00000  Uiso   1.00
O1296  O     0.77226   0.79513   0.75000   0.00000  Uiso   1.00
C1297  C     0.75336   0.83275   0.75083   0.00000  Uiso   1.00
C1298  C     0.91331   0.83392   0.74917   0.00000  Uiso   1.00
O1299  O     0.83333   0.87156   0.68393   0.00000  Uiso   1.00
O1300  O     0.83334   0.79511   0.81608   0.00000  Uiso   1.00
O1301  O     0.83334   0.87156   0.81608   0.00000  Uiso   1.00
O1302  O     0.83333   0.79511   0.68393   0.00000  Uiso   1.00
C1303  C     0.83321   0.83341   0.66358   0.00000  Uiso   1.00
C1304  C     0.83344   0.83325   0.83642   0.00000  Uiso   1.00
Zn1305 Zn    0.83333   0.88437   0.75000   0.00000  Uiso   1.00
Zn1306 Zn    0.83333   0.78229   0.75000   0.00000  Uiso   1.00
C1307  C     0.86759   0.85036   0.90818   0.00000  Uiso   1.00
C1308  C     0.79906   0.81628   0.59184   0.00000  Uiso   1.00
C1309  C     0.83339   0.83265   0.88417   0.00000  Uiso   1.00
C1310  C     0.83327   0.83399   0.61583   0.00000  Uiso   1.00
C1311  C     0.79936   0.81415   0.90522   0.00000  Uiso   1.00
C1312  C     0.86735   0.85237   0.59478   0.00000  Uiso   1.00
C1313  C     0.79724   0.81874   0.95170   0.00000  Uiso   1.00
C1314  C     0.86946   0.84772   0.54830   0.00000  Uiso   1.00
C1315  C     0.83331   0.83301   0.97663   0.00000  Uiso   1.00
C1316  C     0.83339   0.83345   0.52338   0.00000  Uiso   1.00
C1317  C     0.86940   0.84657   0.95475   0.00000  Uiso   1.00
C1318  C     0.79729   0.81992   0.54526   0.00000  Uiso   1.00
C1319  C     0.76023   0.81051   0.97385   0.00000  Uiso   1.00
C1320  C     0.90649   0.85589   0.52615   0.00000  Uiso   1.00
C1321  C     0.76020   0.81158   0.52027   0.00000  Uiso   1.00
C1322  C     0.90651   0.85480   0.97972   0.00000  Uiso   1.00
C1323  C     0.68614   0.79703   0.72926   0.00000  Uiso   1.00
C1324  C     0.98052   0.86966   0.77071   0.00000  Uiso   1.00
C1325  C     0.97700   0.79996   0.72555   0.00000  Uiso   1.00
C1326  C     0.68967   0.86673   0.77442   0.00000  Uiso   1.00
C1327  C     0.95752   0.83514   0.74781   0.00000  Uiso   1.00
C1328  C     0.70914   0.83154   0.75218   0.00000  Uiso   1.00
C1329  C     0.84974   0.69103   0.78555   0.00000  Uiso   1.00
C1330  C     0.81692   0.97564   0.71445   0.00000  Uiso   1.00
C1331  C     0.81702   0.69027   0.71441   0.00000  Uiso   1.00
C1332  C     0.84965   0.97640   0.78559   0.00000  Uiso   1.00
H1333  H     0.86293   0.70947   0.81396   0.00000  Uiso   1.00
H1334  H     0.80373   0.95719   0.68604   0.00000  Uiso   1.00
H1335  H     0.80409   0.70811   0.68589   0.00000  Uiso   1.00
H1336  H     0.86258   0.95856   0.81411   0.00000  Uiso   1.00
N1337  N     0.83333   0.95240   0.75000   0.00000  Uiso   1.00
N1338  N     0.83333   0.71427   0.75000   0.00000  Uiso   1.00
N1339  N     0.89999   0.87258   0.88488   0.00000  Uiso   1.00
O1340  O     0.92067   0.85018   0.85625   0.00000  Uiso   1.00
O1341  O     0.90835   0.91538   0.89188   0.00000  Uiso   1.00
N1342  N     0.76660   0.79425   0.61519   0.00000  Uiso   1.00
O1343  O     0.75853   0.75128   0.60877   0.00000  Uiso   1.00
O1344  O     0.74584   0.81685   0.64361   0.00000  Uiso   1.00
C1345  C     0.76791   0.78965   0.87846   0.00000  Uiso   1.00
N1346  N     0.74314   0.77015   0.85686   0.00000  Uiso   1.00
C1347  C     0.89886   0.87677   0.62155   0.00000  Uiso   1.00
N1348  N     0.92367   0.89618   0.64316   0.00000  Uiso   1.00
N1349  N     0.72140   0.80778   0.94967   0.00000  Uiso   1.00
O1350  O     0.70856   0.84242   0.92662   0.00000  Uiso   1.00
O1351  O     0.70028   0.76981   0.94821   0.00000  Uiso   1.00
N1352  N     0.94532   0.85859   0.55032   0.00000  Uiso   1.00
O1353  O     0.96632   0.89662   0.55201   0.00000  Uiso   1.00
O1354  O     0.95817   0.82389   0.57329   0.00000  Uiso   1.00
N1355  N     0.72136   0.81187   0.54122   0.00000  Uiso   1.00
O1356  O     0.70977   0.84865   0.56061   0.00000  Uiso   1.00
O1357  O     0.69684   0.77644   0.53924   0.00000  Uiso   1.00
N1358  N     0.94534   0.85439   0.95875   0.00000  Uiso   1.00
O1359  O     0.97014   0.88957   0.96111   0.00000  Uiso   1.00
O1360  O     0.95665   0.81774   0.93892   0.00000  Uiso   1.00
C1361  C     0.70527   0.75786   0.70996   0.00000  Uiso   1.00
N1362  N     0.72008   0.72634   0.69481   0.00000  Uiso   1.00
C1363  C     0.96140   0.90883   0.79001   0.00000  Uiso   1.00
N1364  N     0.94659   0.94034   0.80518   0.00000  Uiso   1.00
C1365  C     0.95374   0.76805   0.69678   0.00000  Uiso   1.00
N1366  N     0.93529   0.74274   0.67386   0.00000  Uiso   1.00
C1367  C     0.71293   0.89866   0.80317   0.00000  Uiso   1.00
N1368  N     0.73137   0.92398   0.82608   0.00000  Uiso   1.00
loop_
_geom_bond_atom_site_label_1
_geom_bond_atom_site_label_2
_geom_bond_distance
_geom_bond_site_symmetry_2
_ccdc_geom_bond_type
O1     C5      1.288   .     A
O1     Zn13    2.015   .     S
O2     C6      1.288   .     A
O2     Zn14    2.015   .     S
O3     C6      1.280   .     A
O3     Zn13    2.030   .     S
O4     C5      1.280   .     A
O4     Zn14    2.030   .     S
C5     C36     1.440   .     S
C6     C35     1.440   .     S
O7     C11     1.280   .     A
O7     Zn13    2.020   .     S
O8     C12     1.280   .     A
O8     Zn14    2.020   .     S
O9     Zn13    2.020   .     S
O9     C12     1.284   .     A
O10    Zn14    2.020   .     S
O10    C11     1.284   .     A
C11    C18     1.434   .     S
C12    C17     1.434   .     S
Zn13   N45     2.006   .     S
Zn14   N46     2.006   .     S
C15    N47     1.434   .     S
C15    C25     1.402   .     A
C15    C17     1.394   .     A
C16    N50     1.434   .     S
C16    C26     1.402   .     A
C16    C18     1.394   .     A
C17    C19     1.397   .     A
C18    C20     1.397   .     A
C19    C21     1.407   .     A
C19    C53     1.456   .     S
C20    C55     1.456   .     S
C20    C22     1.407   .     A
C21    C27     1.415   .     A
C21    C23     1.423   .     A
C22    C28     1.415   .     A
C22    C24     1.423   .     A
C23    C25     1.418   .     A
C23    C708    1.404   .     S
C24    C26     1.418   .     A
C24    C707    1.404   1_554 S
C25    C30     1.413   .     A
C26    C29     1.413   .     A
C27    N57     1.433   .     S
C27    C713    1.395   .     S
C28    N60     1.433   .     S
C28    C714    1.395   1_554 S
C29    N63     1.433   .     S
C29    C711    1.395   1_554 S
C30    N66     1.434   .     S
C30    C712    1.395   .     S
C31    C69     1.454   .     S
C31    C36     1.414   .     A
C31    C185    1.386   1_455 S
C32    C71     1.454   .     S
C32    C35     1.414   .     A
C32    C110    1.386   .     S
C33    C73     1.458   .     S
C33    C35     1.409   .     A
C33    C107    1.386   .     S
C34    C75     1.458   .     S
C34    C36     1.409   .     A
C34    C184    1.386   1_455 S
C37    H41     1.081   .     S
C37    N46     1.366   .     A
C37    C496    1.414   1_545 S
C38    H42     1.081   .     S
C38    N45     1.366   .     A
C38    C267    1.414   .     S
C39    H43     1.081   .     S
C39    N46     1.366   .     A
C39    C494    1.414   1_545 S
C40    H44     1.081   .     S
C40    N45     1.366   .     A
C40    C265    1.414   .     S
N47    O49     1.301   .     A
N47    O48     1.301   .     A
N50    O52     1.301   .     A
N50    O51     1.301   .     A
C53    N54     1.158   .     T
C55    N56     1.158   .     T
N57    O58     1.301   .     A
N57    O59     1.301   .     A
N60    O62     1.301   .     A
N60    O61     1.301   .     A
N63    O65     1.301   .     A
N63    O64     1.301   .     A
N66    O68     1.300   .     A
N66    O67     1.301   .     A
C69    N70     1.157   .     T
C71    N72     1.157   .     T
C73    N74     1.158   .     T
C75    N76     1.158   .     T
O77    C81     1.288   .     A
O77    Zn89    2.015   .     S
O78    C82     1.288   .     A
O78    Zn90    2.015   .     S
O79    C82     1.280   .     A
O79    Zn89    2.030   .     S
O80    C81     1.280   .     A
O80    Zn90    2.030   .     S
C81    C112    1.440   .     S
C82    C111    1.440   .     S
O83    C87     1.280   .     A
O83    Zn89    2.020   .     S
O84    C88     1.280   .     A
O84    Zn90    2.020   .     S
O85    Zn89    2.020   .     S
O85    C88     1.284   .     A
O86    Zn90    2.020   .     S
O86    C87     1.284   .     A
C87    C94     1.434   .     S
C88    C93     1.434   .     S
Zn89   N121    2.006   .     S
Zn90   N122    2.006   .     S
C91    N123    1.434   .     S
C91    C101    1.402   .     A
C91    C93     1.394   .     A
C92    N126    1.434   .     S
C92    C102    1.402   .     A
C92    C94     1.394   .     A
C93    C95     1.397   .     A
C94    C96     1.397   .     A
C95    C97     1.407   .     A
C95    C129    1.456   .     S
C96    C131    1.456   .     S
C96    C98     1.407   .     A
C97    C103    1.415   .     A
C97    C99     1.423   .     A
C98    C104    1.415   .     A
C98    C100    1.423   .     A
C99    C101    1.418   .     A
C99    C784    1.404   .     S
C100   C102    1.418   .     A
C100   C783    1.404   1_554 S
C101   C106    1.413   .     A
C102   C105    1.413   .     A
C103   N133    1.433   .     S
C103   C789    1.395   .     S
C104   N136    1.433   .     S
C104   C790    1.395   1_554 S
C105   N139    1.433   .     S
C105   C787    1.395   1_554 S
C106   N142    1.434   .     S
C106   C788    1.395   .     S
C107   C145    1.454   .     S
C107   C112    1.414   .     A
C108   C147    1.454   .     S
C108   C111    1.414   .     A
C108   C186    1.386   .     S
C109   C149    1.458   .     S
C109   C111    1.409   .     A
C109   C183    1.386   .     S
C110   C151    1.458   .     S
C110   C112    1.409   .     A
C113   H117    1.081   .     S
C113   N122    1.366   .     A
C113   C572    1.414   1_545 S
C114   H118    1.081   .     S
C114   N121    1.366   .     A
C114   C343    1.414   .     S
C115   H119    1.081   .     S
C115   N122    1.366   .     A
C115   C570    1.414   1_545 S
C116   H120    1.081   .     S
C116   N121    1.366   .     A
C116   C341    1.414   .     S
N123   O125    1.301   .     A
N123   O124    1.301   .     A
N126   O128    1.301   .     A
N126   O127    1.301   .     A
C129   N130    1.158   .     T
C131   N132    1.158   .     T
N133   O134    1.301   .     A
N133   O135    1.301   .     A
N136   O138    1.301   .     A
N136   O137    1.301   .     A
N139   O141    1.301   .     A
N139   O140    1.301   .     A
N142   O144    1.300   .     A
N142   O143    1.301   .     A
C145   N146    1.157   .     T
C147   N148    1.157   .     T
C149   N150    1.158   .     T
C151   N152    1.158   .     T
O153   C157    1.288   .     A
O153   Zn165   2.015   .     S
O154   C158    1.288   .     A
O154   Zn166   2.015   .     S
O155   C158    1.280   .     A
O155   Zn165   2.030   .     S
O156   C157    1.280   .     A
O156   Zn166   2.030   .     S
C157   C188    1.440   .     S
C158   C187    1.440   .     S
O159   C163    1.280   .     A
O159   Zn165   2.020   .     S
O160   C164    1.280   .     A
O160   Zn166   2.020   .     S
O161   Zn165   2.020   .     S
O161   C164    1.284   .     A
O162   Zn166   2.020   .     S
O162   C163    1.284   .     A
C163   C170    1.434   .     S
C164   C169    1.434   .     S
Zn165  N197    2.006   .     S
Zn166  N198    2.006   .     S
C167   N199    1.434   .     S
C167   C177    1.402   .     A
C167   C169    1.394   .     A
C168   N202    1.434   .     S
C168   C178    1.402   .     A
C168   C170    1.394   .     A
C169   C171    1.397   .     A
C170   C172    1.397   .     A
C171   C173    1.407   .     A
C171   C205    1.456   .     S
C172   C207    1.456   .     S
C172   C174    1.407   .     A
C173   C179    1.415   .     A
C173   C175    1.423   .     A
C174   C180    1.415   .     A
C174   C176    1.423   .     A
C175   C177    1.418   .     A
C175   C860    1.404   .     S
C176   C178    1.418   .     A
C176   C859    1.404   1_554 S
C177   C182    1.413   .     A
C178   C181    1.413   .     A
C179   N209    1.433   .     S
C179   C865    1.395   .     S
C180   N212    1.433   .     S
C180   C866    1.395   1_554 S
C181   N215    1.433   .     S
C181   C863    1.395   1_554 S
C182   N218    1.434   .     S
C182   C864    1.395   .     S
C183   C221    1.454   .     S
C183   C188    1.414   .     A
C184   C223    1.454   .     S
C184   C187    1.414   .     A
C184   C34     1.386   1_655 S
C185   C225    1.458   .     S
C185   C187    1.409   .     A
C185   C31     1.386   1_655 S
C186   C227    1.458   .     S
C186   C188    1.409   .     A
C189   H193    1.081   .     S
C189   N198    1.366   .     A
C189   C648    1.414   1_545 S
C190   H194    1.081   .     S
C190   N197    1.366   .     A
C190   C419    1.414   .     S
C191   H195    1.081   .     S
C191   N198    1.366   .     A
C191   C646    1.414   1_545 S
C192   H196    1.081   .     S
C192   N197    1.366   .     A
C192   C417    1.414   .     S
N199   O201    1.301   .     A
N199   O200    1.301   .     A
N202   O204    1.301   .     A
N202   O203    1.301   .     A
C205   N206    1.158   .     T
C207   N208    1.158   .     T
N209   O210    1.301   .     A
N209   O211    1.301   .     A
N212   O214    1.301   .     A
N212   O213    1.301   .     A
N215   O217    1.301   .     A
N215   O216    1.301   .     A
N218   O220    1.300   .     A
N218   O219    1.301   .     A
C221   N222    1.157   .     T
C223   N224    1.157   .     T
C225   N226    1.158   .     T
C227   N228    1.158   .     T
O229   C233    1.288   .     A
O229   Zn241   2.015   .     S
O230   C234    1.288   .     A
O230   Zn242   2.015   .     S
O231   C234    1.280   .     A
O231   Zn241   2.030   .     S
O232   C233    1.280   .     A
O232   Zn242   2.030   .     S
C233   C264    1.440   .     S
C234   C263    1.440   .     S
O235   C239    1.280   .     A
O235   Zn241   2.020   .     S
O236   C240    1.280   .     A
O236   Zn242   2.020   .     S
O237   Zn241   2.020   .     S
O237   C240    1.284   .     A
O238   Zn242   2.020   .     S
O238   C239    1.284   .     A
C239   C246    1.434   .     S
C240   C245    1.434   .     S
Zn241  N273    2.006   .     S
Zn242  N274    2.006   .     S
C243   N275    1.434   .     S
C243   C253    1.402   .     A
C243   C245    1.394   .     A
C244   N278    1.434   .     S
C244   C254    1.402   .     A
C244   C246    1.394   .     A
C245   C247    1.397   .     A
C246   C248    1.397   .     A
C247   C249    1.407   .     A
C247   C281    1.456   .     S
C248   C283    1.456   .     S
C248   C250    1.407   .     A
C249   C255    1.415   .     A
C249   C251    1.423   .     A
C250   C256    1.415   .     A
C250   C252    1.423   .     A
C251   C253    1.418   .     A
C251   C936    1.404   .     S
C252   C254    1.418   .     A
C252   C935    1.404   1_554 S
C253   C258    1.413   .     A
C254   C257    1.413   .     A
C255   N285    1.433   .     S
C255   C941    1.395   .     S
C256   N288    1.433   .     S
C256   C942    1.395   1_554 S
C257   N291    1.433   .     S
C257   C939    1.395   1_554 S
C258   N294    1.434   .     S
C258   C940    1.395   .     S
C259   C297    1.454   .     S
C259   C264    1.414   .     A
C259   C413    1.386   1_455 S
C260   C299    1.454   .     S
C260   C263    1.414   .     A
C260   C338    1.386   .     S
C261   C301    1.458   .     S
C261   C263    1.409   .     A
C261   C335    1.386   .     S
C262   C303    1.458   .     S
C262   C264    1.409   .     A
C262   C412    1.386   1_455 S
C265   H269    1.081   .     S
C265   N274    1.366   .     A
C266   H270    1.081   .     S
C266   N273    1.366   .     A
C266   C495    1.414   .     S
C267   H271    1.081   .     S
C267   N274    1.366   .     A
C268   H272    1.081   .     S
C268   N273    1.366   .     A
C268   C493    1.414   .     S
N275   O277    1.301   .     A
N275   O276    1.301   .     A
N278   O280    1.301   .     A
N278   O279    1.301   .     A
C281   N282    1.158   .     T
C283   N284    1.158   .     T
N285   O286    1.301   .     A
N285   O287    1.301   .     A
N288   O290    1.301   .     A
N288   O289    1.301   .     A
N291   O293    1.301   .     A
N291   O292    1.301   .     A
N294   O296    1.300   .     A
N294   O295    1.301   .     A
C297   N298    1.157   .     T
C299   N300    1.157   .     T
C301   N302    1.158   .     T
C303   N304    1.158   .     T
O305   C309    1.288   .     A
O305   Zn317   2.015   .     S
O306   C310    1.288   .     A
O306   Zn318   2.015   .     S
O307   C310    1.280   .     A
O307   Zn317   2.030   .     S
O308   C309    1.280   .     A
O308   Zn318   2.030   .     S
C309   C340    1.440   .     S
C310   C339    1.440   .     S
O311   C315    1.280   .     A
O311   Zn317   2.020   .     S
O312   C316    1.280   .     A
O312   Zn318   2.020   .     S
O313   Zn317   2.020   .     S
O313   C316    1.284   .     A
O314   Zn318   2.020   .     S
O314   C315    1.284   .     A
C315   C322    1.434   .     S
C316   C321    1.434   .     S
Zn317  N349    2.006   .     S
Zn318  N350    2.006   .     S
C319   N351    1.434   .     S
C319   C329    1.402   .     A
C319   C321    1.394   .     A
C320   N354    1.434   .     S
C320   C330    1.402   .     A
C320   C322    1.394   .     A
C321   C323    1.397   .     A
C322   C324    1.397   .     A
C323   C325    1.407   .     A
C323   C357    1.456   .     S
C324   C359    1.456   .     S
C324   C326    1.407   .     A
C325   C331    1.415   .     A
C325   C327    1.423   .     A
C326   C332    1.415   .     A
C326   C328    1.423   .     A
C327   C329    1.418   .     A
C327   C1012   1.404   .     S
C328   C330    1.418   .     A
C328   C1011   1.404   1_554 S
C329   C334    1.413   .     A
C330   C333    1.413   .     A
C331   N361    1.433   .     S
C331   C1017   1.395   .     S
C332   N364    1.433   .     S
C332   C1018   1.395   1_554 S
C333   N367    1.433   .     S
C333   C1015   1.395   1_554 S
C334   N370    1.434   .     S
C334   C1016   1.395   .     S
C335   C373    1.454   .     S
C335   C340    1.414   .     A
C336   C375    1.454   .     S
C336   C339    1.414   .     A
C336   C414    1.386   .     S
C337   C377    1.458   .     S
C337   C339    1.409   .     A
C337   C411    1.386   .     S
C338   C379    1.458   .     S
C338   C340    1.409   .     A
C341   H345    1.081   .     S
C341   N350    1.366   .     A
C342   H346    1.081   .     S
C342   N349    1.366   .     A
C342   C571    1.414   .     S
C343   H347    1.081   .     S
C343   N350    1.366   .     A
C344   H348    1.081   .     S
C344   N349    1.366   .     A
C344   C569    1.414   .     S
N351   O353    1.301   .     A
N351   O352    1.301   .     A
N354   O356    1.301   .     A
N354   O355    1.301   .     A
C357   N358    1.158   .     T
C359   N360    1.158   .     T
N361   O362    1.301   .     A
N361   O363    1.301   .     A
N364   O366    1.301   .     A
N364   O365    1.301   .     A
N367   O369    1.301   .     A
N367   O368    1.301   .     A
N370   O372    1.300   .     A
N370   O371    1.301   .     A
C373   N374    1.157   .     T
C375   N376    1.157   .     T
C377   N378    1.158   .     T
C379   N380    1.158   .     T
O381   C385    1.288   .     A
O381   Zn393   2.015   .     S
O382   C386    1.288   .     A
O382   Zn394   2.015   .     S
O383   C386    1.280   .     A
O383   Zn393   2.030   .     S
O384   C385    1.280   .     A
O384   Zn394   2.030   .     S
C385   C416    1.440   .     S
C386   C415    1.440   .     S
O387   C391    1.280   .     A
O387   Zn393   2.020   .     S
O388   C392    1.280   .     A
O388   Zn394   2.020   .     S
O389   Zn393   2.020   .     S
O389   C392    1.284   .     A
O390   Zn394   2.020   .     S
O390   C391    1.284   .     A
C391   C398    1.434   .     S
C392   C397    1.434   .     S
Zn393  N425    2.006   .     S
Zn394  N426    2.006   .     S
C395   N427    1.434   .     S
C395   C405    1.402   .     A
C395   C397    1.394   .     A
C396   N430    1.434   .     S
C396   C406    1.402   .     A
C396   C398    1.394   .     A
C397   C399    1.397   .     A
C398   C400    1.397   .     A
C399   C401    1.407   .     A
C399   C433    1.456   .     S
C400   C435    1.456   .     S
C400   C402    1.407   .     A
C401   C407    1.415   .     A
C401   C403    1.423   .     A
C402   C408    1.415   .     A
C402   C404    1.423   .     A
C403   C405    1.418   .     A
C403   C1088   1.404   .     S
C404   C406    1.418   .     A
C404   C1087   1.404   1_554 S
C405   C410    1.413   .     A
C406   C409    1.413   .     A
C407   N437    1.433   .     S
C407   C1093   1.395   .     S
C408   N440    1.433   .     S
C408   C1094   1.395   1_554 S
C409   N443    1.433   .     S
C409   C1091   1.395   1_554 S
C410   N446    1.434   .     S
C410   C1092   1.395   .     S
C411   C449    1.454   .     S
C411   C416    1.414   .     A
C412   C451    1.454   .     S
C412   C415    1.414   .     A
C412   C262    1.386   1_655 S
C413   C453    1.458   .     S
C413   C415    1.409   .     A
C413   C259    1.386   1_655 S
C414   C455    1.458   .     S
C414   C416    1.409   .     A
C417   H421    1.081   .     S
C417   N426    1.366   .     A
C418   H422    1.081   .     S
C418   N425    1.366   .     A
C418   C647    1.414   .     S
C419   H423    1.081   .     S
C419   N426    1.366   .     A
C420   H424    1.081   .     S
C420   N425    1.366   .     A
C420   C645    1.414   .     S
N427   O429    1.301   .     A
N427   O428    1.301   .     A
N430   O432    1.301   .     A
N430   O431    1.301   .     A
C433   N434    1.158   .     T
C435   N436    1.158   .     T
N437   O438    1.301   .     A
N437   O439    1.301   .     A
N440   O442    1.301   .     A
N440   O441    1.301   .     A
N443   O445    1.301   .     A
N443   O444    1.301   .     A
N446   O448    1.300   .     A
N446   O447    1.301   .     A
C449   N450    1.157   .     T
C451   N452    1.157   .     T
C453   N454    1.158   .     T
C455   N456    1.158   .     T
O457   C461    1.288   .     A
O457   Zn469   2.015   .     S
O458   C462    1.288   .     A
O458   Zn470   2.015   .     S
O459   C462    1.280   .     A
O459   Zn469   2.030   .     S
O460   C461    1.280   .     A
O460   Zn470   2.030   .     S
C461   C492    1.440   .     S
C462   C491    1.440   .     S
O463   C467    1.280   .     A
O463   Zn469   2.020   .     S
O464   C468    1.280   .     A
O464   Zn470   2.020   .     S
O465   Zn469   2.020   .     S
O465   C468    1.284   .     A
O466   Zn470   2.020   .     S
O466   C467    1.284   .     A
C467   C474    1.434   .     S
C468   C473    1.434   .     S
Zn469  N501    2.006   .     S
Zn470  N502    2.006   .     S
C471   N503    1.434   .     S
C471   C481    1.402   .     A
C471   C473    1.394   .     A
C472   N506    1.434   .     S
C472   C482    1.402   .     A
C472   C474    1.394   .     A
C473   C475    1.397   .     A
C474   C476    1.397   .     A
C475   C477    1.407   .     A
C475   C509    1.456   .     S
C476   C511    1.456   .     S
C476   C478    1.407   .     A
C477   C483    1.415   .     A
C477   C479    1.423   .     A
C478   C484    1.415   .     A
C478   C480    1.423   .     A
C479   C481    1.418   .     A
C479   C1164   1.404   .     S
C480   C482    1.418   .     A
C480   C1163   1.404   1_554 S
C481   C486    1.413   .     A
C482   C485    1.413   .     A
C483   N513    1.433   .     S
C483   C1169   1.395   .     S
C484   N516    1.433   .     S
C484   C1170   1.395   1_554 S
C485   N519    1.433   .     S
C485   C1167   1.395   1_554 S
C486   N522    1.434   .     S
C486   C1168   1.395   .     S
C487   C525    1.454   .     S
C487   C492    1.414   .     A
C487   C641    1.386   1_455 S
C488   C527    1.454   .     S
C488   C491    1.414   .     A
C488   C566    1.386   .     S
C489   C529    1.458   .     S
C489   C491    1.409   .     A
C489   C563    1.386   .     S
C490   C531    1.458   .     S
C490   C492    1.409   .     A
C490   C640    1.386   1_455 S
C493   H497    1.081   .     S
C493   N502    1.366   .     A
C494   H498    1.081   .     S
C494   N501    1.366   .     A
C494   C39     1.414   1_565 S
C495   H499    1.081   .     S
C495   N502    1.366   .     A
C496   H500    1.081   .     S
C496   N501    1.366   .     A
C496   C37     1.414   1_565 S
N503   O505    1.301   .     A
N503   O504    1.301   .     A
N506   O508    1.301   .     A
N506   O507    1.301   .     A
C509   N510    1.158   .     T
C511   N512    1.158   .     T
N513   O514    1.301   .     A
N513   O515    1.301   .     A
N516   O518    1.301   .     A
N516   O517    1.301   .     A
N519   O521    1.301   .     A
N519   O520    1.301   .     A
N522   O524    1.300   .     A
N522   O523    1.301   .     A
C525   N526    1.157   .     T
C527   N528    1.157   .     T
C529   N530    1.158   .     T
C531   N532    1.158   .     T
O533   C537    1.288   .     A
O533   Zn545   2.015   .     S
O534   C538    1.288   .     A
O534   Zn546   2.015   .     S
O535   C538    1.280   .     A
O535   Zn545   2.030   .     S
O536   C537    1.280   .     A
O536   Zn546   2.030   .     S
C537   C568    1.440   .     S
C538   C567    1.440   .     S
O539   C543    1.280   .     A
O539   Zn545   2.020   .     S
O540   C544    1.280   .     A
O540   Zn546   2.020   .     S
O541   Zn545   2.020   .     S
O541   C544    1.284   .     A
O542   Zn546   2.020   .     S
O542   C543    1.284   .     A
C543   C550    1.434   .     S
C544   C549    1.434   .     S
Zn545  N577    2.006   .     S
Zn546  N578    2.006   .     S
C547   N579    1.434   .     S
C547   C557    1.402   .     A
C547   C549    1.394   .     A
C548   N582    1.434   .     S
C548   C558    1.402   .     A
C548   C550    1.394   .     A
C549   C551    1.397   .     A
C550   C552    1.397   .     A
C551   C553    1.407   .     A
C551   C585    1.456   .     S
C552   C587    1.456   .     S
C552   C554    1.407   .     A
C553   C559    1.415   .     A
C553   C555    1.423   .     A
C554   C560    1.415   .     A
C554   C556    1.423   .     A
C555   C557    1.418   .     A
C555   C1240   1.404   .     S
C556   C558    1.418   .     A
C556   C1239   1.404   1_554 S
C557   C562    1.413   .     A
C558   C561    1.413   .     A
C559   N589    1.433   .     S
C559   C1245   1.395   .     S
C560   N592    1.433   .     S
C560   C1246   1.395   1_554 S
C561   N595    1.433   .     S
C561   C1243   1.395   1_554 S
C562   N598    1.434   .     S
C562   C1244   1.395   .     S
C563   C601    1.454   .     S
C563   C568    1.414   .     A
C564   C603    1.454   .     S
C564   C567    1.414   .     A
C564   C642    1.386   .     S
C565   C605    1.458   .     S
C565   C567    1.409   .     A
C565   C639    1.386   .     S
C566   C607    1.458   .     S
C566   C568    1.409   .     A
C569   H573    1.081   .     S
C569   N578    1.366   .     A
C570   H574    1.081   .     S
C570   N577    1.366   .     A
C570   C115    1.414   1_565 S
C571   H575    1.081   .     S
C571   N578    1.366   .     A
C572   H576    1.081   .     S
C572   N577    1.366   .     A
C572   C113    1.414   1_565 S
N579   O581    1.301   .     A
N579   O580    1.301   .     A
N582   O584    1.301   .     A
N582   O583    1.301   .     A
C585   N586    1.158   .     T
C587   N588    1.158   .     T
N589   O590    1.301   .     A
N589   O591    1.301   .     A
N592   O594    1.301   .     A
N592   O593    1.301   .     A
N595   O597    1.301   .     A
N595   O596    1.301   .     A
N598   O600    1.300   .     A
N598   O599    1.301   .     A
C601   N602    1.157   .     T
C603   N604    1.157   .     T
C605   N606    1.158   .     T
C607   N608    1.158   .     T
O609   C613    1.288   .     A
O609   Zn621   2.015   .     S
O610   C614    1.288   .     A
O610   Zn622   2.015   .     S
O611   C614    1.280   .     A
O611   Zn621   2.030   .     S
O612   C613    1.280   .     A
O612   Zn622   2.030   .     S
C613   C644    1.440   .     S
C614   C643    1.440   .     S
O615   C619    1.280   .     A
O615   Zn621   2.020   .     S
O616   C620    1.280   .     A
O616   Zn622   2.020   .     S
O617   Zn621   2.020   .     S
O617   C620    1.284   .     A
O618   Zn622   2.020   .     S
O618   C619    1.284   .     A
C619   C626    1.434   .     S
C620   C625    1.434   .     S
Zn621  N653    2.006   .     S
Zn622  N654    2.006   .     S
C623   N655    1.434   .     S
C623   C633    1.402   .     A
C623   C625    1.394   .     A
C624   N658    1.434   .     S
C624   C634    1.402   .     A
C624   C626    1.394   .     A
C625   C627    1.397   .     A
C626   C628    1.397   .     A
C627   C629    1.407   .     A
C627   C661    1.456   .     S
C628   C663    1.456   .     S
C628   C630    1.407   .     A
C629   C635    1.415   .     A
C629   C631    1.423   .     A
C630   C636    1.415   .     A
C630   C632    1.423   .     A
C631   C633    1.418   .     A
C631   C1316   1.404   .     S
C632   C634    1.418   .     A
C632   C1315   1.404   1_554 S
C633   C638    1.413   .     A
C634   C637    1.413   .     A
C635   N665    1.433   .     S
C635   C1321   1.395   .     S
C636   N668    1.433   .     S
C636   C1322   1.395   1_554 S
C637   N671    1.433   .     S
C637   C1319   1.395   1_554 S
C638   N674    1.434   .     S
C638   C1320   1.395   .     S
C639   C677    1.454   .     S
C639   C644    1.414   .     A
C640   C679    1.454   .     S
C640   C643    1.414   .     A
C640   C490    1.386   1_655 S
C641   C681    1.458   .     S
C641   C643    1.409   .     A
C641   C487    1.386   1_655 S
C642   C683    1.458   .     S
C642   C644    1.409   .     A
C645   H649    1.081   .     S
C645   N654    1.366   .     A
C646   H650    1.081   .     S
C646   N653    1.366   .     A
C646   C191    1.414   1_565 S
C647   H651    1.081   .     S
C647   N654    1.366   .     A
C648   H652    1.081   .     S
C648   N653    1.366   .     A
C648   C189    1.414   1_565 S
N655   O657    1.301   .     A
N655   O656    1.301   .     A
N658   O660    1.301   .     A
N658   O659    1.301   .     A
C661   N662    1.158   .     T
C663   N664    1.158   .     T
N665   O666    1.301   .     A
N665   O667    1.301   .     A
N668   O670    1.301   .     A
N668   O669    1.301   .     A
N671   O673    1.301   .     A
N671   O672    1.301   .     A
N674   O676    1.300   .     A
N674   O675    1.301   .     A
C677   N678    1.157   .     T
C679   N680    1.157   .     T
C681   N682    1.158   .     T
C683   N684    1.158   .     T
O685   C689    1.288   .     A
O685   Zn697   2.015   .     S
O686   C690    1.288   .     A
O686   Zn698   2.015   .     S
O687   C690    1.280   .     A
O687   Zn697   2.030   .     S
O688   C689    1.280   .     A
O688   Zn698   2.030   .     S
C689   C720    1.440   .     S
C690   C719    1.440   .     S
O691   C695    1.280   .     A
O691   Zn697   2.020   .     S
O692   C696    1.280   .     A
O692   Zn698   2.020   .     S
O693   Zn697   2.020   .     S
O693   C696    1.284   .     A
O694   Zn698   2.020   .     S
O694   C695    1.284   .     A
C695   C702    1.434   .     S
C696   C701    1.434   .     S
Zn697  N729    2.006   .     S
Zn698  N730    2.006   .     S
C699   N731    1.434   .     S
C699   C709    1.402   .     A
C699   C701    1.394   .     A
C700   N734    1.434   .     S
C700   C710    1.402   .     A
C700   C702    1.394   .     A
C701   C703    1.397   .     A
C702   C704    1.397   .     A
C703   C705    1.407   .     A
C703   C737    1.456   .     S
C704   C739    1.456   .     S
C704   C706    1.407   .     A
C705   C711    1.415   .     A
C705   C707    1.423   .     A
C706   C712    1.415   .     A
C706   C708    1.423   .     A
C707   C709    1.418   .     A
C707   C24     1.404   1_556 S
C708   C710    1.418   .     A
C709   C714    1.413   .     A
C710   C713    1.413   .     A
C711   N741    1.433   .     S
C711   C29     1.395   1_556 S
C712   N744    1.433   .     S
C713   N747    1.433   .     S
C714   N750    1.434   .     S
C714   C28     1.395   1_556 S
C715   C753    1.454   .     S
C715   C720    1.414   .     A
C715   C869    1.386   1_455 S
C716   C755    1.454   .     S
C716   C719    1.414   .     A
C716   C794    1.386   .     S
C717   C757    1.458   .     S
C717   C719    1.409   .     A
C717   C791    1.386   .     S
C718   C759    1.458   .     S
C718   C720    1.409   .     A
C718   C868    1.386   1_455 S
C721   H725    1.081   .     S
C721   N730    1.366   .     A
C721   C1180   1.414   1_545 S
C722   H726    1.081   .     S
C722   N729    1.366   .     A
C722   C951    1.414   .     S
C723   H727    1.081   .     S
C723   N730    1.366   .     A
C723   C1178   1.414   1_545 S
C724   H728    1.081   .     S
C724   N729    1.366   .     A
C724   C949    1.414   .     S
N731   O733    1.301   .     A
N731   O732    1.301   .     A
N734   O736    1.301   .     A
N734   O735    1.301   .     A
C737   N738    1.158   .     T
C739   N740    1.158   .     T
N741   O742    1.301   .     A
N741   O743    1.301   .     A
N744   O746    1.301   .     A
N744   O745    1.301   .     A
N747   O749    1.301   .     A
N747   O748    1.301   .     A
N750   O752    1.300   .     A
N750   O751    1.301   .     A
C753   N754    1.157   .     T
C755   N756    1.157   .     T
C757   N758    1.158   .     T
C759   N760    1.158   .     T
O761   C765    1.288   .     A
O761   Zn773   2.015   .     S
O762   C766    1.288   .     A
O762   Zn774   2.015   .     S
O763   C766    1.280   .     A
O763   Zn773   2.030   .     S
O764   C765    1.280   .     A
O764   Zn774   2.030   .     S
C765   C796    1.440   .     S
C766   C795    1.440   .     S
O767   C771    1.280   .     A
O767   Zn773   2.020   .     S
O768   C772    1.280   .     A
O768   Zn774   2.020   .     S
O769   Zn773   2.020   .     S
O769   C772    1.284   .     A
O770   Zn774   2.020   .     S
O770   C771    1.284   .     A
C771   C778    1.434   .     S
C772   C777    1.434   .     S
Zn773  N805    2.006   .     S
Zn774  N806    2.006   .     S
C775   N807    1.434   .     S
C775   C785    1.402   .     A
C775   C777    1.394   .     A
C776   N810    1.434   .     S
C776   C786    1.402   .     A
C776   C778    1.394   .     A
C777   C779    1.397   .     A
C778   C780    1.397   .     A
C779   C781    1.407   .     A
C779   C813    1.456   .     S
C780   C815    1.456   .     S
C780   C782    1.407   .     A
C781   C787    1.415   .     A
C781   C783    1.423   .     A
C782   C788    1.415   .     A
C782   C784    1.423   .     A
C783   C785    1.418   .     A
C783   C100    1.404   1_556 S
C784   C786    1.418   .     A
C785   C790    1.413   .     A
C786   C789    1.413   .     A
C787   N817    1.433   .     S
C787   C105    1.395   1_556 S
C788   N820    1.433   .     S
C789   N823    1.433   .     S
C790   N826    1.434   .     S
C790   C104    1.395   1_556 S
C791   C829    1.454   .     S
C791   C796    1.414   .     A
C792   C831    1.454   .     S
C792   C795    1.414   .     A
C792   C870    1.386   .     S
C793   C833    1.458   .     S
C793   C795    1.409   .     A
C793   C867    1.386   .     S
C794   C835    1.458   .     S
C794   C796    1.409   .     A
C797   H801    1.081   .     S
C797   N806    1.366   .     A
C797   C1256   1.414   1_545 S
C798   H802    1.081   .     S
C798   N805    1.366   .     A
C798   C1027   1.414   .     S
C799   H803    1.081   .     S
C799   N806    1.366   .     A
C799   C1254   1.414   1_545 S
C800   H804    1.081   .     S
C800   N805    1.366   .     A
C800   C1025   1.414   .     S
N807   O809    1.301   .     A
N807   O808    1.301   .     A
N810   O812    1.301   .     A
N810   O811    1.301   .     A
C813   N814    1.158   .     T
C815   N816    1.158   .     T
N817   O818    1.301   .     A
N817   O819    1.301   .     A
N820   O822    1.301   .     A
N820   O821    1.301   .     A
N823   O825    1.301   .     A
N823   O824    1.301   .     A
N826   O828    1.300   .     A
N826   O827    1.301   .     A
C829   N830    1.157   .     T
C831   N832    1.157   .     T
C833   N834    1.158   .     T
C835   N836    1.158   .     T
O837   C841    1.288   .     A
O837   Zn849   2.015   .     S
O838   C842    1.288   .     A
O838   Zn850   2.015   .     S
O839   C842    1.280   .     A
O839   Zn849   2.030   .     S
O840   C841    1.280   .     A
O840   Zn850   2.030   .     S
C841   C872    1.440   .     S
C842   C871    1.440   .     S
O843   C847    1.280   .     A
O843   Zn849   2.020   .     S
O844   C848    1.280   .     A
O844   Zn850   2.020   .     S
O845   Zn849   2.020   .     S
O845   C848    1.284   .     A
O846   Zn850   2.020   .     S
O846   C847    1.284   .     A
C847   C854    1.434   .     S
C848   C853    1.434   .     S
Zn849  N881    2.006   .     S
Zn850  N882    2.006   .     S
C851   N883    1.434   .     S
C851   C861    1.402   .     A
C851   C853    1.394   .     A
C852   N886    1.434   .     S
C852   C862    1.402   .     A
C852   C854    1.394   .     A
C853   C855    1.397   .     A
C854   C856    1.397   .     A
C855   C857    1.407   .     A
C855   C889    1.456   .     S
C856   C891    1.456   .     S
C856   C858    1.407   .     A
C857   C863    1.415   .     A
C857   C859    1.423   .     A
C858   C864    1.415   .     A
C858   C860    1.423   .     A
C859   C861    1.418   .     A
C859   C176    1.404   1_556 S
C860   C862    1.418   .     A
C861   C866    1.413   .     A
C862   C865    1.413   .     A
C863   N893    1.433   .     S
C863   C181    1.395   1_556 S
C864   N896    1.433   .     S
C865   N899    1.433   .     S
C866   N902    1.434   .     S
C866   C180    1.395   1_556 S
C867   C905    1.454   .     S
C867   C872    1.414   .     A
C868   C907    1.454   .     S
C868   C871    1.414   .     A
C868   C718    1.386   1_655 S
C869   C909    1.458   .     S
C869   C871    1.409   .     A
C869   C715    1.386   1_655 S
C870   C911    1.458   .     S
C870   C872    1.409   .     A
C873   H877    1.081   .     S
C873   N882    1.366   .     A
C873   C1332   1.414   1_545 S
C874   H878    1.081   .     S
C874   N881    1.366   .     A
C874   C1103   1.414   .     S
C875   H879    1.081   .     S
C875   N882    1.366   .     A
C875   C1330   1.414   1_545 S
C876   H880    1.081   .     S
C876   N881    1.366   .     A
C876   C1101   1.414   .     S
N883   O885    1.301   .     A
N883   O884    1.301   .     A
N886   O888    1.301   .     A
N886   O887    1.301   .     A
C889   N890    1.158   .     T
C891   N892    1.158   .     T
N893   O894    1.301   .     A
N893   O895    1.301   .     A
N896   O898    1.301   .     A
N896   O897    1.301   .     A
N899   O901    1.301   .     A
N899   O900    1.301   .     A
N902   O904    1.300   .     A
N902   O903    1.301   .     A
C905   N906    1.157   .     T
C907   N908    1.157   .     T
C909   N910    1.158   .     T
C911   N912    1.158   .     T
O913   C917    1.288   .     A
O913   Zn925   2.015   .     S
O914   C918    1.288   .     A
O914   Zn926   2.015   .     S
O915   C918    1.280   .     A
O915   Zn925   2.030   .     S
O916   C917    1.280   .     A
O916   Zn926   2.030   .     S
C917   C948    1.440   .     S
C918   C947    1.440   .     S
O919   C923    1.280   .     A
O919   Zn925   2.020   .     S
O920   C924    1.280   .     A
O920   Zn926   2.020   .     S
O921   Zn925   2.020   .     S
O921   C924    1.284   .     A
O922   Zn926   2.020   .     S
O922   C923    1.284   .     A
C923   C930    1.434   .     S
C924   C929    1.434   .     S
Zn925  N957    2.006   .     S
Zn926  N958    2.006   .     S
C927   N959    1.434   .     S
C927   C937    1.402   .     A
C927   C929    1.394   .     A
C928   N962    1.434   .     S
C928   C938    1.402   .     A
C928   C930    1.394   .     A
C929   C931    1.397   .     A
C930   C932    1.397   .     A
C931   C933    1.407   .     A
C931   C965    1.456   .     S
C932   C967    1.456   .     S
C932   C934    1.407   .     A
C933   C939    1.415   .     A
C933   C935    1.423   .     A
C934   C940    1.415   .     A
C934   C936    1.423   .     A
C935   C937    1.418   .     A
C935   C252    1.404   1_556 S
C936   C938    1.418   .     A
C937   C942    1.413   .     A
C938   C941    1.413   .     A
C939   N969    1.433   .     S
C939   C257    1.395   1_556 S
C940   N972    1.433   .     S
C941   N975    1.433   .     S
C942   N978    1.434   .     S
C942   C256    1.395   1_556 S
C943   C981    1.454   .     S
C943   C948    1.414   .     A
C943   C1097   1.386   1_455 S
C944   C983    1.454   .     S
C944   C947    1.414   .     A
C944   C1022   1.386   .     S
C945   C985    1.458   .     S
C945   C947    1.409   .     A
C945   C1019   1.386   .     S
C946   C987    1.458   .     S
C946   C948    1.409   .     A
C946   C1096   1.386   1_455 S
C949   H953    1.081   .     S
C949   N958    1.366   .     A
C950   H954    1.081   .     S
C950   N957    1.366   .     A
C950   C1179   1.414   .     S
C951   H955    1.081   .     S
C951   N958    1.366   .     A
C952   H956    1.081   .     S
C952   N957    1.366   .     A
C952   C1177   1.414   .     S
N959   O961    1.301   .     A
N959   O960    1.301   .     A
N962   O964    1.301   .     A
N962   O963    1.301   .     A
C965   N966    1.158   .     T
C967   N968    1.158   .     T
N969   O970    1.301   .     A
N969   O971    1.301   .     A
N972   O974    1.301   .     A
N972   O973    1.301   .     A
N975   O977    1.301   .     A
N975   O976    1.301   .     A
N978   O980    1.300   .     A
N978   O979    1.301   .     A
C981   N982    1.157   .     T
C983   N984    1.157   .     T
C985   N986    1.158   .     T
C987   N988    1.158   .     T
O989   C993    1.288   .     A
O989   Zn1001  2.015   .     S
O990   C994    1.288   .     A
O990   Zn1002  2.015   .     S
O991   C994    1.280   .     A
O991   Zn1001  2.030   .     S
O992   C993    1.280   .     A
O992   Zn1002  2.030   .     S
C993   C1024   1.440   .     S
C994   C1023   1.440   .     S
O995   C999    1.280   .     A
O995   Zn1001  2.020   .     S
O996   C1000   1.280   .     A
O996   Zn1002  2.020   .     S
O997   Zn1001  2.020   .     S
O997   C1000   1.284   .     A
O998   Zn1002  2.020   .     S
O998   C999    1.284   .     A
C999   C1006   1.434   .     S
C1000  C1005   1.434   .     S
Zn1001 N1033   2.006   .     S
Zn1002 N1034   2.006   .     S
C1003  N1035   1.434   .     S
C1003  C1013   1.402   .     A
C1003  C1005   1.394   .     A
C1004  N1038   1.434   .     S
C1004  C1014   1.402   .     A
C1004  C1006   1.394   .     A
C1005  C1007   1.397   .     A
C1006  C1008   1.397   .     A
C1007  C1009   1.407   .     A
C1007  C1041   1.456   .     S
C1008  C1043   1.456   .     S
C1008  C1010   1.407   .     A
C1009  C1015   1.415   .     A
C1009  C1011   1.423   .     A
C1010  C1016   1.415   .     A
C1010  C1012   1.423   .     A
C1011  C1013   1.418   .     A
C1011  C328    1.404   1_556 S
C1012  C1014   1.418   .     A
C1013  C1018   1.413   .     A
C1014  C1017   1.413   .     A
C1015  N1045   1.433   .     S
C1015  C333    1.395   1_556 S
C1016  N1048   1.433   .     S
C1017  N1051   1.433   .     S
C1018  N1054   1.434   .     S
C1018  C332    1.395   1_556 S
C1019  C1057   1.454   .     S
C1019  C1024   1.414   .     A
C1020  C1059   1.454   .     S
C1020  C1023   1.414   .     A
C1020  C1098   1.386   .     S
C1021  C1061   1.458   .     S
C1021  C1023   1.409   .     A
C1021  C1095   1.386   .     S
C1022  C1063   1.458   .     S
C1022  C1024   1.409   .     A
C1025  H1029   1.081   .     S
C1025  N1034   1.366   .     A
C1026  H1030   1.081   .     S
C1026  N1033   1.366   .     A
C1026  C1255   1.414   .     S
C1027  H1031   1.081   .     S
C1027  N1034   1.366   .     A
C1028  H1032   1.081   .     S
C1028  N1033   1.366   .     A
C1028  C1253   1.414   .     S
N1035  O1037   1.301   .     A
N1035  O1036   1.301   .     A
N1038  O1040   1.301   .     A
N1038  O1039   1.301   .     A
C1041  N1042   1.158   .     T
C1043  N1044   1.158   .     T
N1045  O1046   1.301   .     A
N1045  O1047   1.301   .     A
N1048  O1050   1.301   .     A
N1048  O1049   1.301   .     A
N1051  O1053   1.301   .     A
N1051  O1052   1.301   .     A
N1054  O1056   1.300   .     A
N1054  O1055   1.301   .     A
C1057  N1058   1.157   .     T
C1059  N1060   1.157   .     T
C1061  N1062   1.158   .     T
C1063  N1064   1.158   .     T
O1065  C1069   1.288   .     A
O1065  Zn1077  2.015   .     S
O1066  C1070   1.288   .     A
O1066  Zn1078  2.015   .     S
O1067  C1070   1.280   .     A
O1067  Zn1077  2.030   .     S
O1068  C1069   1.280   .     A
O1068  Zn1078  2.030   .     S
C1069  C1100   1.440   .     S
C1070  C1099   1.440   .     S
O1071  C1075   1.280   .     A
O1071  Zn1077  2.020   .     S
O1072  C1076   1.280   .     A
O1072  Zn1078  2.020   .     S
O1073  Zn1077  2.020   .     S
O1073  C1076   1.284   .     A
O1074  Zn1078  2.020   .     S
O1074  C1075   1.284   .     A
C1075  C1082   1.434   .     S
C1076  C1081   1.434   .     S
Zn1077 N1109   2.006   .     S
Zn1078 N1110   2.006   .     S
C1079  N1111   1.434   .     S
C1079  C1089   1.402   .     A
C1079  C1081   1.394   .     A
C1080  N1114   1.434   .     S
C1080  C1090   1.402   .     A
C1080  C1082   1.394   .     A
C1081  C1083   1.397   .     A
C1082  C1084   1.397   .     A
C1083  C1085   1.407   .     A
C1083  C1117   1.456   .     S
C1084  C1119   1.456   .     S
C1084  C1086   1.407   .     A
C1085  C1091   1.415   .     A
C1085  C1087   1.423   .     A
C1086  C1092   1.415   .     A
C1086  C1088   1.423   .     A
C1087  C1089   1.418   .     A
C1087  C404    1.404   1_556 S
C1088  C1090   1.418   .     A
C1089  C1094   1.413   .     A
C1090  C1093   1.413   .     A
C1091  N1121   1.433   .     S
C1091  C409    1.395   1_556 S
C1092  N1124   1.433   .     S
C1093  N1127   1.433   .     S
C1094  N1130   1.434   .     S
C1094  C408    1.395   1_556 S
C1095  C1133   1.454   .     S
C1095  C1100   1.414   .     A
C1096  C1135   1.454   .     S
C1096  C1099   1.414   .     A
C1096  C946    1.386   1_655 S
C1097  C1137   1.458   .     S
C1097  C1099   1.409   .     A
C1097  C943    1.386   1_655 S
C1098  C1139   1.458   .     S
C1098  C1100   1.409   .     A
C1101  H1105   1.081   .     S
C1101  N1110   1.366   .     A
C1102  H1106   1.081   .     S
C1102  N1109   1.366   .     A
C1102  C1331   1.414   .     S
C1103  H1107   1.081   .     S
C1103  N1110   1.366   .     A
C1104  H1108   1.081   .     S
C1104  N1109   1.366   .     A
C1104  C1329   1.414   .     S
N1111  O1113   1.301   .     A
N1111  O1112   1.301   .     A
N1114  O1116   1.301   .     A
N1114  O1115   1.301   .     A
C1117  N1118   1.158   .     T
C1119  N1120   1.158   .     T
N1121  O1122   1.301   .     A
N1121  O1123   1.301   .     A
N1124  O1126   1.301   .     A
N1124  O1125   1.301   .     A
N1127  O1129   1.301   .     A
N1127  O1128   1.301   .     A
N1130  O1132   1.300   .     A
N1130  O1131   1.301   .     A
C1133  N1134   1.157   .     T
C1135  N1136   1.157   .     T
C1137  N1138   1.158   .     T
C1139  N1140   1.158   .     T
O1141  C1145   1.288   .     A
O1141  Zn1153  2.015   .     S
O1142  C1146   1.288   .     A
O1142  Zn1154  2.015   .     S
O1143  C1146   1.280   .     A
O1143  Zn1153  2.030   .     S
O1144  C1145   1.280   .     A
O1144  Zn1154  2.030   .     S
C1145  C1176   1.440   .     S
C1146  C1175   1.440   .     S
O1147  C1151   1.280   .     A
O1147  Zn1153  2.020   .     S
O1148  C1152   1.280   .     A
O1148  Zn1154  2.020   .     S
O1149  Zn1153  2.020   .     S
O1149  C1152   1.284   .     A
O1150  Zn1154  2.020   .     S
O1150  C1151   1.284   .     A
C1151  C1158   1.434   .     S
C1152  C1157   1.434   .     S
Zn1153 N1185   2.006   .     S
Zn1154 N1186   2.006   .     S
C1155  N1187   1.434   .     S
C1155  C1165   1.402   .     A
C1155  C1157   1.394   .     A
C1156  N1190   1.434   .     S
C1156  C1166   1.402   .     A
C1156  C1158   1.394   .     A
C1157  C1159   1.397   .     A
C1158  C1160   1.397   .     A
C1159  C1161   1.407   .     A
C1159  C1193   1.456   .     S
C1160  C1195   1.456   .     S
C1160  C1162   1.407   .     A
C1161  C1167   1.415   .     A
C1161  C1163   1.423   .     A
C1162  C1168   1.415   .     A
C1162  C1164   1.423   .     A
C1163  C1165   1.418   .     A
C1163  C480    1.404   1_556 S
C1164  C1166   1.418   .     A
C1165  C1170   1.413   .     A
C1166  C1169   1.413   .     A
C1167  N1197   1.433   .     S
C1167  C485    1.395   1_556 S
C1168  N1200   1.433   .     S
C1169  N1203   1.433   .     S
C1170  N1206   1.434   .     S
C1170  C484    1.395   1_556 S
C1171  C1209   1.454   .     S
C1171  C1176   1.414   .     A
C1171  C1325   1.386   1_455 S
C1172  C1211   1.454   .     S
C1172  C1175   1.414   .     A
C1172  C1250   1.386   .     S
C1173  C1213   1.458   .     S
C1173  C1175   1.409   .     A
C1173  C1247   1.386   .     S
C1174  C1215   1.458   .     S
C1174  C1176   1.409   .     A
C1174  C1324   1.386   1_455 S
C1177  H1181   1.081   .     S
C1177  N1186   1.366   .     A
C1178  H1182   1.081   .     S
C1178  N1185   1.366   .     A
C1178  C723    1.414   1_565 S
C1179  H1183   1.081   .     S
C1179  N1186   1.366   .     A
C1180  H1184   1.081   .     S
C1180  N1185   1.366   .     A
C1180  C721    1.414   1_565 S
N1187  O1189   1.301   .     A
N1187  O1188   1.301   .     A
N1190  O1192   1.301   .     A
N1190  O1191   1.301   .     A
C1193  N1194   1.158   .     T
C1195  N1196   1.158   .     T
N1197  O1198   1.301   .     A
N1197  O1199   1.301   .     A
N1200  O1202   1.301   .     A
N1200  O1201   1.301   .     A
N1203  O1205   1.301   .     A
N1203  O1204   1.301   .     A
N1206  O1208   1.300   .     A
N1206  O1207   1.301   .     A
C1209  N1210   1.157   .     T
C1211  N1212   1.157   .     T
C1213  N1214   1.158   .     T
C1215  N1216   1.158   .     T
O1217  C1221   1.288   .     A
O1217  Zn1229  2.015   .     S
O1218  C1222   1.288   .     A
O1218  Zn1230  2.015   .     S
O1219  C1222   1.280   .     A
O1219  Zn1229  2.030   .     S
O1220  C1221   1.280   .     A
O1220  Zn1230  2.030   .     S
C1221  C1252   1.440   .     S
C1222  C1251   1.440   .     S
O1223  C1227   1.280   .     A
O1223  Zn1229  2.020   .     S
O1224  C1228   1.280   .     A
O1224  Zn1230  2.020   .     S
O1225  Zn1229  2.020   .     S
O1225  C1228   1.284   .     A
O1226  Zn1230  2.020   .     S
O1226  C1227   1.284   .     A
C1227  C1234   1.434   .     S
C1228  C1233   1.434   .     S
Zn1229 N1261   2.006   .     S
Zn1230 N1262   2.006   .     S
C1231  N1263   1.434   .     S
C1231  C1241   1.402   .     A
C1231  C1233   1.394   .     A
C1232  N1266   1.434   .     S
C1232  C1242   1.402   .     A
C1232  C1234   1.394   .     A
C1233  C1235   1.397   .     A
C1234  C1236   1.397   .     A
C1235  C1237   1.407   .     A
C1235  C1269   1.456   .     S
C1236  C1271   1.456   .     S
C1236  C1238   1.407   .     A
C1237  C1243   1.415   .     A
C1237  C1239   1.423   .     A
C1238  C1244   1.415   .     A
C1238  C1240   1.423   .     A
C1239  C1241   1.418   .     A
C1239  C556    1.404   1_556 S
C1240  C1242   1.418   .     A
C1241  C1246   1.413   .     A
C1242  C1245   1.413   .     A
C1243  N1273   1.433   .     S
C1243  C561    1.395   1_556 S
C1244  N1276   1.433   .     S
C1245  N1279   1.433   .     S
C1246  N1282   1.434   .     S
C1246  C560    1.395   1_556 S
C1247  C1285   1.454   .     S
C1247  C1252   1.414   .     A
C1248  C1287   1.454   .     S
C1248  C1251   1.414   .     A
C1248  C1326   1.386   .     S
C1249  C1289   1.458   .     S
C1249  C1251   1.409   .     A
C1249  C1323   1.386   .     S
C1250  C1291   1.458   .     S
C1250  C1252   1.409   .     A
C1253  H1257   1.081   .     S
C1253  N1262   1.366   .     A
C1254  H1258   1.081   .     S
C1254  N1261   1.366   .     A
C1254  C799    1.414   1_565 S
C1255  H1259   1.081   .     S
C1255  N1262   1.366   .     A
C1256  H1260   1.081   .     S
C1256  N1261   1.366   .     A
C1256  C797    1.414   1_565 S
N1263  O1265   1.301   .     A
N1263  O1264   1.301   .     A
N1266  O1268   1.301   .     A
N1266  O1267   1.301   .     A
C1269  N1270   1.158   .     T
C1271  N1272   1.158   .     T
N1273  O1274   1.301   .     A
N1273  O1275   1.301   .     A
N1276  O1278   1.301   .     A
N1276  O1277   1.301   .     A
N1279  O1281   1.301   .     A
N1279  O1280   1.301   .     A
N1282  O1284   1.300   .     A
N1282  O1283   1.301   .     A
C1285  N1286   1.157   .     T
C1287  N1288   1.157   .     T
C1289  N1290   1.158   .     T
C1291  N1292   1.158   .     T
O1293  C1297   1.288   .     A
O1293  Zn1305  2.015   .     S
O1294  C1298   1.288   .     A
O1294  Zn1306  2.015   .     S
O1295  C1298   1.280   .     A
O1295  Zn1305  2.030   .     S
O1296  C1297   1.280   .     A
O1296  Zn1306  2.030   .     S
C1297  C1328   1.440   .     S
C1298  C1327   1.440   .     S
O1299  C1303   1.280   .     A
O1299  Zn1305  2.020   .     S
O1300  C1304   1.280   .     A
O1300  Zn1306  2.020   .     S
O1301  Zn1305  2.020   .     S
O1301  C1304   1.284   .     A
O1302  Zn1306  2.020   .     S
O1302  C1303   1.284   .     A
C1303  C1310   1.434   .     S
C1304  C1309   1.434   .     S
Zn1305 N1337   2.006   .     S
Zn1306 N1338   2.006   .     S
C1307  N1339   1.434   .     S
C1307  C1317   1.402   .     A
C1307  C1309   1.394   .     A
C1308  N1342   1.434   .     S
C1308  C1318   1.402   .     A
C1308  C1310   1.394   .     A
C1309  C1311   1.397   .     A
C1310  C1312   1.397   .     A
C1311  C1313   1.407   .     A
C1311  C1345   1.456   .     S
C1312  C1347   1.456   .     S
C1312  C1314   1.407   .     A
C1313  C1319   1.415   .     A
C1313  C1315   1.423   .     A
C1314  C1320   1.415   .     A
C1314  C1316   1.423   .     A
C1315  C1317   1.418   .     A
C1315  C632    1.404   1_556 S
C1316  C1318   1.418   .     A
C1317  C1322   1.413   .     A
C1318  C1321   1.413   .     A
C1319  N1349   1.433   .     S
C1319  C637    1.395   1_556 S
C1320  N1352   1.433   .     S
C1321  N1355   1.433   .     S
C1322  N1358   1.434   .     S
C1322  C636    1.395   1_556 S
C1323  C1361   1.454   .     S
C1323  C1328   1.414   .     A
C1324  C1363   1.454   .     S
C1324  C1327   1.414   .     A
C1324  C1174   1.386   1_655 S
C1325  C1365   1.458   .     S
C1325  C1327   1.409   .     A
C1325  C1171   1.386   1_655 S
C1326  C1367   1.458   .     S
C1326  C1328   1.409   .     A
C1329  H1333   1.081   .     S
C1329  N1338   1.366   .     A
C1330  H1334   1.081   .     S
C1330  N1337   1.366   .     A
C1330  C875    1.414   1_565 S
C1331  H1335   1.081   .     S
C1331  N1338   1.366   .     A
C1332  H1336   1.081   .     S
C1332  N1337   1.366   .     A
C1332  C873    1.414   1_565 S
N1339  O1341   1.301   .     A
N1339  O1340   1.301   .     A
N1342  O1344   1.301   .     A
N1342  O1343   1.301   .     A
C1345  N1346   1.158   .     T
C1347  N1348   1.158   .     T
N1349  O1350   1.301   .     A
N1349  O1351   1.301   .     A
N1352  O1354   1.301   .     A
N1352  O1353   1.301   .     A
N1355  O1357   1.301   .     A
N1355  O1356   1.301   .     A
N1358  O1360   1.300   .     A
N1358  O1359   1.301   .     A
C1361  N1362   1.157   .     T
C1363  N1364   1.157   .     T
C1365  N1366   1.158   .     T
C1367  N1368   1.158   .     T
