data_str_m3_o1_o2_pcu_sym.131
_audit_creation_date              2020-01-03
_audit_creation_method            'Materials Studio'
_symmetry_space_group_name_H-M    'P1'
_symmetry_Int_Tables_number       1
_symmetry_cell_setting            triclinic
loop_
_symmetry_equiv_pos_as_xyz
  x,y,z
_cell_length_a                    32.5611
_cell_length_b                    29.7664
_cell_length_c                    30.1277
_cell_angle_alpha                 90.1542
_cell_angle_beta                  94.6087
_cell_angle_gamma                 90.6600
loop_
_atom_site_label
_atom_site_type_symbol
_atom_site_fract_x
_atom_site_fract_y
_atom_site_fract_z
_atom_site_U_iso_or_equiv
_atom_site_adp_type
_atom_site_occupancy
C1     C     0.08660   0.16660   0.25023   0.00000  Uiso   1.00
C2     C     0.24671   0.16714   0.25207   0.00000  Uiso   1.00
C3     C     0.16863   0.16657   0.16387   0.00000  Uiso   1.00
C4     C     0.16369   0.16666   0.33584   0.00000  Uiso   1.00
C5     C     0.19150   0.02402   0.28032   0.00000  Uiso   1.00
C6     C     0.13977   0.30897   0.22148   0.00000  Uiso   1.00
C7     C     0.14157   0.02342   0.21966   0.00000  Uiso   1.00
C8     C     0.19405   0.30993   0.27775   0.00000  Uiso   1.00
C9     C     0.01980   0.12712   0.25523   0.00000  Uiso   1.00
C10    C     0.31255   0.20870   0.24665   0.00000  Uiso   1.00
C11    C     0.31317   0.13024   0.26759   0.00000  Uiso   1.00
C12    C     0.02180   0.20875   0.25304   0.00000  Uiso   1.00
C13    C     0.14295   0.20006   0.04620   0.00000  Uiso   1.00
C14    C     0.13584   0.12582   0.44824   0.00000  Uiso   1.00
C15    C     0.16442   0.20092   0.45562   0.00000  Uiso   1.00
C16    C     0.16603   0.12313   0.04625   0.00000  Uiso   1.00
C17    C     0.15619   0.20435   0.09052   0.00000  Uiso   1.00
C18    C     0.13876   0.12747   0.40244   0.00000  Uiso   1.00
C19    C     0.16554   0.20431   0.41032   0.00000  Uiso   1.00
C20    C     0.17498   0.12528   0.09211   0.00000  Uiso   1.00
C21    C     0.16805   0.16578   0.11522   0.00000  Uiso   1.00
C22    C     0.15601   0.16624   0.38311   0.00000  Uiso   1.00
C23    C     0.14987   0.16044   0.02326   0.00000  Uiso   1.00
C24    C     0.14949   0.16217   0.47492   0.00000  Uiso   1.00
C25    C     0.29106   0.16873   0.25534   0.00000  Uiso   1.00
C26    C     0.04239   0.16725   0.25212   0.00000  Uiso   1.00
H27    H     0.13155   0.22962   0.02853   0.00000  Uiso   1.00
H28    H     0.12280   0.09629   0.46298   0.00000  Uiso   1.00
H29    H     0.17555   0.22932   0.47587   0.00000  Uiso   1.00
H30    H     0.17389   0.09325   0.02831   0.00000  Uiso   1.00
N31    N     0.16667   0.28573   0.25000   0.00000  Uiso   1.00
N32    N     0.16667   0.04760   0.25000   0.00000  Uiso   1.00
O33    O     0.10559   0.20487   0.24999   0.00000  Uiso   1.00
O34    O     0.22774   0.12846   0.25000   0.00000  Uiso   1.00
O35    O     0.22774   0.20487   0.25000   0.00000  Uiso   1.00
O36    O     0.10559   0.12846   0.24999   0.00000  Uiso   1.00
O37    O     0.16666   0.20489   0.18453   0.00000  Uiso   1.00
O38    O     0.16667   0.12845   0.31547   0.00000  Uiso   1.00
O39    O     0.16667   0.20489   0.31547   0.00000  Uiso   1.00
O40    O     0.16666   0.12845   0.18453   0.00000  Uiso   1.00
Zn41   Zn    0.16667   0.21771   0.25000   0.00000  Uiso   1.00
Zn42   Zn    0.16667   0.11563   0.25000   0.00000  Uiso   1.00
Br43   Br    0.22027   0.05383   0.32970   0.00000  Uiso   1.00
Br44   Br    0.09881   0.27696   0.18386   0.00000  Uiso   1.00
Br45   Br    0.10914   0.05379   0.17342   0.00000  Uiso   1.00
Br46   Br    0.23886   0.28066   0.31081   0.00000  Uiso   1.00
Br47   Br    0.16759   0.26503   0.10970   0.00000  Uiso   1.00
Br48   Br    0.11448   0.07724   0.36895   0.00000  Uiso   1.00
Br49   Br    0.17728   0.26390   0.39085   0.00000  Uiso   1.00
Br50   Br    0.20314   0.07433   0.11895   0.00000  Uiso   1.00
O51    O     0.03725   0.08534   0.25161   0.00000  Uiso   1.00
C52    C     0.01541   0.06141   0.21619   0.00000  Uiso   1.00
H53    H     0.02632   0.07254   0.18399   0.00000  Uiso   1.00
H54    H     0.31471   0.06589   0.21382   0.00000  Uiso   1.00
C55    C     0.02276   0.01167   0.22233   0.00000  Uiso   1.00
H56    H     0.00362   0.33166   0.24827   0.00000  Uiso   1.00
H57    H     0.01477   0.32716   0.19042   0.00000  Uiso   1.00
H58    H     0.05550   0.00602   0.23288   0.00000  Uiso   1.00
O59    O     0.29268   0.24860   0.23671   0.00000  Uiso   1.00
C60    C     0.28615   0.25218   0.18996   0.00000  Uiso   1.00
H61    H     0.27002   0.22186   0.17490   0.00000  Uiso   1.00
H62    H     0.31603   0.25672   0.17491   0.00000  Uiso   1.00
C63    C     0.25919   0.29262   0.17858   0.00000  Uiso   1.00
H64    H     0.27246   0.32335   0.19525   0.00000  Uiso   1.00
H65    H     0.25657   0.29803   0.14203   0.00000  Uiso   1.00
H66    H     0.22801   0.28670   0.18989   0.00000  Uiso   1.00
O67    O     0.29616   0.09537   0.29047   0.00000  Uiso   1.00
C68    C     0.31669   0.09253   0.33394   0.00000  Uiso   1.00
H69    H     0.29457   0.10115   0.35870   0.00000  Uiso   1.00
H70    H     0.01018   0.11603   0.34079   0.00000  Uiso   1.00
C71    C     0.33177   0.04488   0.34270   0.00000  Uiso   1.00
H72    H     0.02374   0.03733   0.32151   0.00000  Uiso   1.00
H73    H     0.01030   0.04156   0.37812   0.00000  Uiso   1.00
H74    H     0.30641   0.02015   0.33538   0.00000  Uiso   1.00
O75    O     0.04271   0.24901   0.26115   0.00000  Uiso   1.00
C76    C     0.04358   0.25854   0.30735   0.00000  Uiso   1.00
H77    H     0.04661   0.22774   0.32847   0.00000  Uiso   1.00
H78    H     0.01485   0.27605   0.31453   0.00000  Uiso   1.00
C79    C     0.08042   0.28873   0.32135   0.00000  Uiso   1.00
H80    H     0.07857   0.32107   0.30334   0.00000  Uiso   1.00
H81    H     0.08123   0.29578   0.35762   0.00000  Uiso   1.00
H82    H     0.10931   0.27180   0.31425   0.00000  Uiso   1.00
C83    C     0.41993   0.16660   0.25023   0.00000  Uiso   1.00
C84    C     0.58005   0.16714   0.25207   0.00000  Uiso   1.00
C85    C     0.50196   0.16657   0.16387   0.00000  Uiso   1.00
C86    C     0.49703   0.16666   0.33584   0.00000  Uiso   1.00
C87    C     0.52484   0.02402   0.28032   0.00000  Uiso   1.00
C88    C     0.47310   0.30897   0.22148   0.00000  Uiso   1.00
C89    C     0.47491   0.02342   0.21966   0.00000  Uiso   1.00
C90    C     0.52738   0.30993   0.27775   0.00000  Uiso   1.00
C91    C     0.35313   0.12712   0.25523   0.00000  Uiso   1.00
C92    C     0.64588   0.20870   0.24665   0.00000  Uiso   1.00
C93    C     0.64650   0.13024   0.26759   0.00000  Uiso   1.00
C94    C     0.35513   0.20875   0.25304   0.00000  Uiso   1.00
C95    C     0.47628   0.20006   0.04620   0.00000  Uiso   1.00
C96    C     0.46918   0.12582   0.44824   0.00000  Uiso   1.00
C97    C     0.49776   0.20092   0.45562   0.00000  Uiso   1.00
C98    C     0.49936   0.12313   0.04625   0.00000  Uiso   1.00
C99    C     0.48952   0.20435   0.09052   0.00000  Uiso   1.00
C100   C     0.47210   0.12747   0.40244   0.00000  Uiso   1.00
C101   C     0.49887   0.20431   0.41032   0.00000  Uiso   1.00
C102   C     0.50831   0.12528   0.09211   0.00000  Uiso   1.00
C103   C     0.50138   0.16578   0.11522   0.00000  Uiso   1.00
C104   C     0.48934   0.16624   0.38311   0.00000  Uiso   1.00
C105   C     0.48320   0.16044   0.02326   0.00000  Uiso   1.00
C106   C     0.48282   0.16217   0.47492   0.00000  Uiso   1.00
C107   C     0.62439   0.16873   0.25534   0.00000  Uiso   1.00
C108   C     0.37572   0.16725   0.25212   0.00000  Uiso   1.00
H109   H     0.46488   0.22962   0.02853   0.00000  Uiso   1.00
H110   H     0.45614   0.09629   0.46298   0.00000  Uiso   1.00
H111   H     0.50889   0.22932   0.47587   0.00000  Uiso   1.00
H112   H     0.50722   0.09325   0.02831   0.00000  Uiso   1.00
N113   N     0.50000   0.28573   0.25000   0.00000  Uiso   1.00
N114   N     0.50000   0.04760   0.25000   0.00000  Uiso   1.00
O115   O     0.43892   0.20487   0.24999   0.00000  Uiso   1.00
O116   O     0.56108   0.12846   0.25000   0.00000  Uiso   1.00
O117   O     0.56108   0.20487   0.25000   0.00000  Uiso   1.00
O118   O     0.43892   0.12846   0.24999   0.00000  Uiso   1.00
O119   O     0.50000   0.20489   0.18453   0.00000  Uiso   1.00
O120   O     0.50000   0.12845   0.31547   0.00000  Uiso   1.00
O121   O     0.50000   0.20489   0.31547   0.00000  Uiso   1.00
O122   O     0.50000   0.12845   0.18453   0.00000  Uiso   1.00
Zn123  Zn    0.50000   0.21771   0.25000   0.00000  Uiso   1.00
Zn124  Zn    0.50000   0.11563   0.25000   0.00000  Uiso   1.00
Br125  Br    0.55360   0.05383   0.32970   0.00000  Uiso   1.00
Br126  Br    0.43214   0.27696   0.18386   0.00000  Uiso   1.00
Br127  Br    0.44248   0.05379   0.17342   0.00000  Uiso   1.00
Br128  Br    0.57219   0.28066   0.31081   0.00000  Uiso   1.00
Br129  Br    0.50093   0.26503   0.10970   0.00000  Uiso   1.00
Br130  Br    0.44781   0.07724   0.36895   0.00000  Uiso   1.00
Br131  Br    0.51062   0.26390   0.39085   0.00000  Uiso   1.00
Br132  Br    0.53647   0.07433   0.11895   0.00000  Uiso   1.00
O133   O     0.37059   0.08534   0.25161   0.00000  Uiso   1.00
C134   C     0.34874   0.06141   0.21619   0.00000  Uiso   1.00
H135   H     0.35966   0.07254   0.18399   0.00000  Uiso   1.00
H136   H     0.64805   0.06589   0.21382   0.00000  Uiso   1.00
C137   C     0.35609   0.01167   0.22233   0.00000  Uiso   1.00
H138   H     0.33695   0.33166   0.24827   0.00000  Uiso   1.00
H139   H     0.34811   0.32716   0.19042   0.00000  Uiso   1.00
H140   H     0.38883   0.00602   0.23288   0.00000  Uiso   1.00
O141   O     0.62602   0.24860   0.23671   0.00000  Uiso   1.00
C142   C     0.61948   0.25218   0.18996   0.00000  Uiso   1.00
H143   H     0.60335   0.22186   0.17490   0.00000  Uiso   1.00
H144   H     0.64936   0.25672   0.17491   0.00000  Uiso   1.00
C145   C     0.59253   0.29262   0.17858   0.00000  Uiso   1.00
H146   H     0.60579   0.32335   0.19525   0.00000  Uiso   1.00
H147   H     0.58991   0.29803   0.14203   0.00000  Uiso   1.00
H148   H     0.56134   0.28670   0.18989   0.00000  Uiso   1.00
O149   O     0.62949   0.09537   0.29047   0.00000  Uiso   1.00
C150   C     0.65003   0.09253   0.33394   0.00000  Uiso   1.00
H151   H     0.62790   0.10115   0.35870   0.00000  Uiso   1.00
H152   H     0.34351   0.11603   0.34079   0.00000  Uiso   1.00
C153   C     0.66510   0.04488   0.34270   0.00000  Uiso   1.00
H154   H     0.35707   0.03733   0.32151   0.00000  Uiso   1.00
H155   H     0.34363   0.04156   0.37812   0.00000  Uiso   1.00
H156   H     0.63974   0.02015   0.33538   0.00000  Uiso   1.00
O157   O     0.37604   0.24901   0.26115   0.00000  Uiso   1.00
C158   C     0.37691   0.25854   0.30735   0.00000  Uiso   1.00
H159   H     0.37994   0.22774   0.32847   0.00000  Uiso   1.00
H160   H     0.34819   0.27605   0.31453   0.00000  Uiso   1.00
C161   C     0.41375   0.28873   0.32135   0.00000  Uiso   1.00
H162   H     0.41191   0.32107   0.30334   0.00000  Uiso   1.00
H163   H     0.41457   0.29578   0.35762   0.00000  Uiso   1.00
H164   H     0.44265   0.27180   0.31425   0.00000  Uiso   1.00
C165   C     0.75326   0.16660   0.25023   0.00000  Uiso   1.00
C166   C     0.91338   0.16714   0.25207   0.00000  Uiso   1.00
C167   C     0.83530   0.16657   0.16387   0.00000  Uiso   1.00
C168   C     0.83036   0.16666   0.33584   0.00000  Uiso   1.00
C169   C     0.85817   0.02402   0.28032   0.00000  Uiso   1.00
C170   C     0.80643   0.30897   0.22148   0.00000  Uiso   1.00
C171   C     0.80824   0.02342   0.21966   0.00000  Uiso   1.00
C172   C     0.86072   0.30993   0.27775   0.00000  Uiso   1.00
C173   C     0.68646   0.12712   0.25523   0.00000  Uiso   1.00
C174   C     0.97922   0.20870   0.24665   0.00000  Uiso   1.00
C175   C     0.97984   0.13024   0.26759   0.00000  Uiso   1.00
C176   C     0.68846   0.20875   0.25304   0.00000  Uiso   1.00
C177   C     0.80961   0.20006   0.04620   0.00000  Uiso   1.00
C178   C     0.80251   0.12582   0.44824   0.00000  Uiso   1.00
C179   C     0.83109   0.20092   0.45562   0.00000  Uiso   1.00
C180   C     0.83270   0.12313   0.04625   0.00000  Uiso   1.00
C181   C     0.82285   0.20435   0.09052   0.00000  Uiso   1.00
C182   C     0.80543   0.12747   0.40244   0.00000  Uiso   1.00
C183   C     0.83220   0.20431   0.41032   0.00000  Uiso   1.00
C184   C     0.84165   0.12528   0.09211   0.00000  Uiso   1.00
C185   C     0.83471   0.16578   0.11522   0.00000  Uiso   1.00
C186   C     0.82268   0.16624   0.38311   0.00000  Uiso   1.00
C187   C     0.81653   0.16044   0.02326   0.00000  Uiso   1.00
C188   C     0.81615   0.16217   0.47492   0.00000  Uiso   1.00
C189   C     0.95772   0.16873   0.25534   0.00000  Uiso   1.00
C190   C     0.70906   0.16725   0.25212   0.00000  Uiso   1.00
H191   H     0.79821   0.22962   0.02853   0.00000  Uiso   1.00
H192   H     0.78947   0.09629   0.46298   0.00000  Uiso   1.00
H193   H     0.84222   0.22932   0.47587   0.00000  Uiso   1.00
H194   H     0.84055   0.09325   0.02831   0.00000  Uiso   1.00
N195   N     0.83333   0.28573   0.25000   0.00000  Uiso   1.00
N196   N     0.83333   0.04760   0.25000   0.00000  Uiso   1.00
O197   O     0.77226   0.20487   0.24999   0.00000  Uiso   1.00
O198   O     0.89441   0.12846   0.25000   0.00000  Uiso   1.00
O199   O     0.89441   0.20487   0.25000   0.00000  Uiso   1.00
O200   O     0.77226   0.12846   0.24999   0.00000  Uiso   1.00
O201   O     0.83333   0.20489   0.18453   0.00000  Uiso   1.00
O202   O     0.83334   0.12845   0.31547   0.00000  Uiso   1.00
O203   O     0.83334   0.20489   0.31547   0.00000  Uiso   1.00
O204   O     0.83333   0.12845   0.18453   0.00000  Uiso   1.00
Zn205  Zn    0.83333   0.21771   0.25000   0.00000  Uiso   1.00
Zn206  Zn    0.83333   0.11563   0.25000   0.00000  Uiso   1.00
Br207  Br    0.88694   0.05383   0.32970   0.00000  Uiso   1.00
Br208  Br    0.76548   0.27696   0.18386   0.00000  Uiso   1.00
Br209  Br    0.77581   0.05379   0.17342   0.00000  Uiso   1.00
Br210  Br    0.90553   0.28066   0.31081   0.00000  Uiso   1.00
Br211  Br    0.83426   0.26503   0.10970   0.00000  Uiso   1.00
Br212  Br    0.78114   0.07724   0.36895   0.00000  Uiso   1.00
Br213  Br    0.84395   0.26390   0.39085   0.00000  Uiso   1.00
Br214  Br    0.86980   0.07433   0.11895   0.00000  Uiso   1.00
O215   O     0.70392   0.08534   0.25161   0.00000  Uiso   1.00
C216   C     0.68208   0.06141   0.21619   0.00000  Uiso   1.00
H217   H     0.69299   0.07254   0.18399   0.00000  Uiso   1.00
H218   H     0.98138   0.06589   0.21382   0.00000  Uiso   1.00
C219   C     0.68943   0.01167   0.22233   0.00000  Uiso   1.00
H220   H     0.67029   0.33166   0.24827   0.00000  Uiso   1.00
H221   H     0.68144   0.32716   0.19042   0.00000  Uiso   1.00
H222   H     0.72217   0.00602   0.23288   0.00000  Uiso   1.00
O223   O     0.95935   0.24860   0.23671   0.00000  Uiso   1.00
C224   C     0.95282   0.25218   0.18996   0.00000  Uiso   1.00
H225   H     0.93669   0.22186   0.17490   0.00000  Uiso   1.00
H226   H     0.98269   0.25672   0.17491   0.00000  Uiso   1.00
C227   C     0.92586   0.29262   0.17858   0.00000  Uiso   1.00
H228   H     0.93913   0.32335   0.19525   0.00000  Uiso   1.00
H229   H     0.92324   0.29803   0.14203   0.00000  Uiso   1.00
H230   H     0.89468   0.28670   0.18989   0.00000  Uiso   1.00
O231   O     0.96283   0.09537   0.29047   0.00000  Uiso   1.00
C232   C     0.98336   0.09253   0.33394   0.00000  Uiso   1.00
H233   H     0.96123   0.10115   0.35870   0.00000  Uiso   1.00
H234   H     0.67684   0.11603   0.34079   0.00000  Uiso   1.00
C235   C     0.99844   0.04488   0.34270   0.00000  Uiso   1.00
H236   H     0.69041   0.03733   0.32151   0.00000  Uiso   1.00
H237   H     0.67696   0.04156   0.37812   0.00000  Uiso   1.00
H238   H     0.97307   0.02015   0.33538   0.00000  Uiso   1.00
O239   O     0.70938   0.24901   0.26115   0.00000  Uiso   1.00
C240   C     0.71024   0.25854   0.30735   0.00000  Uiso   1.00
H241   H     0.71328   0.22774   0.32847   0.00000  Uiso   1.00
H242   H     0.68152   0.27605   0.31453   0.00000  Uiso   1.00
C243   C     0.74708   0.28873   0.32135   0.00000  Uiso   1.00
H244   H     0.74524   0.32107   0.30334   0.00000  Uiso   1.00
H245   H     0.74790   0.29578   0.35762   0.00000  Uiso   1.00
H246   H     0.77598   0.27180   0.31425   0.00000  Uiso   1.00
C247   C     0.08660   0.49993   0.25023   0.00000  Uiso   1.00
C248   C     0.24671   0.50048   0.25207   0.00000  Uiso   1.00
C249   C     0.16863   0.49991   0.16387   0.00000  Uiso   1.00
C250   C     0.16369   0.50000   0.33584   0.00000  Uiso   1.00
C251   C     0.19150   0.35735   0.28032   0.00000  Uiso   1.00
C252   C     0.13977   0.64230   0.22148   0.00000  Uiso   1.00
C253   C     0.14157   0.35675   0.21966   0.00000  Uiso   1.00
C254   C     0.19405   0.64326   0.27775   0.00000  Uiso   1.00
C255   C     0.01980   0.46045   0.25523   0.00000  Uiso   1.00
C256   C     0.31255   0.54203   0.24665   0.00000  Uiso   1.00
C257   C     0.31317   0.46357   0.26759   0.00000  Uiso   1.00
C258   C     0.02180   0.54208   0.25304   0.00000  Uiso   1.00
C259   C     0.14295   0.53339   0.04620   0.00000  Uiso   1.00
C260   C     0.13584   0.45915   0.44824   0.00000  Uiso   1.00
C261   C     0.16442   0.53426   0.45562   0.00000  Uiso   1.00
C262   C     0.16603   0.45647   0.04625   0.00000  Uiso   1.00
C263   C     0.15619   0.53768   0.09052   0.00000  Uiso   1.00
C264   C     0.13876   0.46080   0.40244   0.00000  Uiso   1.00
C265   C     0.16554   0.53765   0.41032   0.00000  Uiso   1.00
C266   C     0.17498   0.45861   0.09211   0.00000  Uiso   1.00
C267   C     0.16805   0.49912   0.11522   0.00000  Uiso   1.00
C268   C     0.15601   0.49958   0.38311   0.00000  Uiso   1.00
C269   C     0.14987   0.49377   0.02326   0.00000  Uiso   1.00
C270   C     0.14949   0.49550   0.47492   0.00000  Uiso   1.00
C271   C     0.29106   0.50206   0.25534   0.00000  Uiso   1.00
C272   C     0.04239   0.50058   0.25212   0.00000  Uiso   1.00
H273   H     0.13155   0.56295   0.02853   0.00000  Uiso   1.00
H274   H     0.12280   0.42963   0.46298   0.00000  Uiso   1.00
H275   H     0.17555   0.56265   0.47587   0.00000  Uiso   1.00
H276   H     0.17389   0.42658   0.02831   0.00000  Uiso   1.00
N277   N     0.16667   0.61907   0.25000   0.00000  Uiso   1.00
N278   N     0.16667   0.38093   0.25000   0.00000  Uiso   1.00
O279   O     0.10559   0.53821   0.24999   0.00000  Uiso   1.00
O280   O     0.22774   0.46179   0.25000   0.00000  Uiso   1.00
O281   O     0.22774   0.53821   0.25000   0.00000  Uiso   1.00
O282   O     0.10559   0.46179   0.24999   0.00000  Uiso   1.00
O283   O     0.16666   0.53822   0.18453   0.00000  Uiso   1.00
O284   O     0.16667   0.46178   0.31547   0.00000  Uiso   1.00
O285   O     0.16667   0.53822   0.31547   0.00000  Uiso   1.00
O286   O     0.16666   0.46178   0.18453   0.00000  Uiso   1.00
Zn287  Zn    0.16667   0.55104   0.25000   0.00000  Uiso   1.00
Zn288  Zn    0.16667   0.44896   0.25000   0.00000  Uiso   1.00
Br289  Br    0.22027   0.38716   0.32970   0.00000  Uiso   1.00
Br290  Br    0.09881   0.61030   0.18386   0.00000  Uiso   1.00
Br291  Br    0.10914   0.38713   0.17342   0.00000  Uiso   1.00
Br292  Br    0.23886   0.61399   0.31081   0.00000  Uiso   1.00
Br293  Br    0.16759   0.59837   0.10970   0.00000  Uiso   1.00
Br294  Br    0.11448   0.41057   0.36895   0.00000  Uiso   1.00
Br295  Br    0.17728   0.59723   0.39085   0.00000  Uiso   1.00
Br296  Br    0.20314   0.40766   0.11895   0.00000  Uiso   1.00
O297   O     0.03725   0.41868   0.25161   0.00000  Uiso   1.00
C298   C     0.01541   0.39474   0.21619   0.00000  Uiso   1.00
H299   H     0.02632   0.40587   0.18399   0.00000  Uiso   1.00
H300   H     0.31471   0.39922   0.21382   0.00000  Uiso   1.00
C301   C     0.02276   0.34501   0.22233   0.00000  Uiso   1.00
H302   H     0.00362   0.66499   0.24827   0.00000  Uiso   1.00
H303   H     0.01477   0.66049   0.19042   0.00000  Uiso   1.00
H304   H     0.05550   0.33935   0.23288   0.00000  Uiso   1.00
O305   O     0.29268   0.58193   0.23671   0.00000  Uiso   1.00
C306   C     0.28615   0.58551   0.18996   0.00000  Uiso   1.00
H307   H     0.27002   0.55519   0.17490   0.00000  Uiso   1.00
H308   H     0.31603   0.59005   0.17491   0.00000  Uiso   1.00
C309   C     0.25919   0.62596   0.17858   0.00000  Uiso   1.00
H310   H     0.27246   0.65668   0.19525   0.00000  Uiso   1.00
H311   H     0.25657   0.63136   0.14203   0.00000  Uiso   1.00
H312   H     0.22801   0.62004   0.18989   0.00000  Uiso   1.00
O313   O     0.29616   0.42870   0.29047   0.00000  Uiso   1.00
C314   C     0.31669   0.42587   0.33394   0.00000  Uiso   1.00
H315   H     0.29457   0.43448   0.35870   0.00000  Uiso   1.00
H316   H     0.01018   0.44936   0.34079   0.00000  Uiso   1.00
C317   C     0.33177   0.37822   0.34270   0.00000  Uiso   1.00
H318   H     0.02374   0.37066   0.32151   0.00000  Uiso   1.00
H319   H     0.01030   0.37489   0.37812   0.00000  Uiso   1.00
H320   H     0.30641   0.35349   0.33538   0.00000  Uiso   1.00
O321   O     0.04271   0.58234   0.26115   0.00000  Uiso   1.00
C322   C     0.04358   0.59187   0.30735   0.00000  Uiso   1.00
H323   H     0.04661   0.56107   0.32847   0.00000  Uiso   1.00
H324   H     0.01485   0.60939   0.31453   0.00000  Uiso   1.00
C325   C     0.08042   0.62206   0.32135   0.00000  Uiso   1.00
H326   H     0.07857   0.65440   0.30334   0.00000  Uiso   1.00
H327   H     0.08123   0.62911   0.35762   0.00000  Uiso   1.00
H328   H     0.10931   0.60514   0.31425   0.00000  Uiso   1.00
C329   C     0.41993   0.49993   0.25023   0.00000  Uiso   1.00
C330   C     0.58005   0.50048   0.25207   0.00000  Uiso   1.00
C331   C     0.50196   0.49991   0.16387   0.00000  Uiso   1.00
C332   C     0.49703   0.50000   0.33584   0.00000  Uiso   1.00
C333   C     0.52484   0.35735   0.28032   0.00000  Uiso   1.00
C334   C     0.47310   0.64230   0.22148   0.00000  Uiso   1.00
C335   C     0.47491   0.35675   0.21966   0.00000  Uiso   1.00
C336   C     0.52738   0.64326   0.27775   0.00000  Uiso   1.00
C337   C     0.35313   0.46045   0.25523   0.00000  Uiso   1.00
C338   C     0.64588   0.54203   0.24665   0.00000  Uiso   1.00
C339   C     0.64650   0.46357   0.26759   0.00000  Uiso   1.00
C340   C     0.35513   0.54208   0.25304   0.00000  Uiso   1.00
C341   C     0.47628   0.53339   0.04620   0.00000  Uiso   1.00
C342   C     0.46918   0.45915   0.44824   0.00000  Uiso   1.00
C343   C     0.49776   0.53426   0.45562   0.00000  Uiso   1.00
C344   C     0.49936   0.45647   0.04625   0.00000  Uiso   1.00
C345   C     0.48952   0.53768   0.09052   0.00000  Uiso   1.00
C346   C     0.47210   0.46080   0.40244   0.00000  Uiso   1.00
C347   C     0.49887   0.53765   0.41032   0.00000  Uiso   1.00
C348   C     0.50831   0.45861   0.09211   0.00000  Uiso   1.00
C349   C     0.50138   0.49912   0.11522   0.00000  Uiso   1.00
C350   C     0.48934   0.49958   0.38311   0.00000  Uiso   1.00
C351   C     0.48320   0.49377   0.02326   0.00000  Uiso   1.00
C352   C     0.48282   0.49550   0.47492   0.00000  Uiso   1.00
C353   C     0.62439   0.50206   0.25534   0.00000  Uiso   1.00
C354   C     0.37572   0.50058   0.25212   0.00000  Uiso   1.00
H355   H     0.46488   0.56295   0.02853   0.00000  Uiso   1.00
H356   H     0.45614   0.42963   0.46298   0.00000  Uiso   1.00
H357   H     0.50889   0.56265   0.47587   0.00000  Uiso   1.00
H358   H     0.50722   0.42658   0.02831   0.00000  Uiso   1.00
N359   N     0.50000   0.61907   0.25000   0.00000  Uiso   1.00
N360   N     0.50000   0.38093   0.25000   0.00000  Uiso   1.00
O361   O     0.43892   0.53821   0.24999   0.00000  Uiso   1.00
O362   O     0.56108   0.46179   0.25000   0.00000  Uiso   1.00
O363   O     0.56108   0.53821   0.25000   0.00000  Uiso   1.00
O364   O     0.43892   0.46179   0.24999   0.00000  Uiso   1.00
O365   O     0.50000   0.53822   0.18453   0.00000  Uiso   1.00
O366   O     0.50000   0.46178   0.31547   0.00000  Uiso   1.00
O367   O     0.50000   0.53822   0.31547   0.00000  Uiso   1.00
O368   O     0.50000   0.46178   0.18453   0.00000  Uiso   1.00
Zn369  Zn    0.50000   0.55104   0.25000   0.00000  Uiso   1.00
Zn370  Zn    0.50000   0.44896   0.25000   0.00000  Uiso   1.00
Br371  Br    0.55360   0.38716   0.32970   0.00000  Uiso   1.00
Br372  Br    0.43214   0.61030   0.18386   0.00000  Uiso   1.00
Br373  Br    0.44248   0.38713   0.17342   0.00000  Uiso   1.00
Br374  Br    0.57219   0.61399   0.31081   0.00000  Uiso   1.00
Br375  Br    0.50093   0.59837   0.10970   0.00000  Uiso   1.00
Br376  Br    0.44781   0.41057   0.36895   0.00000  Uiso   1.00
Br377  Br    0.51062   0.59723   0.39085   0.00000  Uiso   1.00
Br378  Br    0.53647   0.40766   0.11895   0.00000  Uiso   1.00
O379   O     0.37059   0.41868   0.25161   0.00000  Uiso   1.00
C380   C     0.34874   0.39474   0.21619   0.00000  Uiso   1.00
H381   H     0.35966   0.40587   0.18399   0.00000  Uiso   1.00
H382   H     0.64805   0.39922   0.21382   0.00000  Uiso   1.00
C383   C     0.35609   0.34501   0.22233   0.00000  Uiso   1.00
H384   H     0.33695   0.66499   0.24827   0.00000  Uiso   1.00
H385   H     0.34811   0.66049   0.19042   0.00000  Uiso   1.00
H386   H     0.38883   0.33935   0.23288   0.00000  Uiso   1.00
O387   O     0.62602   0.58193   0.23671   0.00000  Uiso   1.00
C388   C     0.61948   0.58551   0.18996   0.00000  Uiso   1.00
H389   H     0.60335   0.55519   0.17490   0.00000  Uiso   1.00
H390   H     0.64936   0.59005   0.17491   0.00000  Uiso   1.00
C391   C     0.59253   0.62596   0.17858   0.00000  Uiso   1.00
H392   H     0.60579   0.65668   0.19525   0.00000  Uiso   1.00
H393   H     0.58991   0.63136   0.14203   0.00000  Uiso   1.00
H394   H     0.56134   0.62004   0.18989   0.00000  Uiso   1.00
O395   O     0.62949   0.42870   0.29047   0.00000  Uiso   1.00
C396   C     0.65003   0.42587   0.33394   0.00000  Uiso   1.00
H397   H     0.62790   0.43448   0.35870   0.00000  Uiso   1.00
H398   H     0.34351   0.44936   0.34079   0.00000  Uiso   1.00
C399   C     0.66510   0.37822   0.34270   0.00000  Uiso   1.00
H400   H     0.35707   0.37066   0.32151   0.00000  Uiso   1.00
H401   H     0.34363   0.37489   0.37812   0.00000  Uiso   1.00
H402   H     0.63974   0.35349   0.33538   0.00000  Uiso   1.00
O403   O     0.37604   0.58234   0.26115   0.00000  Uiso   1.00
C404   C     0.37691   0.59187   0.30735   0.00000  Uiso   1.00
H405   H     0.37994   0.56107   0.32847   0.00000  Uiso   1.00
H406   H     0.34819   0.60939   0.31453   0.00000  Uiso   1.00
C407   C     0.41375   0.62206   0.32135   0.00000  Uiso   1.00
H408   H     0.41191   0.65440   0.30334   0.00000  Uiso   1.00
H409   H     0.41457   0.62911   0.35762   0.00000  Uiso   1.00
H410   H     0.44265   0.60514   0.31425   0.00000  Uiso   1.00
C411   C     0.75326   0.49993   0.25023   0.00000  Uiso   1.00
C412   C     0.91338   0.50048   0.25207   0.00000  Uiso   1.00
C413   C     0.83530   0.49991   0.16387   0.00000  Uiso   1.00
C414   C     0.83036   0.50000   0.33584   0.00000  Uiso   1.00
C415   C     0.85817   0.35735   0.28032   0.00000  Uiso   1.00
C416   C     0.80643   0.64230   0.22148   0.00000  Uiso   1.00
C417   C     0.80824   0.35675   0.21966   0.00000  Uiso   1.00
C418   C     0.86072   0.64326   0.27775   0.00000  Uiso   1.00
C419   C     0.68646   0.46045   0.25523   0.00000  Uiso   1.00
C420   C     0.97922   0.54203   0.24665   0.00000  Uiso   1.00
C421   C     0.97984   0.46357   0.26759   0.00000  Uiso   1.00
C422   C     0.68846   0.54208   0.25304   0.00000  Uiso   1.00
C423   C     0.80961   0.53339   0.04620   0.00000  Uiso   1.00
C424   C     0.80251   0.45915   0.44824   0.00000  Uiso   1.00
C425   C     0.83109   0.53426   0.45562   0.00000  Uiso   1.00
C426   C     0.83270   0.45647   0.04625   0.00000  Uiso   1.00
C427   C     0.82285   0.53768   0.09052   0.00000  Uiso   1.00
C428   C     0.80543   0.46080   0.40244   0.00000  Uiso   1.00
C429   C     0.83220   0.53765   0.41032   0.00000  Uiso   1.00
C430   C     0.84165   0.45861   0.09211   0.00000  Uiso   1.00
C431   C     0.83471   0.49912   0.11522   0.00000  Uiso   1.00
C432   C     0.82268   0.49958   0.38311   0.00000  Uiso   1.00
C433   C     0.81653   0.49377   0.02326   0.00000  Uiso   1.00
C434   C     0.81615   0.49550   0.47492   0.00000  Uiso   1.00
C435   C     0.95772   0.50206   0.25534   0.00000  Uiso   1.00
C436   C     0.70906   0.50058   0.25212   0.00000  Uiso   1.00
H437   H     0.79821   0.56295   0.02853   0.00000  Uiso   1.00
H438   H     0.78947   0.42963   0.46298   0.00000  Uiso   1.00
H439   H     0.84222   0.56265   0.47587   0.00000  Uiso   1.00
H440   H     0.84055   0.42658   0.02831   0.00000  Uiso   1.00
N441   N     0.83333   0.61907   0.25000   0.00000  Uiso   1.00
N442   N     0.83333   0.38093   0.25000   0.00000  Uiso   1.00
O443   O     0.77226   0.53821   0.24999   0.00000  Uiso   1.00
O444   O     0.89441   0.46179   0.25000   0.00000  Uiso   1.00
O445   O     0.89441   0.53821   0.25000   0.00000  Uiso   1.00
O446   O     0.77226   0.46179   0.24999   0.00000  Uiso   1.00
O447   O     0.83333   0.53822   0.18453   0.00000  Uiso   1.00
O448   O     0.83334   0.46178   0.31547   0.00000  Uiso   1.00
O449   O     0.83334   0.53822   0.31547   0.00000  Uiso   1.00
O450   O     0.83333   0.46178   0.18453   0.00000  Uiso   1.00
Zn451  Zn    0.83333   0.55104   0.25000   0.00000  Uiso   1.00
Zn452  Zn    0.83333   0.44896   0.25000   0.00000  Uiso   1.00
Br453  Br    0.88694   0.38716   0.32970   0.00000  Uiso   1.00
Br454  Br    0.76548   0.61030   0.18386   0.00000  Uiso   1.00
Br455  Br    0.77581   0.38713   0.17342   0.00000  Uiso   1.00
Br456  Br    0.90553   0.61399   0.31081   0.00000  Uiso   1.00
Br457  Br    0.83426   0.59837   0.10970   0.00000  Uiso   1.00
Br458  Br    0.78114   0.41057   0.36895   0.00000  Uiso   1.00
Br459  Br    0.84395   0.59723   0.39085   0.00000  Uiso   1.00
Br460  Br    0.86980   0.40766   0.11895   0.00000  Uiso   1.00
O461   O     0.70392   0.41868   0.25161   0.00000  Uiso   1.00
C462   C     0.68208   0.39474   0.21619   0.00000  Uiso   1.00
H463   H     0.69299   0.40587   0.18399   0.00000  Uiso   1.00
H464   H     0.98138   0.39922   0.21382   0.00000  Uiso   1.00
C465   C     0.68943   0.34501   0.22233   0.00000  Uiso   1.00
H466   H     0.67029   0.66499   0.24827   0.00000  Uiso   1.00
H467   H     0.68144   0.66049   0.19042   0.00000  Uiso   1.00
H468   H     0.72217   0.33935   0.23288   0.00000  Uiso   1.00
O469   O     0.95935   0.58193   0.23671   0.00000  Uiso   1.00
C470   C     0.95282   0.58551   0.18996   0.00000  Uiso   1.00
H471   H     0.93669   0.55519   0.17490   0.00000  Uiso   1.00
H472   H     0.98269   0.59005   0.17491   0.00000  Uiso   1.00
C473   C     0.92586   0.62596   0.17858   0.00000  Uiso   1.00
H474   H     0.93913   0.65668   0.19525   0.00000  Uiso   1.00
H475   H     0.92324   0.63136   0.14203   0.00000  Uiso   1.00
H476   H     0.89468   0.62004   0.18989   0.00000  Uiso   1.00
O477   O     0.96283   0.42870   0.29047   0.00000  Uiso   1.00
C478   C     0.98336   0.42587   0.33394   0.00000  Uiso   1.00
H479   H     0.96123   0.43448   0.35870   0.00000  Uiso   1.00
H480   H     0.67684   0.44936   0.34079   0.00000  Uiso   1.00
C481   C     0.99844   0.37822   0.34270   0.00000  Uiso   1.00
H482   H     0.69041   0.37066   0.32151   0.00000  Uiso   1.00
H483   H     0.67696   0.37489   0.37812   0.00000  Uiso   1.00
H484   H     0.97307   0.35349   0.33538   0.00000  Uiso   1.00
O485   O     0.70938   0.58234   0.26115   0.00000  Uiso   1.00
C486   C     0.71024   0.59187   0.30735   0.00000  Uiso   1.00
H487   H     0.71328   0.56107   0.32847   0.00000  Uiso   1.00
H488   H     0.68152   0.60939   0.31453   0.00000  Uiso   1.00
C489   C     0.74708   0.62206   0.32135   0.00000  Uiso   1.00
H490   H     0.74524   0.65440   0.30334   0.00000  Uiso   1.00
H491   H     0.74790   0.62911   0.35762   0.00000  Uiso   1.00
H492   H     0.77598   0.60514   0.31425   0.00000  Uiso   1.00
C493   C     0.08660   0.83326   0.25023   0.00000  Uiso   1.00
C494   C     0.24671   0.83381   0.25207   0.00000  Uiso   1.00
C495   C     0.16863   0.83324   0.16387   0.00000  Uiso   1.00
C496   C     0.16369   0.83333   0.33584   0.00000  Uiso   1.00
C497   C     0.19150   0.69069   0.28032   0.00000  Uiso   1.00
C498   C     0.13977   0.97563   0.22148   0.00000  Uiso   1.00
C499   C     0.14157   0.69009   0.21966   0.00000  Uiso   1.00
C500   C     0.19405   0.97659   0.27775   0.00000  Uiso   1.00
C501   C     0.01980   0.79379   0.25523   0.00000  Uiso   1.00
C502   C     0.31255   0.87536   0.24665   0.00000  Uiso   1.00
C503   C     0.31317   0.79690   0.26759   0.00000  Uiso   1.00
C504   C     0.02180   0.87542   0.25304   0.00000  Uiso   1.00
C505   C     0.14295   0.86672   0.04620   0.00000  Uiso   1.00
C506   C     0.13584   0.79248   0.44824   0.00000  Uiso   1.00
C507   C     0.16442   0.86759   0.45562   0.00000  Uiso   1.00
C508   C     0.16603   0.78980   0.04625   0.00000  Uiso   1.00
C509   C     0.15619   0.87101   0.09052   0.00000  Uiso   1.00
C510   C     0.13876   0.79413   0.40244   0.00000  Uiso   1.00
C511   C     0.16554   0.87098   0.41032   0.00000  Uiso   1.00
C512   C     0.17498   0.79195   0.09211   0.00000  Uiso   1.00
C513   C     0.16805   0.83245   0.11522   0.00000  Uiso   1.00
C514   C     0.15601   0.83291   0.38311   0.00000  Uiso   1.00
C515   C     0.14987   0.82711   0.02326   0.00000  Uiso   1.00
C516   C     0.14949   0.82883   0.47492   0.00000  Uiso   1.00
C517   C     0.29106   0.83540   0.25534   0.00000  Uiso   1.00
C518   C     0.04239   0.83392   0.25212   0.00000  Uiso   1.00
H519   H     0.13155   0.89629   0.02853   0.00000  Uiso   1.00
H520   H     0.12280   0.76296   0.46298   0.00000  Uiso   1.00
H521   H     0.17555   0.89598   0.47587   0.00000  Uiso   1.00
H522   H     0.17389   0.75992   0.02831   0.00000  Uiso   1.00
N523   N     0.16667   0.95240   0.25000   0.00000  Uiso   1.00
N524   N     0.16667   0.71427   0.25000   0.00000  Uiso   1.00
O525   O     0.10559   0.87154   0.24999   0.00000  Uiso   1.00
O526   O     0.22774   0.79513   0.25000   0.00000  Uiso   1.00
O527   O     0.22774   0.87154   0.25000   0.00000  Uiso   1.00
O528   O     0.10559   0.79513   0.24999   0.00000  Uiso   1.00
O529   O     0.16666   0.87155   0.18453   0.00000  Uiso   1.00
O530   O     0.16667   0.79511   0.31547   0.00000  Uiso   1.00
O531   O     0.16667   0.87155   0.31547   0.00000  Uiso   1.00
O532   O     0.16666   0.79511   0.18453   0.00000  Uiso   1.00
Zn533  Zn    0.16667   0.88437   0.25000   0.00000  Uiso   1.00
Zn534  Zn    0.16667   0.78229   0.25000   0.00000  Uiso   1.00
Br535  Br    0.22027   0.72050   0.32970   0.00000  Uiso   1.00
Br536  Br    0.09881   0.94363   0.18386   0.00000  Uiso   1.00
Br537  Br    0.10914   0.72046   0.17342   0.00000  Uiso   1.00
Br538  Br    0.23886   0.94732   0.31081   0.00000  Uiso   1.00
Br539  Br    0.16759   0.93170   0.10970   0.00000  Uiso   1.00
Br540  Br    0.11448   0.74391   0.36895   0.00000  Uiso   1.00
Br541  Br    0.17728   0.93057   0.39085   0.00000  Uiso   1.00
Br542  Br    0.20314   0.74100   0.11895   0.00000  Uiso   1.00
O543   O     0.03725   0.75201   0.25161   0.00000  Uiso   1.00
C544   C     0.01541   0.72807   0.21619   0.00000  Uiso   1.00
H545   H     0.02632   0.73920   0.18399   0.00000  Uiso   1.00
H546   H     0.31471   0.73256   0.21382   0.00000  Uiso   1.00
C547   C     0.02276   0.67834   0.22233   0.00000  Uiso   1.00
H548   H     0.00362   0.99832   0.24827   0.00000  Uiso   1.00
H549   H     0.01477   0.99383   0.19042   0.00000  Uiso   1.00
H550   H     0.05550   0.67268   0.23288   0.00000  Uiso   1.00
O551   O     0.29268   0.91526   0.23671   0.00000  Uiso   1.00
C552   C     0.28615   0.91885   0.18996   0.00000  Uiso   1.00
H553   H     0.27002   0.88853   0.17490   0.00000  Uiso   1.00
H554   H     0.31603   0.92338   0.17491   0.00000  Uiso   1.00
C555   C     0.25919   0.95929   0.17858   0.00000  Uiso   1.00
H556   H     0.27246   0.99001   0.19525   0.00000  Uiso   1.00
H557   H     0.25657   0.96469   0.14203   0.00000  Uiso   1.00
H558   H     0.22801   0.95337   0.18989   0.00000  Uiso   1.00
O559   O     0.29616   0.76204   0.29047   0.00000  Uiso   1.00
C560   C     0.31669   0.75920   0.33394   0.00000  Uiso   1.00
H561   H     0.29457   0.76781   0.35870   0.00000  Uiso   1.00
H562   H     0.01018   0.78270   0.34079   0.00000  Uiso   1.00
C563   C     0.33177   0.71155   0.34270   0.00000  Uiso   1.00
H564   H     0.02374   0.70400   0.32151   0.00000  Uiso   1.00
H565   H     0.01030   0.70822   0.37812   0.00000  Uiso   1.00
H566   H     0.30641   0.68682   0.33538   0.00000  Uiso   1.00
O567   O     0.04271   0.91568   0.26115   0.00000  Uiso   1.00
C568   C     0.04358   0.92520   0.30735   0.00000  Uiso   1.00
H569   H     0.04661   0.89440   0.32847   0.00000  Uiso   1.00
H570   H     0.01485   0.94272   0.31453   0.00000  Uiso   1.00
C571   C     0.08042   0.95539   0.32135   0.00000  Uiso   1.00
H572   H     0.07857   0.98774   0.30334   0.00000  Uiso   1.00
H573   H     0.08123   0.96244   0.35762   0.00000  Uiso   1.00
H574   H     0.10931   0.93847   0.31425   0.00000  Uiso   1.00
C575   C     0.41993   0.83326   0.25023   0.00000  Uiso   1.00
C576   C     0.58005   0.83381   0.25207   0.00000  Uiso   1.00
C577   C     0.50196   0.83324   0.16387   0.00000  Uiso   1.00
C578   C     0.49703   0.83333   0.33584   0.00000  Uiso   1.00
C579   C     0.52484   0.69069   0.28032   0.00000  Uiso   1.00
C580   C     0.47310   0.97563   0.22148   0.00000  Uiso   1.00
C581   C     0.47491   0.69009   0.21966   0.00000  Uiso   1.00
C582   C     0.52738   0.97659   0.27775   0.00000  Uiso   1.00
C583   C     0.35313   0.79379   0.25523   0.00000  Uiso   1.00
C584   C     0.64588   0.87536   0.24665   0.00000  Uiso   1.00
C585   C     0.64650   0.79690   0.26759   0.00000  Uiso   1.00
C586   C     0.35513   0.87542   0.25304   0.00000  Uiso   1.00
C587   C     0.47628   0.86672   0.04620   0.00000  Uiso   1.00
C588   C     0.46918   0.79248   0.44824   0.00000  Uiso   1.00
C589   C     0.49776   0.86759   0.45562   0.00000  Uiso   1.00
C590   C     0.49936   0.78980   0.04625   0.00000  Uiso   1.00
C591   C     0.48952   0.87101   0.09052   0.00000  Uiso   1.00
C592   C     0.47210   0.79413   0.40244   0.00000  Uiso   1.00
C593   C     0.49887   0.87098   0.41032   0.00000  Uiso   1.00
C594   C     0.50831   0.79195   0.09211   0.00000  Uiso   1.00
C595   C     0.50138   0.83245   0.11522   0.00000  Uiso   1.00
C596   C     0.48934   0.83291   0.38311   0.00000  Uiso   1.00
C597   C     0.48320   0.82711   0.02326   0.00000  Uiso   1.00
C598   C     0.48282   0.82883   0.47492   0.00000  Uiso   1.00
C599   C     0.62439   0.83540   0.25534   0.00000  Uiso   1.00
C600   C     0.37572   0.83392   0.25212   0.00000  Uiso   1.00
H601   H     0.46488   0.89629   0.02853   0.00000  Uiso   1.00
H602   H     0.45614   0.76296   0.46298   0.00000  Uiso   1.00
H603   H     0.50889   0.89598   0.47587   0.00000  Uiso   1.00
H604   H     0.50722   0.75992   0.02831   0.00000  Uiso   1.00
N605   N     0.50000   0.95240   0.25000   0.00000  Uiso   1.00
N606   N     0.50000   0.71427   0.25000   0.00000  Uiso   1.00
O607   O     0.43892   0.87154   0.24999   0.00000  Uiso   1.00
O608   O     0.56108   0.79513   0.25000   0.00000  Uiso   1.00
O609   O     0.56108   0.87154   0.25000   0.00000  Uiso   1.00
O610   O     0.43892   0.79513   0.24999   0.00000  Uiso   1.00
O611   O     0.50000   0.87155   0.18453   0.00000  Uiso   1.00
O612   O     0.50000   0.79511   0.31547   0.00000  Uiso   1.00
O613   O     0.50000   0.87155   0.31547   0.00000  Uiso   1.00
O614   O     0.50000   0.79511   0.18453   0.00000  Uiso   1.00
Zn615  Zn    0.50000   0.88437   0.25000   0.00000  Uiso   1.00
Zn616  Zn    0.50000   0.78229   0.25000   0.00000  Uiso   1.00
Br617  Br    0.55360   0.72050   0.32970   0.00000  Uiso   1.00
Br618  Br    0.43214   0.94363   0.18386   0.00000  Uiso   1.00
Br619  Br    0.44248   0.72046   0.17342   0.00000  Uiso   1.00
Br620  Br    0.57219   0.94732   0.31081   0.00000  Uiso   1.00
Br621  Br    0.50093   0.93170   0.10970   0.00000  Uiso   1.00
Br622  Br    0.44781   0.74391   0.36895   0.00000  Uiso   1.00
Br623  Br    0.51062   0.93057   0.39085   0.00000  Uiso   1.00
Br624  Br    0.53647   0.74100   0.11895   0.00000  Uiso   1.00
O625   O     0.37059   0.75201   0.25161   0.00000  Uiso   1.00
C626   C     0.34874   0.72807   0.21619   0.00000  Uiso   1.00
H627   H     0.35966   0.73920   0.18399   0.00000  Uiso   1.00
H628   H     0.64805   0.73256   0.21382   0.00000  Uiso   1.00
C629   C     0.35609   0.67834   0.22233   0.00000  Uiso   1.00
H630   H     0.33695   0.99832   0.24827   0.00000  Uiso   1.00
H631   H     0.34811   0.99383   0.19042   0.00000  Uiso   1.00
H632   H     0.38883   0.67268   0.23288   0.00000  Uiso   1.00
O633   O     0.62602   0.91526   0.23671   0.00000  Uiso   1.00
C634   C     0.61948   0.91885   0.18996   0.00000  Uiso   1.00
H635   H     0.60335   0.88853   0.17490   0.00000  Uiso   1.00
H636   H     0.64936   0.92338   0.17491   0.00000  Uiso   1.00
C637   C     0.59253   0.95929   0.17858   0.00000  Uiso   1.00
H638   H     0.60579   0.99001   0.19525   0.00000  Uiso   1.00
H639   H     0.58991   0.96469   0.14203   0.00000  Uiso   1.00
H640   H     0.56134   0.95337   0.18989   0.00000  Uiso   1.00
O641   O     0.62949   0.76204   0.29047   0.00000  Uiso   1.00
C642   C     0.65003   0.75920   0.33394   0.00000  Uiso   1.00
H643   H     0.62790   0.76781   0.35870   0.00000  Uiso   1.00
H644   H     0.34351   0.78270   0.34079   0.00000  Uiso   1.00
C645   C     0.66510   0.71155   0.34270   0.00000  Uiso   1.00
H646   H     0.35707   0.70400   0.32151   0.00000  Uiso   1.00
H647   H     0.34363   0.70822   0.37812   0.00000  Uiso   1.00
H648   H     0.63974   0.68682   0.33538   0.00000  Uiso   1.00
O649   O     0.37604   0.91568   0.26115   0.00000  Uiso   1.00
C650   C     0.37691   0.92520   0.30735   0.00000  Uiso   1.00
H651   H     0.37994   0.89440   0.32847   0.00000  Uiso   1.00
H652   H     0.34819   0.94272   0.31453   0.00000  Uiso   1.00
C653   C     0.41375   0.95539   0.32135   0.00000  Uiso   1.00
H654   H     0.41191   0.98774   0.30334   0.00000  Uiso   1.00
H655   H     0.41457   0.96244   0.35762   0.00000  Uiso   1.00
H656   H     0.44265   0.93847   0.31425   0.00000  Uiso   1.00
C657   C     0.75326   0.83326   0.25023   0.00000  Uiso   1.00
C658   C     0.91338   0.83381   0.25207   0.00000  Uiso   1.00
C659   C     0.83530   0.83324   0.16387   0.00000  Uiso   1.00
C660   C     0.83036   0.83333   0.33584   0.00000  Uiso   1.00
C661   C     0.85817   0.69069   0.28032   0.00000  Uiso   1.00
C662   C     0.80643   0.97563   0.22148   0.00000  Uiso   1.00
C663   C     0.80824   0.69009   0.21966   0.00000  Uiso   1.00
C664   C     0.86072   0.97659   0.27775   0.00000  Uiso   1.00
C665   C     0.68646   0.79379   0.25523   0.00000  Uiso   1.00
C666   C     0.97922   0.87536   0.24665   0.00000  Uiso   1.00
C667   C     0.97984   0.79690   0.26759   0.00000  Uiso   1.00
C668   C     0.68846   0.87542   0.25304   0.00000  Uiso   1.00
C669   C     0.80961   0.86672   0.04620   0.00000  Uiso   1.00
C670   C     0.80251   0.79248   0.44824   0.00000  Uiso   1.00
C671   C     0.83109   0.86759   0.45562   0.00000  Uiso   1.00
C672   C     0.83270   0.78980   0.04625   0.00000  Uiso   1.00
C673   C     0.82285   0.87101   0.09052   0.00000  Uiso   1.00
C674   C     0.80543   0.79413   0.40244   0.00000  Uiso   1.00
C675   C     0.83220   0.87098   0.41032   0.00000  Uiso   1.00
C676   C     0.84165   0.79195   0.09211   0.00000  Uiso   1.00
C677   C     0.83471   0.83245   0.11522   0.00000  Uiso   1.00
C678   C     0.82268   0.83291   0.38311   0.00000  Uiso   1.00
C679   C     0.81653   0.82711   0.02326   0.00000  Uiso   1.00
C680   C     0.81615   0.82883   0.47492   0.00000  Uiso   1.00
C681   C     0.95772   0.83540   0.25534   0.00000  Uiso   1.00
C682   C     0.70906   0.83392   0.25212   0.00000  Uiso   1.00
H683   H     0.79821   0.89629   0.02853   0.00000  Uiso   1.00
H684   H     0.78947   0.76296   0.46298   0.00000  Uiso   1.00
H685   H     0.84222   0.89598   0.47587   0.00000  Uiso   1.00
H686   H     0.84055   0.75992   0.02831   0.00000  Uiso   1.00
N687   N     0.83333   0.95240   0.25000   0.00000  Uiso   1.00
N688   N     0.83333   0.71427   0.25000   0.00000  Uiso   1.00
O689   O     0.77226   0.87154   0.24999   0.00000  Uiso   1.00
O690   O     0.89441   0.79513   0.25000   0.00000  Uiso   1.00
O691   O     0.89441   0.87154   0.25000   0.00000  Uiso   1.00
O692   O     0.77226   0.79513   0.24999   0.00000  Uiso   1.00
O693   O     0.83333   0.87155   0.18453   0.00000  Uiso   1.00
O694   O     0.83334   0.79511   0.31547   0.00000  Uiso   1.00
O695   O     0.83334   0.87155   0.31547   0.00000  Uiso   1.00
O696   O     0.83333   0.79511   0.18453   0.00000  Uiso   1.00
Zn697  Zn    0.83333   0.88437   0.25000   0.00000  Uiso   1.00
Zn698  Zn    0.83333   0.78229   0.25000   0.00000  Uiso   1.00
Br699  Br    0.88694   0.72050   0.32970   0.00000  Uiso   1.00
Br700  Br    0.76548   0.94363   0.18386   0.00000  Uiso   1.00
Br701  Br    0.77581   0.72046   0.17342   0.00000  Uiso   1.00
Br702  Br    0.90553   0.94732   0.31081   0.00000  Uiso   1.00
Br703  Br    0.83426   0.93170   0.10970   0.00000  Uiso   1.00
Br704  Br    0.78114   0.74391   0.36895   0.00000  Uiso   1.00
Br705  Br    0.84395   0.93057   0.39085   0.00000  Uiso   1.00
Br706  Br    0.86980   0.74100   0.11895   0.00000  Uiso   1.00
O707   O     0.70392   0.75201   0.25161   0.00000  Uiso   1.00
C708   C     0.68208   0.72807   0.21619   0.00000  Uiso   1.00
H709   H     0.69299   0.73920   0.18399   0.00000  Uiso   1.00
H710   H     0.98138   0.73256   0.21382   0.00000  Uiso   1.00
C711   C     0.68943   0.67834   0.22233   0.00000  Uiso   1.00
H712   H     0.67029   0.99832   0.24827   0.00000  Uiso   1.00
H713   H     0.68144   0.99383   0.19042   0.00000  Uiso   1.00
H714   H     0.72217   0.67268   0.23288   0.00000  Uiso   1.00
O715   O     0.95935   0.91526   0.23671   0.00000  Uiso   1.00
C716   C     0.95282   0.91885   0.18996   0.00000  Uiso   1.00
H717   H     0.93669   0.88853   0.17490   0.00000  Uiso   1.00
H718   H     0.98269   0.92338   0.17491   0.00000  Uiso   1.00
C719   C     0.92586   0.95929   0.17858   0.00000  Uiso   1.00
H720   H     0.93913   0.99001   0.19525   0.00000  Uiso   1.00
H721   H     0.92324   0.96469   0.14203   0.00000  Uiso   1.00
H722   H     0.89468   0.95337   0.18989   0.00000  Uiso   1.00
O723   O     0.96283   0.76204   0.29047   0.00000  Uiso   1.00
C724   C     0.98336   0.75920   0.33394   0.00000  Uiso   1.00
H725   H     0.96123   0.76781   0.35870   0.00000  Uiso   1.00
H726   H     0.67684   0.78270   0.34079   0.00000  Uiso   1.00
C727   C     0.99844   0.71155   0.34270   0.00000  Uiso   1.00
H728   H     0.69041   0.70400   0.32151   0.00000  Uiso   1.00
H729   H     0.67696   0.70822   0.37812   0.00000  Uiso   1.00
H730   H     0.97307   0.68682   0.33538   0.00000  Uiso   1.00
O731   O     0.70938   0.91568   0.26115   0.00000  Uiso   1.00
C732   C     0.71024   0.92520   0.30735   0.00000  Uiso   1.00
H733   H     0.71328   0.89440   0.32847   0.00000  Uiso   1.00
H734   H     0.68152   0.94272   0.31453   0.00000  Uiso   1.00
C735   C     0.74708   0.95539   0.32135   0.00000  Uiso   1.00
H736   H     0.74524   0.98774   0.30334   0.00000  Uiso   1.00
H737   H     0.74790   0.96244   0.35762   0.00000  Uiso   1.00
H738   H     0.77598   0.93847   0.31425   0.00000  Uiso   1.00
C739   C     0.08660   0.16660   0.75023   0.00000  Uiso   1.00
C740   C     0.24671   0.16714   0.75207   0.00000  Uiso   1.00
C741   C     0.16863   0.16657   0.66387   0.00000  Uiso   1.00
C742   C     0.16369   0.16666   0.83584   0.00000  Uiso   1.00
C743   C     0.19150   0.02402   0.78032   0.00000  Uiso   1.00
C744   C     0.13977   0.30897   0.72148   0.00000  Uiso   1.00
C745   C     0.14157   0.02342   0.71966   0.00000  Uiso   1.00
C746   C     0.19405   0.30993   0.77775   0.00000  Uiso   1.00
C747   C     0.01980   0.12712   0.75523   0.00000  Uiso   1.00
C748   C     0.31255   0.20870   0.74665   0.00000  Uiso   1.00
C749   C     0.31317   0.13024   0.76759   0.00000  Uiso   1.00
C750   C     0.02180   0.20875   0.75304   0.00000  Uiso   1.00
C751   C     0.14295   0.20006   0.54620   0.00000  Uiso   1.00
C752   C     0.13584   0.12582   0.94824   0.00000  Uiso   1.00
C753   C     0.16442   0.20092   0.95562   0.00000  Uiso   1.00
C754   C     0.16603   0.12313   0.54625   0.00000  Uiso   1.00
C755   C     0.15619   0.20435   0.59052   0.00000  Uiso   1.00
C756   C     0.13876   0.12747   0.90244   0.00000  Uiso   1.00
C757   C     0.16554   0.20431   0.91032   0.00000  Uiso   1.00
C758   C     0.17498   0.12528   0.59211   0.00000  Uiso   1.00
C759   C     0.16805   0.16578   0.61522   0.00000  Uiso   1.00
C760   C     0.15601   0.16624   0.88311   0.00000  Uiso   1.00
C761   C     0.14987   0.16044   0.52326   0.00000  Uiso   1.00
C762   C     0.14949   0.16217   0.97492   0.00000  Uiso   1.00
C763   C     0.29106   0.16873   0.75534   0.00000  Uiso   1.00
C764   C     0.04239   0.16725   0.75212   0.00000  Uiso   1.00
H765   H     0.13155   0.22962   0.52853   0.00000  Uiso   1.00
H766   H     0.12280   0.09629   0.96298   0.00000  Uiso   1.00
H767   H     0.17555   0.22932   0.97587   0.00000  Uiso   1.00
H768   H     0.17389   0.09325   0.52831   0.00000  Uiso   1.00
N769   N     0.16667   0.28573   0.75000   0.00000  Uiso   1.00
N770   N     0.16667   0.04760   0.75000   0.00000  Uiso   1.00
O771   O     0.10559   0.20487   0.74999   0.00000  Uiso   1.00
O772   O     0.22774   0.12846   0.75000   0.00000  Uiso   1.00
O773   O     0.22774   0.20487   0.75000   0.00000  Uiso   1.00
O774   O     0.10559   0.12846   0.74999   0.00000  Uiso   1.00
O775   O     0.16666   0.20489   0.68453   0.00000  Uiso   1.00
O776   O     0.16667   0.12845   0.81547   0.00000  Uiso   1.00
O777   O     0.16667   0.20489   0.81547   0.00000  Uiso   1.00
O778   O     0.16666   0.12845   0.68453   0.00000  Uiso   1.00
Zn779  Zn    0.16667   0.21771   0.75000   0.00000  Uiso   1.00
Zn780  Zn    0.16667   0.11563   0.75000   0.00000  Uiso   1.00
Br781  Br    0.22027   0.05383   0.82970   0.00000  Uiso   1.00
Br782  Br    0.09881   0.27696   0.68386   0.00000  Uiso   1.00
Br783  Br    0.10914   0.05379   0.67342   0.00000  Uiso   1.00
Br784  Br    0.23886   0.28066   0.81081   0.00000  Uiso   1.00
Br785  Br    0.16759   0.26503   0.60970   0.00000  Uiso   1.00
Br786  Br    0.11448   0.07724   0.86895   0.00000  Uiso   1.00
Br787  Br    0.17728   0.26390   0.89085   0.00000  Uiso   1.00
Br788  Br    0.20314   0.07433   0.61895   0.00000  Uiso   1.00
O789   O     0.03725   0.08534   0.75161   0.00000  Uiso   1.00
C790   C     0.01541   0.06141   0.71619   0.00000  Uiso   1.00
H791   H     0.02632   0.07254   0.68399   0.00000  Uiso   1.00
H792   H     0.31471   0.06589   0.71382   0.00000  Uiso   1.00
C793   C     0.02276   0.01167   0.72233   0.00000  Uiso   1.00
H794   H     0.00362   0.33166   0.74827   0.00000  Uiso   1.00
H795   H     0.01477   0.32716   0.69042   0.00000  Uiso   1.00
H796   H     0.05550   0.00602   0.73288   0.00000  Uiso   1.00
O797   O     0.29268   0.24860   0.73671   0.00000  Uiso   1.00
C798   C     0.28615   0.25218   0.68996   0.00000  Uiso   1.00
H799   H     0.27002   0.22186   0.67490   0.00000  Uiso   1.00
H800   H     0.31603   0.25672   0.67491   0.00000  Uiso   1.00
C801   C     0.25919   0.29262   0.67858   0.00000  Uiso   1.00
H802   H     0.27246   0.32335   0.69525   0.00000  Uiso   1.00
H803   H     0.25657   0.29803   0.64203   0.00000  Uiso   1.00
H804   H     0.22801   0.28670   0.68989   0.00000  Uiso   1.00
O805   O     0.29616   0.09537   0.79047   0.00000  Uiso   1.00
C806   C     0.31669   0.09253   0.83394   0.00000  Uiso   1.00
H807   H     0.29457   0.10115   0.85870   0.00000  Uiso   1.00
H808   H     0.01018   0.11603   0.84079   0.00000  Uiso   1.00
C809   C     0.33177   0.04488   0.84270   0.00000  Uiso   1.00
H810   H     0.02374   0.03733   0.82151   0.00000  Uiso   1.00
H811   H     0.01030   0.04156   0.87812   0.00000  Uiso   1.00
H812   H     0.30641   0.02015   0.83538   0.00000  Uiso   1.00
O813   O     0.04271   0.24901   0.76115   0.00000  Uiso   1.00
C814   C     0.04358   0.25854   0.80735   0.00000  Uiso   1.00
H815   H     0.04661   0.22774   0.82847   0.00000  Uiso   1.00
H816   H     0.01485   0.27605   0.81453   0.00000  Uiso   1.00
C817   C     0.08042   0.28873   0.82135   0.00000  Uiso   1.00
H818   H     0.07857   0.32107   0.80334   0.00000  Uiso   1.00
H819   H     0.08123   0.29578   0.85762   0.00000  Uiso   1.00
H820   H     0.10931   0.27180   0.81425   0.00000  Uiso   1.00
C821   C     0.41993   0.16660   0.75023   0.00000  Uiso   1.00
C822   C     0.58005   0.16714   0.75207   0.00000  Uiso   1.00
C823   C     0.50196   0.16657   0.66387   0.00000  Uiso   1.00
C824   C     0.49703   0.16666   0.83584   0.00000  Uiso   1.00
C825   C     0.52484   0.02402   0.78032   0.00000  Uiso   1.00
C826   C     0.47310   0.30897   0.72148   0.00000  Uiso   1.00
C827   C     0.47491   0.02342   0.71966   0.00000  Uiso   1.00
C828   C     0.52738   0.30993   0.77775   0.00000  Uiso   1.00
C829   C     0.35313   0.12712   0.75523   0.00000  Uiso   1.00
C830   C     0.64588   0.20870   0.74665   0.00000  Uiso   1.00
C831   C     0.64650   0.13024   0.76759   0.00000  Uiso   1.00
C832   C     0.35513   0.20875   0.75304   0.00000  Uiso   1.00
C833   C     0.47628   0.20006   0.54620   0.00000  Uiso   1.00
C834   C     0.46918   0.12582   0.94824   0.00000  Uiso   1.00
C835   C     0.49776   0.20092   0.95562   0.00000  Uiso   1.00
C836   C     0.49936   0.12313   0.54625   0.00000  Uiso   1.00
C837   C     0.48952   0.20435   0.59052   0.00000  Uiso   1.00
C838   C     0.47210   0.12747   0.90244   0.00000  Uiso   1.00
C839   C     0.49887   0.20431   0.91032   0.00000  Uiso   1.00
C840   C     0.50831   0.12528   0.59211   0.00000  Uiso   1.00
C841   C     0.50138   0.16578   0.61522   0.00000  Uiso   1.00
C842   C     0.48934   0.16624   0.88311   0.00000  Uiso   1.00
C843   C     0.48320   0.16044   0.52326   0.00000  Uiso   1.00
C844   C     0.48282   0.16217   0.97492   0.00000  Uiso   1.00
C845   C     0.62439   0.16873   0.75534   0.00000  Uiso   1.00
C846   C     0.37572   0.16725   0.75212   0.00000  Uiso   1.00
H847   H     0.46488   0.22962   0.52853   0.00000  Uiso   1.00
H848   H     0.45614   0.09629   0.96298   0.00000  Uiso   1.00
H849   H     0.50889   0.22932   0.97587   0.00000  Uiso   1.00
H850   H     0.50722   0.09325   0.52831   0.00000  Uiso   1.00
N851   N     0.50000   0.28573   0.75000   0.00000  Uiso   1.00
N852   N     0.50000   0.04760   0.75000   0.00000  Uiso   1.00
O853   O     0.43892   0.20487   0.74999   0.00000  Uiso   1.00
O854   O     0.56108   0.12846   0.75000   0.00000  Uiso   1.00
O855   O     0.56108   0.20487   0.75000   0.00000  Uiso   1.00
O856   O     0.43892   0.12846   0.74999   0.00000  Uiso   1.00
O857   O     0.50000   0.20489   0.68453   0.00000  Uiso   1.00
O858   O     0.50000   0.12845   0.81547   0.00000  Uiso   1.00
O859   O     0.50000   0.20489   0.81547   0.00000  Uiso   1.00
O860   O     0.50000   0.12845   0.68453   0.00000  Uiso   1.00
Zn861  Zn    0.50000   0.21771   0.75000   0.00000  Uiso   1.00
Zn862  Zn    0.50000   0.11563   0.75000   0.00000  Uiso   1.00
Br863  Br    0.55360   0.05383   0.82970   0.00000  Uiso   1.00
Br864  Br    0.43214   0.27696   0.68386   0.00000  Uiso   1.00
Br865  Br    0.44248   0.05379   0.67342   0.00000  Uiso   1.00
Br866  Br    0.57219   0.28066   0.81081   0.00000  Uiso   1.00
Br867  Br    0.50093   0.26503   0.60970   0.00000  Uiso   1.00
Br868  Br    0.44781   0.07724   0.86895   0.00000  Uiso   1.00
Br869  Br    0.51062   0.26390   0.89085   0.00000  Uiso   1.00
Br870  Br    0.53647   0.07433   0.61895   0.00000  Uiso   1.00
O871   O     0.37059   0.08534   0.75161   0.00000  Uiso   1.00
C872   C     0.34874   0.06141   0.71619   0.00000  Uiso   1.00
H873   H     0.35966   0.07254   0.68399   0.00000  Uiso   1.00
H874   H     0.64805   0.06589   0.71382   0.00000  Uiso   1.00
C875   C     0.35609   0.01167   0.72233   0.00000  Uiso   1.00
H876   H     0.33695   0.33166   0.74827   0.00000  Uiso   1.00
H877   H     0.34811   0.32716   0.69042   0.00000  Uiso   1.00
H878   H     0.38883   0.00602   0.73288   0.00000  Uiso   1.00
O879   O     0.62602   0.24860   0.73671   0.00000  Uiso   1.00
C880   C     0.61948   0.25218   0.68996   0.00000  Uiso   1.00
H881   H     0.60335   0.22186   0.67490   0.00000  Uiso   1.00
H882   H     0.64936   0.25672   0.67491   0.00000  Uiso   1.00
C883   C     0.59253   0.29262   0.67858   0.00000  Uiso   1.00
H884   H     0.60579   0.32335   0.69525   0.00000  Uiso   1.00
H885   H     0.58991   0.29803   0.64203   0.00000  Uiso   1.00
H886   H     0.56134   0.28670   0.68989   0.00000  Uiso   1.00
O887   O     0.62949   0.09537   0.79047   0.00000  Uiso   1.00
C888   C     0.65003   0.09253   0.83394   0.00000  Uiso   1.00
H889   H     0.62790   0.10115   0.85870   0.00000  Uiso   1.00
H890   H     0.34351   0.11603   0.84079   0.00000  Uiso   1.00
C891   C     0.66510   0.04488   0.84270   0.00000  Uiso   1.00
H892   H     0.35707   0.03733   0.82151   0.00000  Uiso   1.00
H893   H     0.34363   0.04156   0.87812   0.00000  Uiso   1.00
H894   H     0.63974   0.02015   0.83538   0.00000  Uiso   1.00
O895   O     0.37604   0.24901   0.76115   0.00000  Uiso   1.00
C896   C     0.37691   0.25854   0.80735   0.00000  Uiso   1.00
H897   H     0.37994   0.22774   0.82847   0.00000  Uiso   1.00
H898   H     0.34819   0.27605   0.81453   0.00000  Uiso   1.00
C899   C     0.41375   0.28873   0.82135   0.00000  Uiso   1.00
H900   H     0.41191   0.32107   0.80334   0.00000  Uiso   1.00
H901   H     0.41457   0.29578   0.85762   0.00000  Uiso   1.00
H902   H     0.44265   0.27180   0.81425   0.00000  Uiso   1.00
C903   C     0.75326   0.16660   0.75023   0.00000  Uiso   1.00
C904   C     0.91338   0.16714   0.75207   0.00000  Uiso   1.00
C905   C     0.83530   0.16657   0.66387   0.00000  Uiso   1.00
C906   C     0.83036   0.16666   0.83584   0.00000  Uiso   1.00
C907   C     0.85817   0.02402   0.78032   0.00000  Uiso   1.00
C908   C     0.80643   0.30897   0.72148   0.00000  Uiso   1.00
C909   C     0.80824   0.02342   0.71966   0.00000  Uiso   1.00
C910   C     0.86072   0.30993   0.77775   0.00000  Uiso   1.00
C911   C     0.68646   0.12712   0.75523   0.00000  Uiso   1.00
C912   C     0.97922   0.20870   0.74665   0.00000  Uiso   1.00
C913   C     0.97984   0.13024   0.76759   0.00000  Uiso   1.00
C914   C     0.68846   0.20875   0.75304   0.00000  Uiso   1.00
C915   C     0.80961   0.20006   0.54620   0.00000  Uiso   1.00
C916   C     0.80251   0.12582   0.94824   0.00000  Uiso   1.00
C917   C     0.83109   0.20092   0.95562   0.00000  Uiso   1.00
C918   C     0.83270   0.12313   0.54625   0.00000  Uiso   1.00
C919   C     0.82285   0.20435   0.59052   0.00000  Uiso   1.00
C920   C     0.80543   0.12747   0.90244   0.00000  Uiso   1.00
C921   C     0.83220   0.20431   0.91032   0.00000  Uiso   1.00
C922   C     0.84165   0.12528   0.59211   0.00000  Uiso   1.00
C923   C     0.83471   0.16578   0.61522   0.00000  Uiso   1.00
C924   C     0.82268   0.16624   0.88311   0.00000  Uiso   1.00
C925   C     0.81653   0.16044   0.52326   0.00000  Uiso   1.00
C926   C     0.81615   0.16217   0.97492   0.00000  Uiso   1.00
C927   C     0.95772   0.16873   0.75534   0.00000  Uiso   1.00
C928   C     0.70906   0.16725   0.75212   0.00000  Uiso   1.00
H929   H     0.79821   0.22962   0.52853   0.00000  Uiso   1.00
H930   H     0.78947   0.09629   0.96298   0.00000  Uiso   1.00
H931   H     0.84222   0.22932   0.97587   0.00000  Uiso   1.00
H932   H     0.84055   0.09325   0.52831   0.00000  Uiso   1.00
N933   N     0.83333   0.28573   0.75000   0.00000  Uiso   1.00
N934   N     0.83333   0.04760   0.75000   0.00000  Uiso   1.00
O935   O     0.77226   0.20487   0.74999   0.00000  Uiso   1.00
O936   O     0.89441   0.12846   0.75000   0.00000  Uiso   1.00
O937   O     0.89441   0.20487   0.75000   0.00000  Uiso   1.00
O938   O     0.77226   0.12846   0.74999   0.00000  Uiso   1.00
O939   O     0.83333   0.20489   0.68453   0.00000  Uiso   1.00
O940   O     0.83334   0.12845   0.81547   0.00000  Uiso   1.00
O941   O     0.83334   0.20489   0.81547   0.00000  Uiso   1.00
O942   O     0.83333   0.12845   0.68453   0.00000  Uiso   1.00
Zn943  Zn    0.83333   0.21771   0.75000   0.00000  Uiso   1.00
Zn944  Zn    0.83333   0.11563   0.75000   0.00000  Uiso   1.00
Br945  Br    0.88694   0.05383   0.82970   0.00000  Uiso   1.00
Br946  Br    0.76548   0.27696   0.68386   0.00000  Uiso   1.00
Br947  Br    0.77581   0.05379   0.67342   0.00000  Uiso   1.00
Br948  Br    0.90553   0.28066   0.81081   0.00000  Uiso   1.00
Br949  Br    0.83426   0.26503   0.60970   0.00000  Uiso   1.00
Br950  Br    0.78114   0.07724   0.86895   0.00000  Uiso   1.00
Br951  Br    0.84395   0.26390   0.89085   0.00000  Uiso   1.00
Br952  Br    0.86980   0.07433   0.61895   0.00000  Uiso   1.00
O953   O     0.70392   0.08534   0.75161   0.00000  Uiso   1.00
C954   C     0.68208   0.06141   0.71619   0.00000  Uiso   1.00
H955   H     0.69299   0.07254   0.68399   0.00000  Uiso   1.00
H956   H     0.98138   0.06589   0.71382   0.00000  Uiso   1.00
C957   C     0.68943   0.01167   0.72233   0.00000  Uiso   1.00
H958   H     0.67029   0.33166   0.74827   0.00000  Uiso   1.00
H959   H     0.68144   0.32716   0.69042   0.00000  Uiso   1.00
H960   H     0.72217   0.00602   0.73288   0.00000  Uiso   1.00
O961   O     0.95935   0.24860   0.73671   0.00000  Uiso   1.00
C962   C     0.95282   0.25218   0.68996   0.00000  Uiso   1.00
H963   H     0.93669   0.22186   0.67490   0.00000  Uiso   1.00
H964   H     0.98269   0.25672   0.67491   0.00000  Uiso   1.00
C965   C     0.92586   0.29262   0.67858   0.00000  Uiso   1.00
H966   H     0.93913   0.32335   0.69525   0.00000  Uiso   1.00
H967   H     0.92324   0.29803   0.64203   0.00000  Uiso   1.00
H968   H     0.89468   0.28670   0.68989   0.00000  Uiso   1.00
O969   O     0.96283   0.09537   0.79047   0.00000  Uiso   1.00
C970   C     0.98336   0.09253   0.83394   0.00000  Uiso   1.00
H971   H     0.96123   0.10115   0.85870   0.00000  Uiso   1.00
H972   H     0.67684   0.11603   0.84079   0.00000  Uiso   1.00
C973   C     0.99844   0.04488   0.84270   0.00000  Uiso   1.00
H974   H     0.69041   0.03733   0.82151   0.00000  Uiso   1.00
H975   H     0.67696   0.04156   0.87812   0.00000  Uiso   1.00
H976   H     0.97307   0.02015   0.83538   0.00000  Uiso   1.00
O977   O     0.70938   0.24901   0.76115   0.00000  Uiso   1.00
C978   C     0.71024   0.25854   0.80735   0.00000  Uiso   1.00
H979   H     0.71328   0.22774   0.82847   0.00000  Uiso   1.00
H980   H     0.68152   0.27605   0.81453   0.00000  Uiso   1.00
C981   C     0.74708   0.28873   0.82135   0.00000  Uiso   1.00
H982   H     0.74524   0.32107   0.80334   0.00000  Uiso   1.00
H983   H     0.74790   0.29578   0.85762   0.00000  Uiso   1.00
H984   H     0.77598   0.27180   0.81425   0.00000  Uiso   1.00
C985   C     0.08660   0.49993   0.75023   0.00000  Uiso   1.00
C986   C     0.24671   0.50048   0.75207   0.00000  Uiso   1.00
C987   C     0.16863   0.49991   0.66387   0.00000  Uiso   1.00
C988   C     0.16369   0.50000   0.83584   0.00000  Uiso   1.00
C989   C     0.19150   0.35735   0.78032   0.00000  Uiso   1.00
C990   C     0.13977   0.64230   0.72148   0.00000  Uiso   1.00
C991   C     0.14157   0.35675   0.71966   0.00000  Uiso   1.00
C992   C     0.19405   0.64326   0.77775   0.00000  Uiso   1.00
C993   C     0.01980   0.46045   0.75523   0.00000  Uiso   1.00
C994   C     0.31255   0.54203   0.74665   0.00000  Uiso   1.00
C995   C     0.31317   0.46357   0.76759   0.00000  Uiso   1.00
C996   C     0.02180   0.54208   0.75304   0.00000  Uiso   1.00
C997   C     0.14295   0.53339   0.54620   0.00000  Uiso   1.00
C998   C     0.13584   0.45915   0.94824   0.00000  Uiso   1.00
C999   C     0.16442   0.53426   0.95562   0.00000  Uiso   1.00
C1000  C     0.16603   0.45647   0.54625   0.00000  Uiso   1.00
C1001  C     0.15619   0.53768   0.59052   0.00000  Uiso   1.00
C1002  C     0.13876   0.46080   0.90244   0.00000  Uiso   1.00
C1003  C     0.16554   0.53765   0.91032   0.00000  Uiso   1.00
C1004  C     0.17498   0.45861   0.59211   0.00000  Uiso   1.00
C1005  C     0.16805   0.49912   0.61522   0.00000  Uiso   1.00
C1006  C     0.15601   0.49958   0.88311   0.00000  Uiso   1.00
C1007  C     0.14987   0.49377   0.52326   0.00000  Uiso   1.00
C1008  C     0.14949   0.49550   0.97492   0.00000  Uiso   1.00
C1009  C     0.29106   0.50206   0.75534   0.00000  Uiso   1.00
C1010  C     0.04239   0.50058   0.75212   0.00000  Uiso   1.00
H1011  H     0.13155   0.56295   0.52853   0.00000  Uiso   1.00
H1012  H     0.12280   0.42963   0.96298   0.00000  Uiso   1.00
H1013  H     0.17555   0.56265   0.97587   0.00000  Uiso   1.00
H1014  H     0.17389   0.42658   0.52831   0.00000  Uiso   1.00
N1015  N     0.16667   0.61907   0.75000   0.00000  Uiso   1.00
N1016  N     0.16667   0.38093   0.75000   0.00000  Uiso   1.00
O1017  O     0.10559   0.53821   0.74999   0.00000  Uiso   1.00
O1018  O     0.22774   0.46179   0.75000   0.00000  Uiso   1.00
O1019  O     0.22774   0.53821   0.75000   0.00000  Uiso   1.00
O1020  O     0.10559   0.46179   0.74999   0.00000  Uiso   1.00
O1021  O     0.16666   0.53822   0.68453   0.00000  Uiso   1.00
O1022  O     0.16667   0.46178   0.81547   0.00000  Uiso   1.00
O1023  O     0.16667   0.53822   0.81547   0.00000  Uiso   1.00
O1024  O     0.16666   0.46178   0.68453   0.00000  Uiso   1.00
Zn1025 Zn    0.16667   0.55104   0.75000   0.00000  Uiso   1.00
Zn1026 Zn    0.16667   0.44896   0.75000   0.00000  Uiso   1.00
Br1027 Br    0.22027   0.38716   0.82970   0.00000  Uiso   1.00
Br1028 Br    0.09881   0.61030   0.68386   0.00000  Uiso   1.00
Br1029 Br    0.10914   0.38713   0.67342   0.00000  Uiso   1.00
Br1030 Br    0.23886   0.61399   0.81081   0.00000  Uiso   1.00
Br1031 Br    0.16759   0.59837   0.60970   0.00000  Uiso   1.00
Br1032 Br    0.11448   0.41057   0.86895   0.00000  Uiso   1.00
Br1033 Br    0.17728   0.59723   0.89085   0.00000  Uiso   1.00
Br1034 Br    0.20314   0.40766   0.61895   0.00000  Uiso   1.00
O1035  O     0.03725   0.41868   0.75161   0.00000  Uiso   1.00
C1036  C     0.01541   0.39474   0.71619   0.00000  Uiso   1.00
H1037  H     0.02632   0.40587   0.68399   0.00000  Uiso   1.00
H1038  H     0.31471   0.39922   0.71382   0.00000  Uiso   1.00
C1039  C     0.02276   0.34501   0.72233   0.00000  Uiso   1.00
H1040  H     0.00362   0.66499   0.74827   0.00000  Uiso   1.00
H1041  H     0.01477   0.66049   0.69042   0.00000  Uiso   1.00
H1042  H     0.05550   0.33935   0.73288   0.00000  Uiso   1.00
O1043  O     0.29268   0.58193   0.73671   0.00000  Uiso   1.00
C1044  C     0.28615   0.58551   0.68996   0.00000  Uiso   1.00
H1045  H     0.27002   0.55519   0.67490   0.00000  Uiso   1.00
H1046  H     0.31603   0.59005   0.67491   0.00000  Uiso   1.00
C1047  C     0.25919   0.62596   0.67858   0.00000  Uiso   1.00
H1048  H     0.27246   0.65668   0.69525   0.00000  Uiso   1.00
H1049  H     0.25657   0.63136   0.64203   0.00000  Uiso   1.00
H1050  H     0.22801   0.62004   0.68989   0.00000  Uiso   1.00
O1051  O     0.29616   0.42870   0.79047   0.00000  Uiso   1.00
C1052  C     0.31669   0.42587   0.83394   0.00000  Uiso   1.00
H1053  H     0.29457   0.43448   0.85870   0.00000  Uiso   1.00
H1054  H     0.01018   0.44936   0.84079   0.00000  Uiso   1.00
C1055  C     0.33177   0.37822   0.84270   0.00000  Uiso   1.00
H1056  H     0.02374   0.37066   0.82151   0.00000  Uiso   1.00
H1057  H     0.01030   0.37489   0.87812   0.00000  Uiso   1.00
H1058  H     0.30641   0.35349   0.83538   0.00000  Uiso   1.00
O1059  O     0.04271   0.58234   0.76115   0.00000  Uiso   1.00
C1060  C     0.04358   0.59187   0.80735   0.00000  Uiso   1.00
H1061  H     0.04661   0.56107   0.82847   0.00000  Uiso   1.00
H1062  H     0.01485   0.60939   0.81453   0.00000  Uiso   1.00
C1063  C     0.08042   0.62206   0.82135   0.00000  Uiso   1.00
H1064  H     0.07857   0.65440   0.80334   0.00000  Uiso   1.00
H1065  H     0.08123   0.62911   0.85762   0.00000  Uiso   1.00
H1066  H     0.10931   0.60514   0.81425   0.00000  Uiso   1.00
C1067  C     0.41993   0.49993   0.75023   0.00000  Uiso   1.00
C1068  C     0.58005   0.50048   0.75207   0.00000  Uiso   1.00
C1069  C     0.50196   0.49991   0.66387   0.00000  Uiso   1.00
C1070  C     0.49703   0.50000   0.83584   0.00000  Uiso   1.00
C1071  C     0.52484   0.35735   0.78032   0.00000  Uiso   1.00
C1072  C     0.47310   0.64230   0.72148   0.00000  Uiso   1.00
C1073  C     0.47491   0.35675   0.71966   0.00000  Uiso   1.00
C1074  C     0.52738   0.64326   0.77775   0.00000  Uiso   1.00
C1075  C     0.35313   0.46045   0.75523   0.00000  Uiso   1.00
C1076  C     0.64588   0.54203   0.74665   0.00000  Uiso   1.00
C1077  C     0.64650   0.46357   0.76759   0.00000  Uiso   1.00
C1078  C     0.35513   0.54208   0.75304   0.00000  Uiso   1.00
C1079  C     0.47628   0.53339   0.54620   0.00000  Uiso   1.00
C1080  C     0.46918   0.45915   0.94824   0.00000  Uiso   1.00
C1081  C     0.49776   0.53426   0.95562   0.00000  Uiso   1.00
C1082  C     0.49936   0.45647   0.54625   0.00000  Uiso   1.00
C1083  C     0.48952   0.53768   0.59052   0.00000  Uiso   1.00
C1084  C     0.47210   0.46080   0.90244   0.00000  Uiso   1.00
C1085  C     0.49887   0.53765   0.91032   0.00000  Uiso   1.00
C1086  C     0.50831   0.45861   0.59211   0.00000  Uiso   1.00
C1087  C     0.50138   0.49912   0.61522   0.00000  Uiso   1.00
C1088  C     0.48934   0.49958   0.88311   0.00000  Uiso   1.00
C1089  C     0.48320   0.49377   0.52326   0.00000  Uiso   1.00
C1090  C     0.48282   0.49550   0.97492   0.00000  Uiso   1.00
C1091  C     0.62439   0.50206   0.75534   0.00000  Uiso   1.00
C1092  C     0.37572   0.50058   0.75212   0.00000  Uiso   1.00
H1093  H     0.46488   0.56295   0.52853   0.00000  Uiso   1.00
H1094  H     0.45614   0.42963   0.96298   0.00000  Uiso   1.00
H1095  H     0.50889   0.56265   0.97587   0.00000  Uiso   1.00
H1096  H     0.50722   0.42658   0.52831   0.00000  Uiso   1.00
N1097  N     0.50000   0.61907   0.75000   0.00000  Uiso   1.00
N1098  N     0.50000   0.38093   0.75000   0.00000  Uiso   1.00
O1099  O     0.43892   0.53821   0.74999   0.00000  Uiso   1.00
O1100  O     0.56108   0.46179   0.75000   0.00000  Uiso   1.00
O1101  O     0.56108   0.53821   0.75000   0.00000  Uiso   1.00
O1102  O     0.43892   0.46179   0.74999   0.00000  Uiso   1.00
O1103  O     0.50000   0.53822   0.68453   0.00000  Uiso   1.00
O1104  O     0.50000   0.46178   0.81547   0.00000  Uiso   1.00
O1105  O     0.50000   0.53822   0.81547   0.00000  Uiso   1.00
O1106  O     0.50000   0.46178   0.68453   0.00000  Uiso   1.00
Zn1107 Zn    0.50000   0.55104   0.75000   0.00000  Uiso   1.00
Zn1108 Zn    0.50000   0.44896   0.75000   0.00000  Uiso   1.00
Br1109 Br    0.55360   0.38716   0.82970   0.00000  Uiso   1.00
Br1110 Br    0.43214   0.61030   0.68386   0.00000  Uiso   1.00
Br1111 Br    0.44248   0.38713   0.67342   0.00000  Uiso   1.00
Br1112 Br    0.57219   0.61399   0.81081   0.00000  Uiso   1.00
Br1113 Br    0.50093   0.59837   0.60970   0.00000  Uiso   1.00
Br1114 Br    0.44781   0.41057   0.86895   0.00000  Uiso   1.00
Br1115 Br    0.51062   0.59723   0.89085   0.00000  Uiso   1.00
Br1116 Br    0.53647   0.40766   0.61895   0.00000  Uiso   1.00
O1117  O     0.37059   0.41868   0.75161   0.00000  Uiso   1.00
C1118  C     0.34874   0.39474   0.71619   0.00000  Uiso   1.00
H1119  H     0.35966   0.40587   0.68399   0.00000  Uiso   1.00
H1120  H     0.64805   0.39922   0.71382   0.00000  Uiso   1.00
C1121  C     0.35609   0.34501   0.72233   0.00000  Uiso   1.00
H1122  H     0.33695   0.66499   0.74827   0.00000  Uiso   1.00
H1123  H     0.34811   0.66049   0.69042   0.00000  Uiso   1.00
H1124  H     0.38883   0.33935   0.73288   0.00000  Uiso   1.00
O1125  O     0.62602   0.58193   0.73671   0.00000  Uiso   1.00
C1126  C     0.61948   0.58551   0.68996   0.00000  Uiso   1.00
H1127  H     0.60335   0.55519   0.67490   0.00000  Uiso   1.00
H1128  H     0.64936   0.59005   0.67491   0.00000  Uiso   1.00
C1129  C     0.59253   0.62596   0.67858   0.00000  Uiso   1.00
H1130  H     0.60579   0.65668   0.69525   0.00000  Uiso   1.00
H1131  H     0.58991   0.63136   0.64203   0.00000  Uiso   1.00
H1132  H     0.56134   0.62004   0.68989   0.00000  Uiso   1.00
O1133  O     0.62949   0.42870   0.79047   0.00000  Uiso   1.00
C1134  C     0.65003   0.42587   0.83394   0.00000  Uiso   1.00
H1135  H     0.62790   0.43448   0.85870   0.00000  Uiso   1.00
H1136  H     0.34351   0.44936   0.84079   0.00000  Uiso   1.00
C1137  C     0.66510   0.37822   0.84270   0.00000  Uiso   1.00
H1138  H     0.35707   0.37066   0.82151   0.00000  Uiso   1.00
H1139  H     0.34363   0.37489   0.87812   0.00000  Uiso   1.00
H1140  H     0.63974   0.35349   0.83538   0.00000  Uiso   1.00
O1141  O     0.37604   0.58234   0.76115   0.00000  Uiso   1.00
C1142  C     0.37691   0.59187   0.80735   0.00000  Uiso   1.00
H1143  H     0.37994   0.56107   0.82847   0.00000  Uiso   1.00
H1144  H     0.34819   0.60939   0.81453   0.00000  Uiso   1.00
C1145  C     0.41375   0.62206   0.82135   0.00000  Uiso   1.00
H1146  H     0.41191   0.65440   0.80334   0.00000  Uiso   1.00
H1147  H     0.41457   0.62911   0.85762   0.00000  Uiso   1.00
H1148  H     0.44265   0.60514   0.81425   0.00000  Uiso   1.00
C1149  C     0.75326   0.49993   0.75023   0.00000  Uiso   1.00
C1150  C     0.91338   0.50048   0.75207   0.00000  Uiso   1.00
C1151  C     0.83530   0.49991   0.66387   0.00000  Uiso   1.00
C1152  C     0.83036   0.50000   0.83584   0.00000  Uiso   1.00
C1153  C     0.85817   0.35735   0.78032   0.00000  Uiso   1.00
C1154  C     0.80643   0.64230   0.72148   0.00000  Uiso   1.00
C1155  C     0.80824   0.35675   0.71966   0.00000  Uiso   1.00
C1156  C     0.86072   0.64326   0.77775   0.00000  Uiso   1.00
C1157  C     0.68646   0.46045   0.75523   0.00000  Uiso   1.00
C1158  C     0.97922   0.54203   0.74665   0.00000  Uiso   1.00
C1159  C     0.97984   0.46357   0.76759   0.00000  Uiso   1.00
C1160  C     0.68846   0.54208   0.75304   0.00000  Uiso   1.00
C1161  C     0.80961   0.53339   0.54620   0.00000  Uiso   1.00
C1162  C     0.80251   0.45915   0.94824   0.00000  Uiso   1.00
C1163  C     0.83109   0.53426   0.95562   0.00000  Uiso   1.00
C1164  C     0.83270   0.45647   0.54625   0.00000  Uiso   1.00
C1165  C     0.82285   0.53768   0.59052   0.00000  Uiso   1.00
C1166  C     0.80543   0.46080   0.90244   0.00000  Uiso   1.00
C1167  C     0.83220   0.53765   0.91032   0.00000  Uiso   1.00
C1168  C     0.84165   0.45861   0.59211   0.00000  Uiso   1.00
C1169  C     0.83471   0.49912   0.61522   0.00000  Uiso   1.00
C1170  C     0.82268   0.49958   0.88311   0.00000  Uiso   1.00
C1171  C     0.81653   0.49377   0.52326   0.00000  Uiso   1.00
C1172  C     0.81615   0.49550   0.97492   0.00000  Uiso   1.00
C1173  C     0.95772   0.50206   0.75534   0.00000  Uiso   1.00
C1174  C     0.70906   0.50058   0.75212   0.00000  Uiso   1.00
H1175  H     0.79821   0.56295   0.52853   0.00000  Uiso   1.00
H1176  H     0.78947   0.42963   0.96298   0.00000  Uiso   1.00
H1177  H     0.84222   0.56265   0.97587   0.00000  Uiso   1.00
H1178  H     0.84055   0.42658   0.52831   0.00000  Uiso   1.00
N1179  N     0.83333   0.61907   0.75000   0.00000  Uiso   1.00
N1180  N     0.83333   0.38093   0.75000   0.00000  Uiso   1.00
O1181  O     0.77226   0.53821   0.74999   0.00000  Uiso   1.00
O1182  O     0.89441   0.46179   0.75000   0.00000  Uiso   1.00
O1183  O     0.89441   0.53821   0.75000   0.00000  Uiso   1.00
O1184  O     0.77226   0.46179   0.74999   0.00000  Uiso   1.00
O1185  O     0.83333   0.53822   0.68453   0.00000  Uiso   1.00
O1186  O     0.83334   0.46178   0.81547   0.00000  Uiso   1.00
O1187  O     0.83334   0.53822   0.81547   0.00000  Uiso   1.00
O1188  O     0.83333   0.46178   0.68453   0.00000  Uiso   1.00
Zn1189 Zn    0.83333   0.55104   0.75000   0.00000  Uiso   1.00
Zn1190 Zn    0.83333   0.44896   0.75000   0.00000  Uiso   1.00
Br1191 Br    0.88694   0.38716   0.82970   0.00000  Uiso   1.00
Br1192 Br    0.76548   0.61030   0.68386   0.00000  Uiso   1.00
Br1193 Br    0.77581   0.38713   0.67342   0.00000  Uiso   1.00
Br1194 Br    0.90553   0.61399   0.81081   0.00000  Uiso   1.00
Br1195 Br    0.83426   0.59837   0.60970   0.00000  Uiso   1.00
Br1196 Br    0.78114   0.41057   0.86895   0.00000  Uiso   1.00
Br1197 Br    0.84395   0.59723   0.89085   0.00000  Uiso   1.00
Br1198 Br    0.86980   0.40766   0.61895   0.00000  Uiso   1.00
O1199  O     0.70392   0.41868   0.75161   0.00000  Uiso   1.00
C1200  C     0.68208   0.39474   0.71619   0.00000  Uiso   1.00
H1201  H     0.69299   0.40587   0.68399   0.00000  Uiso   1.00
H1202  H     0.98138   0.39922   0.71382   0.00000  Uiso   1.00
C1203  C     0.68943   0.34501   0.72233   0.00000  Uiso   1.00
H1204  H     0.67029   0.66499   0.74827   0.00000  Uiso   1.00
H1205  H     0.68144   0.66049   0.69042   0.00000  Uiso   1.00
H1206  H     0.72217   0.33935   0.73288   0.00000  Uiso   1.00
O1207  O     0.95935   0.58193   0.73671   0.00000  Uiso   1.00
C1208  C     0.95282   0.58551   0.68996   0.00000  Uiso   1.00
H1209  H     0.93669   0.55519   0.67490   0.00000  Uiso   1.00
H1210  H     0.98269   0.59005   0.67491   0.00000  Uiso   1.00
C1211  C     0.92586   0.62596   0.67858   0.00000  Uiso   1.00
H1212  H     0.93913   0.65668   0.69525   0.00000  Uiso   1.00
H1213  H     0.92324   0.63136   0.64203   0.00000  Uiso   1.00
H1214  H     0.89468   0.62004   0.68989   0.00000  Uiso   1.00
O1215  O     0.96283   0.42870   0.79047   0.00000  Uiso   1.00
C1216  C     0.98336   0.42587   0.83394   0.00000  Uiso   1.00
H1217  H     0.96123   0.43448   0.85870   0.00000  Uiso   1.00
H1218  H     0.67684   0.44936   0.84079   0.00000  Uiso   1.00
C1219  C     0.99844   0.37822   0.84270   0.00000  Uiso   1.00
H1220  H     0.69041   0.37066   0.82151   0.00000  Uiso   1.00
H1221  H     0.67696   0.37489   0.87812   0.00000  Uiso   1.00
H1222  H     0.97307   0.35349   0.83538   0.00000  Uiso   1.00
O1223  O     0.70938   0.58234   0.76115   0.00000  Uiso   1.00
C1224  C     0.71024   0.59187   0.80735   0.00000  Uiso   1.00
H1225  H     0.71328   0.56107   0.82847   0.00000  Uiso   1.00
H1226  H     0.68152   0.60939   0.81453   0.00000  Uiso   1.00
C1227  C     0.74708   0.62206   0.82135   0.00000  Uiso   1.00
H1228  H     0.74524   0.65440   0.80334   0.00000  Uiso   1.00
H1229  H     0.74790   0.62911   0.85762   0.00000  Uiso   1.00
H1230  H     0.77598   0.60514   0.81425   0.00000  Uiso   1.00
C1231  C     0.08660   0.83326   0.75023   0.00000  Uiso   1.00
C1232  C     0.24671   0.83381   0.75207   0.00000  Uiso   1.00
C1233  C     0.16863   0.83324   0.66387   0.00000  Uiso   1.00
C1234  C     0.16369   0.83333   0.83584   0.00000  Uiso   1.00
C1235  C     0.19150   0.69069   0.78032   0.00000  Uiso   1.00
C1236  C     0.13977   0.97563   0.72148   0.00000  Uiso   1.00
C1237  C     0.14157   0.69009   0.71966   0.00000  Uiso   1.00
C1238  C     0.19405   0.97659   0.77775   0.00000  Uiso   1.00
C1239  C     0.01980   0.79379   0.75523   0.00000  Uiso   1.00
C1240  C     0.31255   0.87536   0.74665   0.00000  Uiso   1.00
C1241  C     0.31317   0.79690   0.76759   0.00000  Uiso   1.00
C1242  C     0.02180   0.87542   0.75304   0.00000  Uiso   1.00
C1243  C     0.14295   0.86672   0.54620   0.00000  Uiso   1.00
C1244  C     0.13584   0.79248   0.94824   0.00000  Uiso   1.00
C1245  C     0.16442   0.86759   0.95562   0.00000  Uiso   1.00
C1246  C     0.16603   0.78980   0.54625   0.00000  Uiso   1.00
C1247  C     0.15619   0.87101   0.59052   0.00000  Uiso   1.00
C1248  C     0.13876   0.79413   0.90244   0.00000  Uiso   1.00
C1249  C     0.16554   0.87098   0.91032   0.00000  Uiso   1.00
C1250  C     0.17498   0.79195   0.59211   0.00000  Uiso   1.00
C1251  C     0.16805   0.83245   0.61522   0.00000  Uiso   1.00
C1252  C     0.15601   0.83291   0.88311   0.00000  Uiso   1.00
C1253  C     0.14987   0.82711   0.52326   0.00000  Uiso   1.00
C1254  C     0.14949   0.82883   0.97492   0.00000  Uiso   1.00
C1255  C     0.29106   0.83540   0.75534   0.00000  Uiso   1.00
C1256  C     0.04239   0.83392   0.75212   0.00000  Uiso   1.00
H1257  H     0.13155   0.89629   0.52853   0.00000  Uiso   1.00
H1258  H     0.12280   0.76296   0.96298   0.00000  Uiso   1.00
H1259  H     0.17555   0.89598   0.97587   0.00000  Uiso   1.00
H1260  H     0.17389   0.75992   0.52831   0.00000  Uiso   1.00
N1261  N     0.16667   0.95240   0.75000   0.00000  Uiso   1.00
N1262  N     0.16667   0.71427   0.75000   0.00000  Uiso   1.00
O1263  O     0.10559   0.87154   0.74999   0.00000  Uiso   1.00
O1264  O     0.22774   0.79513   0.75000   0.00000  Uiso   1.00
O1265  O     0.22774   0.87154   0.75000   0.00000  Uiso   1.00
O1266  O     0.10559   0.79513   0.74999   0.00000  Uiso   1.00
O1267  O     0.16666   0.87155   0.68453   0.00000  Uiso   1.00
O1268  O     0.16667   0.79511   0.81547   0.00000  Uiso   1.00
O1269  O     0.16667   0.87155   0.81547   0.00000  Uiso   1.00
O1270  O     0.16666   0.79511   0.68453   0.00000  Uiso   1.00
Zn1271 Zn    0.16667   0.88437   0.75000   0.00000  Uiso   1.00
Zn1272 Zn    0.16667   0.78229   0.75000   0.00000  Uiso   1.00
Br1273 Br    0.22027   0.72050   0.82970   0.00000  Uiso   1.00
Br1274 Br    0.09881   0.94363   0.68386   0.00000  Uiso   1.00
Br1275 Br    0.10914   0.72046   0.67342   0.00000  Uiso   1.00
Br1276 Br    0.23886   0.94732   0.81081   0.00000  Uiso   1.00
Br1277 Br    0.16759   0.93170   0.60970   0.00000  Uiso   1.00
Br1278 Br    0.11448   0.74391   0.86895   0.00000  Uiso   1.00
Br1279 Br    0.17728   0.93057   0.89085   0.00000  Uiso   1.00
Br1280 Br    0.20314   0.74100   0.61895   0.00000  Uiso   1.00
O1281  O     0.03725   0.75201   0.75161   0.00000  Uiso   1.00
C1282  C     0.01541   0.72807   0.71619   0.00000  Uiso   1.00
H1283  H     0.02632   0.73920   0.68399   0.00000  Uiso   1.00
H1284  H     0.31471   0.73256   0.71382   0.00000  Uiso   1.00
C1285  C     0.02276   0.67834   0.72233   0.00000  Uiso   1.00
H1286  H     0.00362   0.99832   0.74827   0.00000  Uiso   1.00
H1287  H     0.01477   0.99383   0.69042   0.00000  Uiso   1.00
H1288  H     0.05550   0.67268   0.73288   0.00000  Uiso   1.00
O1289  O     0.29268   0.91526   0.73671   0.00000  Uiso   1.00
C1290  C     0.28615   0.91885   0.68996   0.00000  Uiso   1.00
H1291  H     0.27002   0.88853   0.67490   0.00000  Uiso   1.00
H1292  H     0.31603   0.92338   0.67491   0.00000  Uiso   1.00
C1293  C     0.25919   0.95929   0.67858   0.00000  Uiso   1.00
H1294  H     0.27246   0.99001   0.69525   0.00000  Uiso   1.00
H1295  H     0.25657   0.96469   0.64203   0.00000  Uiso   1.00
H1296  H     0.22801   0.95337   0.68989   0.00000  Uiso   1.00
O1297  O     0.29616   0.76204   0.79047   0.00000  Uiso   1.00
C1298  C     0.31669   0.75920   0.83394   0.00000  Uiso   1.00
H1299  H     0.29457   0.76781   0.85870   0.00000  Uiso   1.00
H1300  H     0.01018   0.78270   0.84079   0.00000  Uiso   1.00
C1301  C     0.33177   0.71155   0.84270   0.00000  Uiso   1.00
H1302  H     0.02374   0.70400   0.82151   0.00000  Uiso   1.00
H1303  H     0.01030   0.70822   0.87812   0.00000  Uiso   1.00
H1304  H     0.30641   0.68682   0.83538   0.00000  Uiso   1.00
O1305  O     0.04271   0.91568   0.76115   0.00000  Uiso   1.00
C1306  C     0.04358   0.92520   0.80735   0.00000  Uiso   1.00
H1307  H     0.04661   0.89440   0.82847   0.00000  Uiso   1.00
H1308  H     0.01485   0.94272   0.81453   0.00000  Uiso   1.00
C1309  C     0.08042   0.95539   0.82135   0.00000  Uiso   1.00
H1310  H     0.07857   0.98774   0.80334   0.00000  Uiso   1.00
H1311  H     0.08123   0.96244   0.85762   0.00000  Uiso   1.00
H1312  H     0.10931   0.93847   0.81425   0.00000  Uiso   1.00
C1313  C     0.41993   0.83326   0.75023   0.00000  Uiso   1.00
C1314  C     0.58005   0.83381   0.75207   0.00000  Uiso   1.00
C1315  C     0.50196   0.83324   0.66387   0.00000  Uiso   1.00
C1316  C     0.49703   0.83333   0.83584   0.00000  Uiso   1.00
C1317  C     0.52484   0.69069   0.78032   0.00000  Uiso   1.00
C1318  C     0.47310   0.97563   0.72148   0.00000  Uiso   1.00
C1319  C     0.47491   0.69009   0.71966   0.00000  Uiso   1.00
C1320  C     0.52738   0.97659   0.77775   0.00000  Uiso   1.00
C1321  C     0.35313   0.79379   0.75523   0.00000  Uiso   1.00
C1322  C     0.64588   0.87536   0.74665   0.00000  Uiso   1.00
C1323  C     0.64650   0.79690   0.76759   0.00000  Uiso   1.00
C1324  C     0.35513   0.87542   0.75304   0.00000  Uiso   1.00
C1325  C     0.47628   0.86672   0.54620   0.00000  Uiso   1.00
C1326  C     0.46918   0.79248   0.94824   0.00000  Uiso   1.00
C1327  C     0.49776   0.86759   0.95562   0.00000  Uiso   1.00
C1328  C     0.49936   0.78980   0.54625   0.00000  Uiso   1.00
C1329  C     0.48952   0.87101   0.59052   0.00000  Uiso   1.00
C1330  C     0.47210   0.79413   0.90244   0.00000  Uiso   1.00
C1331  C     0.49887   0.87098   0.91032   0.00000  Uiso   1.00
C1332  C     0.50831   0.79195   0.59211   0.00000  Uiso   1.00
C1333  C     0.50138   0.83245   0.61522   0.00000  Uiso   1.00
C1334  C     0.48934   0.83291   0.88311   0.00000  Uiso   1.00
C1335  C     0.48320   0.82711   0.52326   0.00000  Uiso   1.00
C1336  C     0.48282   0.82883   0.97492   0.00000  Uiso   1.00
C1337  C     0.62439   0.83540   0.75534   0.00000  Uiso   1.00
C1338  C     0.37572   0.83392   0.75212   0.00000  Uiso   1.00
H1339  H     0.46488   0.89629   0.52853   0.00000  Uiso   1.00
H1340  H     0.45614   0.76296   0.96298   0.00000  Uiso   1.00
H1341  H     0.50889   0.89598   0.97587   0.00000  Uiso   1.00
H1342  H     0.50722   0.75992   0.52831   0.00000  Uiso   1.00
N1343  N     0.50000   0.95240   0.75000   0.00000  Uiso   1.00
N1344  N     0.50000   0.71427   0.75000   0.00000  Uiso   1.00
O1345  O     0.43892   0.87154   0.74999   0.00000  Uiso   1.00
O1346  O     0.56108   0.79513   0.75000   0.00000  Uiso   1.00
O1347  O     0.56108   0.87154   0.75000   0.00000  Uiso   1.00
O1348  O     0.43892   0.79513   0.74999   0.00000  Uiso   1.00
O1349  O     0.50000   0.87155   0.68453   0.00000  Uiso   1.00
O1350  O     0.50000   0.79511   0.81547   0.00000  Uiso   1.00
O1351  O     0.50000   0.87155   0.81547   0.00000  Uiso   1.00
O1352  O     0.50000   0.79511   0.68453   0.00000  Uiso   1.00
Zn1353 Zn    0.50000   0.88437   0.75000   0.00000  Uiso   1.00
Zn1354 Zn    0.50000   0.78229   0.75000   0.00000  Uiso   1.00
Br1355 Br    0.55360   0.72050   0.82970   0.00000  Uiso   1.00
Br1356 Br    0.43214   0.94363   0.68386   0.00000  Uiso   1.00
Br1357 Br    0.44248   0.72046   0.67342   0.00000  Uiso   1.00
Br1358 Br    0.57219   0.94732   0.81081   0.00000  Uiso   1.00
Br1359 Br    0.50093   0.93170   0.60970   0.00000  Uiso   1.00
Br1360 Br    0.44781   0.74391   0.86895   0.00000  Uiso   1.00
Br1361 Br    0.51062   0.93057   0.89085   0.00000  Uiso   1.00
Br1362 Br    0.53647   0.74100   0.61895   0.00000  Uiso   1.00
O1363  O     0.37059   0.75201   0.75161   0.00000  Uiso   1.00
C1364  C     0.34874   0.72807   0.71619   0.00000  Uiso   1.00
H1365  H     0.35966   0.73920   0.68399   0.00000  Uiso   1.00
H1366  H     0.64805   0.73256   0.71382   0.00000  Uiso   1.00
C1367  C     0.35609   0.67834   0.72233   0.00000  Uiso   1.00
H1368  H     0.33695   0.99832   0.74827   0.00000  Uiso   1.00
H1369  H     0.34811   0.99383   0.69042   0.00000  Uiso   1.00
H1370  H     0.38883   0.67268   0.73288   0.00000  Uiso   1.00
O1371  O     0.62602   0.91526   0.73671   0.00000  Uiso   1.00
C1372  C     0.61948   0.91885   0.68996   0.00000  Uiso   1.00
H1373  H     0.60335   0.88853   0.67490   0.00000  Uiso   1.00
H1374  H     0.64936   0.92338   0.67491   0.00000  Uiso   1.00
C1375  C     0.59253   0.95929   0.67858   0.00000  Uiso   1.00
H1376  H     0.60579   0.99001   0.69525   0.00000  Uiso   1.00
H1377  H     0.58991   0.96469   0.64203   0.00000  Uiso   1.00
H1378  H     0.56134   0.95337   0.68989   0.00000  Uiso   1.00
O1379  O     0.62949   0.76204   0.79047   0.00000  Uiso   1.00
C1380  C     0.65003   0.75920   0.83394   0.00000  Uiso   1.00
H1381  H     0.62790   0.76781   0.85870   0.00000  Uiso   1.00
H1382  H     0.34351   0.78270   0.84079   0.00000  Uiso   1.00
C1383  C     0.66510   0.71155   0.84270   0.00000  Uiso   1.00
H1384  H     0.35707   0.70400   0.82151   0.00000  Uiso   1.00
H1385  H     0.34363   0.70822   0.87812   0.00000  Uiso   1.00
H1386  H     0.63974   0.68682   0.83538   0.00000  Uiso   1.00
O1387  O     0.37604   0.91568   0.76115   0.00000  Uiso   1.00
C1388  C     0.37691   0.92520   0.80735   0.00000  Uiso   1.00
H1389  H     0.37994   0.89440   0.82847   0.00000  Uiso   1.00
H1390  H     0.34819   0.94272   0.81453   0.00000  Uiso   1.00
C1391  C     0.41375   0.95539   0.82135   0.00000  Uiso   1.00
H1392  H     0.41191   0.98774   0.80334   0.00000  Uiso   1.00
H1393  H     0.41457   0.96244   0.85762   0.00000  Uiso   1.00
H1394  H     0.44265   0.93847   0.81425   0.00000  Uiso   1.00
C1395  C     0.75326   0.83326   0.75023   0.00000  Uiso   1.00
C1396  C     0.91338   0.83381   0.75207   0.00000  Uiso   1.00
C1397  C     0.83530   0.83324   0.66387   0.00000  Uiso   1.00
C1398  C     0.83036   0.83333   0.83584   0.00000  Uiso   1.00
C1399  C     0.85817   0.69069   0.78032   0.00000  Uiso   1.00
C1400  C     0.80643   0.97563   0.72148   0.00000  Uiso   1.00
C1401  C     0.80824   0.69009   0.71966   0.00000  Uiso   1.00
C1402  C     0.86072   0.97659   0.77775   0.00000  Uiso   1.00
C1403  C     0.68646   0.79379   0.75523   0.00000  Uiso   1.00
C1404  C     0.97922   0.87536   0.74665   0.00000  Uiso   1.00
C1405  C     0.97984   0.79690   0.76759   0.00000  Uiso   1.00
C1406  C     0.68846   0.87542   0.75304   0.00000  Uiso   1.00
C1407  C     0.80961   0.86672   0.54620   0.00000  Uiso   1.00
C1408  C     0.80251   0.79248   0.94824   0.00000  Uiso   1.00
C1409  C     0.83109   0.86759   0.95562   0.00000  Uiso   1.00
C1410  C     0.83270   0.78980   0.54625   0.00000  Uiso   1.00
C1411  C     0.82285   0.87101   0.59052   0.00000  Uiso   1.00
C1412  C     0.80543   0.79413   0.90244   0.00000  Uiso   1.00
C1413  C     0.83220   0.87098   0.91032   0.00000  Uiso   1.00
C1414  C     0.84165   0.79195   0.59211   0.00000  Uiso   1.00
C1415  C     0.83471   0.83245   0.61522   0.00000  Uiso   1.00
C1416  C     0.82268   0.83291   0.88311   0.00000  Uiso   1.00
C1417  C     0.81653   0.82711   0.52326   0.00000  Uiso   1.00
C1418  C     0.81615   0.82883   0.97492   0.00000  Uiso   1.00
C1419  C     0.95772   0.83540   0.75534   0.00000  Uiso   1.00
C1420  C     0.70906   0.83392   0.75212   0.00000  Uiso   1.00
H1421  H     0.79821   0.89629   0.52853   0.00000  Uiso   1.00
H1422  H     0.78947   0.76296   0.96298   0.00000  Uiso   1.00
H1423  H     0.84222   0.89598   0.97587   0.00000  Uiso   1.00
H1424  H     0.84055   0.75992   0.52831   0.00000  Uiso   1.00
N1425  N     0.83333   0.95240   0.75000   0.00000  Uiso   1.00
N1426  N     0.83333   0.71427   0.75000   0.00000  Uiso   1.00
O1427  O     0.77226   0.87154   0.74999   0.00000  Uiso   1.00
O1428  O     0.89441   0.79513   0.75000   0.00000  Uiso   1.00
O1429  O     0.89441   0.87154   0.75000   0.00000  Uiso   1.00
O1430  O     0.77226   0.79513   0.74999   0.00000  Uiso   1.00
O1431  O     0.83333   0.87155   0.68453   0.00000  Uiso   1.00
O1432  O     0.83334   0.79511   0.81547   0.00000  Uiso   1.00
O1433  O     0.83334   0.87155   0.81547   0.00000  Uiso   1.00
O1434  O     0.83333   0.79511   0.68453   0.00000  Uiso   1.00
Zn1435 Zn    0.83333   0.88437   0.75000   0.00000  Uiso   1.00
Zn1436 Zn    0.83333   0.78229   0.75000   0.00000  Uiso   1.00
Br1437 Br    0.88694   0.72050   0.82970   0.00000  Uiso   1.00
Br1438 Br    0.76548   0.94363   0.68386   0.00000  Uiso   1.00
Br1439 Br    0.77581   0.72046   0.67342   0.00000  Uiso   1.00
Br1440 Br    0.90553   0.94732   0.81081   0.00000  Uiso   1.00
Br1441 Br    0.83426   0.93170   0.60970   0.00000  Uiso   1.00
Br1442 Br    0.78114   0.74391   0.86895   0.00000  Uiso   1.00
Br1443 Br    0.84395   0.93057   0.89085   0.00000  Uiso   1.00
Br1444 Br    0.86980   0.74100   0.61895   0.00000  Uiso   1.00
O1445  O     0.70392   0.75201   0.75161   0.00000  Uiso   1.00
C1446  C     0.68208   0.72807   0.71619   0.00000  Uiso   1.00
H1447  H     0.69299   0.73920   0.68399   0.00000  Uiso   1.00
H1448  H     0.98138   0.73256   0.71382   0.00000  Uiso   1.00
C1449  C     0.68943   0.67834   0.72233   0.00000  Uiso   1.00
H1450  H     0.67029   0.99832   0.74827   0.00000  Uiso   1.00
H1451  H     0.68144   0.99383   0.69042   0.00000  Uiso   1.00
H1452  H     0.72217   0.67268   0.73288   0.00000  Uiso   1.00
O1453  O     0.95935   0.91526   0.73671   0.00000  Uiso   1.00
C1454  C     0.95282   0.91885   0.68996   0.00000  Uiso   1.00
H1455  H     0.93669   0.88853   0.67490   0.00000  Uiso   1.00
H1456  H     0.98269   0.92338   0.67491   0.00000  Uiso   1.00
C1457  C     0.92586   0.95929   0.67858   0.00000  Uiso   1.00
H1458  H     0.93913   0.99001   0.69525   0.00000  Uiso   1.00
H1459  H     0.92324   0.96469   0.64203   0.00000  Uiso   1.00
H1460  H     0.89468   0.95337   0.68989   0.00000  Uiso   1.00
O1461  O     0.96283   0.76204   0.79047   0.00000  Uiso   1.00
C1462  C     0.98336   0.75920   0.83394   0.00000  Uiso   1.00
H1463  H     0.96123   0.76781   0.85870   0.00000  Uiso   1.00
H1464  H     0.67684   0.78270   0.84079   0.00000  Uiso   1.00
C1465  C     0.99844   0.71155   0.84270   0.00000  Uiso   1.00
H1466  H     0.69041   0.70400   0.82151   0.00000  Uiso   1.00
H1467  H     0.67696   0.70822   0.87812   0.00000  Uiso   1.00
H1468  H     0.97307   0.68682   0.83538   0.00000  Uiso   1.00
O1469  O     0.70938   0.91568   0.76115   0.00000  Uiso   1.00
C1470  C     0.71024   0.92520   0.80735   0.00000  Uiso   1.00
H1471  H     0.71328   0.89440   0.82847   0.00000  Uiso   1.00
H1472  H     0.68152   0.94272   0.81453   0.00000  Uiso   1.00
C1473  C     0.74708   0.95539   0.82135   0.00000  Uiso   1.00
H1474  H     0.74524   0.98774   0.80334   0.00000  Uiso   1.00
H1475  H     0.74790   0.96244   0.85762   0.00000  Uiso   1.00
H1476  H     0.77598   0.93847   0.81425   0.00000  Uiso   1.00
loop_
_geom_bond_atom_site_label_1
_geom_bond_atom_site_label_2
_geom_bond_distance
_geom_bond_site_symmetry_2
_ccdc_geom_bond_type
C1     O33     1.290   .     A
C1     C26     1.445   .     S
C1     O36     1.299   .     A
C2     O35     1.287   .     A
C2     O34     1.299   .     A
C2     C25     1.440   .     S
C3     O40     1.299   .     A
C3     C21     1.464   .     S
C3     O37     1.302   .     A
C4     C22     1.466   .     S
C4     O39     1.301   .     A
C4     O38     1.299   .     A
C5     N32     1.371   .     A
C5     Br43    1.905   .     S
C5     C500    1.417   1_545 S
C6     N31     1.371   .     A
C6     Br44    1.921   .     S
C6     C253    1.424   .     S
C7     Br45    1.915   .     S
C7     N32     1.373   .     A
C7     C498    1.424   1_545 S
C8     N31     1.369   .     A
C8     Br46    1.918   .     S
C8     C251    1.417   .     S
C9     O51     1.381   .     S
C9     C26     1.403   .     A
C9     C175    1.386   1_455 S
C10    C25     1.409   .     A
C10    O59     1.381   .     S
C10    C94     1.384   .     S
C11    C25     1.395   .     A
C11    O67     1.382   .     S
C11    C91     1.386   .     S
C12    C26     1.414   .     A
C12    O75     1.383   .     S
C12    C174    1.384   1_455 S
C13    C23     1.395   .     A
C13    C17     1.375   .     A
C13    H27     1.084   .     S
C14    C18     1.392   .     A
C14    C24     1.393   .     A
C14    H28     1.083   .     S
C15    C19     1.372   .     A
C15    H29     1.083   .     S
C15    C24     1.394   .     A
C16    H30     1.083   .     S
C16    C20     1.390   .     A
C16    C23     1.396   .     A
C17    C21     1.410   .     A
C17    Br47    1.918   .     S
C18    C22     1.424   .     A
C18    Br48    1.927   .     S
C19    C22     1.414   .     A
C19    Br49    1.914   .     S
C20    Br50    1.927   .     S
C20    C21     1.420   .     A
C23    C762    1.456   1_554 S
C24    C761    1.456   .     S
N31    Zn41    2.025   .     S
N32    Zn42    2.025   .     S
O33    Zn41    2.021   .     S
O34    Zn42    2.021   .     S
O35    Zn41    2.029   .     S
O36    Zn42    2.029   .     S
O37    Zn41    2.008   .     S
O38    Zn42    2.008   .     S
O39    Zn41    2.010   .     S
O40    Zn42    2.010   .     S
O51    C52     1.419   .     S
C52    C55     1.512   .     S
C52    H53     1.110   .     S
C52    H218    1.114   1_455 S
H54    C134    1.114   .     S
C55    H58     1.103   .     S
C55    H548    1.110   1_545 S
C55    H549    1.108   1_545 S
H56    C301    1.110   .     S
H57    C301    1.108   .     S
O59    C60     1.412   .     S
C60    C63     1.522   .     S
C60    H62     1.113   .     S
C60    H61     1.116   .     S
C63    H65     1.110   .     S
C63    H66     1.109   .     S
C63    H64     1.108   .     S
O67    C68     1.425   .     S
C68    H69     1.110   .     S
C68    C71     1.523   .     S
C68    H152    1.118   .     S
H70    C232    1.118   1_455 S
C71    H74     1.108   .     S
C71    H154    1.107   .     S
C71    H155    1.110   .     S
H72    C235    1.107   1_455 S
H73    C235    1.110   1_455 S
O75    C76     1.418   .     S
C76    C79     1.522   .     S
C76    H78     1.112   .     S
C76    H77     1.118   .     S
C79    H81     1.110   .     S
C79    H82     1.108   .     S
C79    H80     1.106   .     S
C83    O115    1.290   .     A
C83    C108    1.445   .     S
C83    O118    1.299   .     A
C84    O117    1.287   .     A
C84    O116    1.299   .     A
C84    C107    1.440   .     S
C85    O122    1.299   .     A
C85    C103    1.464   .     S
C85    O119    1.302   .     A
C86    C104    1.466   .     S
C86    O121    1.301   .     A
C86    O120    1.299   .     A
C87    N114    1.371   .     A
C87    Br125   1.905   .     S
C87    C582    1.417   1_545 S
C88    N113    1.371   .     A
C88    Br126   1.921   .     S
C88    C335    1.424   .     S
C89    Br127   1.915   .     S
C89    N114    1.373   .     A
C89    C580    1.424   1_545 S
C90    N113    1.369   .     A
C90    Br128   1.918   .     S
C90    C333    1.417   .     S
C91    O133    1.381   .     S
C91    C108    1.403   .     A
C92    C107    1.409   .     A
C92    O141    1.381   .     S
C92    C176    1.384   .     S
C93    C107    1.395   .     A
C93    O149    1.382   .     S
C93    C173    1.386   .     S
C94    C108    1.414   .     A
C94    O157    1.383   .     S
C95    C105    1.395   .     A
C95    C99     1.375   .     A
C95    H109    1.084   .     S
C96    C100    1.392   .     A
C96    C106    1.393   .     A
C96    H110    1.083   .     S
C97    C101    1.372   .     A
C97    H111    1.083   .     S
C97    C106    1.394   .     A
C98    H112    1.083   .     S
C98    C102    1.390   .     A
C98    C105    1.396   .     A
C99    C103    1.410   .     A
C99    Br129   1.918   .     S
C100   C104    1.424   .     A
C100   Br130   1.927   .     S
C101   C104    1.414   .     A
C101   Br131   1.914   .     S
C102   Br132   1.927   .     S
C102   C103    1.420   .     A
C105   C844    1.456   1_554 S
C106   C843    1.456   .     S
N113   Zn123   2.025   .     S
N114   Zn124   2.025   .     S
O115   Zn123   2.021   .     S
O116   Zn124   2.021   .     S
O117   Zn123   2.029   .     S
O118   Zn124   2.029   .     S
O119   Zn123   2.008   .     S
O120   Zn124   2.008   .     S
O121   Zn123   2.010   .     S
O122   Zn124   2.010   .     S
O133   C134    1.419   .     S
C134   C137    1.512   .     S
C134   H135    1.110   .     S
H136   C216    1.114   .     S
C137   H140    1.103   .     S
C137   H630    1.110   1_545 S
C137   H631    1.108   1_545 S
H138   C383    1.110   .     S
H139   C383    1.108   .     S
O141   C142    1.412   .     S
C142   C145    1.522   .     S
C142   H144    1.113   .     S
C142   H143    1.116   .     S
C145   H147    1.110   .     S
C145   H148    1.109   .     S
C145   H146    1.108   .     S
O149   C150    1.425   .     S
C150   H151    1.110   .     S
C150   C153    1.523   .     S
C150   H234    1.118   .     S
C153   H156    1.108   .     S
C153   H236    1.107   .     S
C153   H237    1.110   .     S
O157   C158    1.418   .     S
C158   C161    1.522   .     S
C158   H160    1.112   .     S
C158   H159    1.118   .     S
C161   H163    1.110   .     S
C161   H164    1.108   .     S
C161   H162    1.106   .     S
C165   O197    1.290   .     A
C165   C190    1.445   .     S
C165   O200    1.299   .     A
C166   O199    1.287   .     A
C166   O198    1.299   .     A
C166   C189    1.440   .     S
C167   O204    1.299   .     A
C167   C185    1.464   .     S
C167   O201    1.302   .     A
C168   C186    1.466   .     S
C168   O203    1.301   .     A
C168   O202    1.299   .     A
C169   N196    1.371   .     A
C169   Br207   1.905   .     S
C169   C664    1.417   1_545 S
C170   N195    1.371   .     A
C170   Br208   1.921   .     S
C170   C417    1.424   .     S
C171   Br209   1.915   .     S
C171   N196    1.373   .     A
C171   C662    1.424   1_545 S
C172   N195    1.369   .     A
C172   Br210   1.918   .     S
C172   C415    1.417   .     S
C173   O215    1.381   .     S
C173   C190    1.403   .     A
C174   C189    1.409   .     A
C174   O223    1.381   .     S
C174   C12     1.384   1_655 S
C175   C189    1.395   .     A
C175   O231    1.382   .     S
C175   C9      1.386   1_655 S
C176   C190    1.414   .     A
C176   O239    1.383   .     S
C177   C187    1.395   .     A
C177   C181    1.375   .     A
C177   H191    1.084   .     S
C178   C182    1.392   .     A
C178   C188    1.393   .     A
C178   H192    1.083   .     S
C179   C183    1.372   .     A
C179   H193    1.083   .     S
C179   C188    1.394   .     A
C180   H194    1.083   .     S
C180   C184    1.390   .     A
C180   C187    1.396   .     A
C181   C185    1.410   .     A
C181   Br211   1.918   .     S
C182   C186    1.424   .     A
C182   Br212   1.927   .     S
C183   C186    1.414   .     A
C183   Br213   1.914   .     S
C184   Br214   1.927   .     S
C184   C185    1.420   .     A
C187   C926    1.456   1_554 S
C188   C925    1.456   .     S
N195   Zn205   2.025   .     S
N196   Zn206   2.025   .     S
O197   Zn205   2.021   .     S
O198   Zn206   2.021   .     S
O199   Zn205   2.029   .     S
O200   Zn206   2.029   .     S
O201   Zn205   2.008   .     S
O202   Zn206   2.008   .     S
O203   Zn205   2.010   .     S
O204   Zn206   2.010   .     S
O215   C216    1.419   .     S
C216   C219    1.512   .     S
C216   H217    1.110   .     S
H218   C52     1.114   1_655 S
C219   H222    1.103   .     S
C219   H712    1.110   1_545 S
C219   H713    1.108   1_545 S
H220   C465    1.110   .     S
H221   C465    1.108   .     S
O223   C224    1.412   .     S
C224   C227    1.522   .     S
C224   H226    1.113   .     S
C224   H225    1.116   .     S
C227   H229    1.110   .     S
C227   H230    1.109   .     S
C227   H228    1.108   .     S
O231   C232    1.425   .     S
C232   H233    1.110   .     S
C232   C235    1.523   .     S
C232   H70     1.118   1_655 S
C235   H238    1.108   .     S
C235   H72     1.107   1_655 S
C235   H73     1.110   1_655 S
O239   C240    1.418   .     S
C240   C243    1.522   .     S
C240   H242    1.112   .     S
C240   H241    1.118   .     S
C243   H245    1.110   .     S
C243   H246    1.108   .     S
C243   H244    1.106   .     S
C247   O279    1.290   .     A
C247   C272    1.445   .     S
C247   O282    1.299   .     A
C248   O281    1.287   .     A
C248   O280    1.299   .     A
C248   C271    1.440   .     S
C249   O286    1.299   .     A
C249   C267    1.464   .     S
C249   O283    1.302   .     A
C250   C268    1.466   .     S
C250   O285    1.301   .     A
C250   O284    1.299   .     A
C251   N278    1.371   .     A
C251   Br289   1.905   .     S
C252   N277    1.371   .     A
C252   Br290   1.921   .     S
C252   C499    1.424   .     S
C253   Br291   1.915   .     S
C253   N278    1.373   .     A
C254   N277    1.369   .     A
C254   Br292   1.918   .     S
C254   C497    1.417   .     S
C255   O297    1.381   .     S
C255   C272    1.403   .     A
C255   C421    1.386   1_455 S
C256   C271    1.409   .     A
C256   O305    1.381   .     S
C256   C340    1.384   .     S
C257   C271    1.395   .     A
C257   O313    1.382   .     S
C257   C337    1.386   .     S
C258   C272    1.414   .     A
C258   O321    1.383   .     S
C258   C420    1.384   1_455 S
C259   C269    1.395   .     A
C259   C263    1.375   .     A
C259   H273    1.084   .     S
C260   C264    1.392   .     A
C260   C270    1.393   .     A
C260   H274    1.083   .     S
C261   C265    1.372   .     A
C261   H275    1.083   .     S
C261   C270    1.394   .     A
C262   H276    1.083   .     S
C262   C266    1.390   .     A
C262   C269    1.396   .     A
C263   C267    1.410   .     A
C263   Br293   1.918   .     S
C264   C268    1.424   .     A
C264   Br294   1.927   .     S
C265   C268    1.414   .     A
C265   Br295   1.914   .     S
C266   Br296   1.927   .     S
C266   C267    1.420   .     A
C269   C1008   1.456   1_554 S
C270   C1007   1.456   .     S
N277   Zn287   2.025   .     S
N278   Zn288   2.025   .     S
O279   Zn287   2.021   .     S
O280   Zn288   2.021   .     S
O281   Zn287   2.029   .     S
O282   Zn288   2.029   .     S
O283   Zn287   2.008   .     S
O284   Zn288   2.008   .     S
O285   Zn287   2.010   .     S
O286   Zn288   2.010   .     S
O297   C298    1.419   .     S
C298   C301    1.512   .     S
C298   H299    1.110   .     S
C298   H464    1.114   1_455 S
H300   C380    1.114   .     S
C301   H304    1.103   .     S
H302   C547    1.110   .     S
H303   C547    1.108   .     S
O305   C306    1.412   .     S
C306   C309    1.522   .     S
C306   H308    1.113   .     S
C306   H307    1.116   .     S
C309   H311    1.110   .     S
C309   H312    1.109   .     S
C309   H310    1.108   .     S
O313   C314    1.425   .     S
C314   H315    1.110   .     S
C314   C317    1.523   .     S
C314   H398    1.118   .     S
H316   C478    1.118   1_455 S
C317   H320    1.108   .     S
C317   H400    1.107   .     S
C317   H401    1.110   .     S
H318   C481    1.107   1_455 S
H319   C481    1.110   1_455 S
O321   C322    1.418   .     S
C322   C325    1.522   .     S
C322   H324    1.112   .     S
C322   H323    1.118   .     S
C325   H327    1.110   .     S
C325   H328    1.108   .     S
C325   H326    1.106   .     S
C329   O361    1.290   .     A
C329   C354    1.445   .     S
C329   O364    1.299   .     A
C330   O363    1.287   .     A
C330   O362    1.299   .     A
C330   C353    1.440   .     S
C331   O368    1.299   .     A
C331   C349    1.464   .     S
C331   O365    1.302   .     A
C332   C350    1.466   .     S
C332   O367    1.301   .     A
C332   O366    1.299   .     A
C333   N360    1.371   .     A
C333   Br371   1.905   .     S
C334   N359    1.371   .     A
C334   Br372   1.921   .     S
C334   C581    1.424   .     S
C335   Br373   1.915   .     S
C335   N360    1.373   .     A
C336   N359    1.369   .     A
C336   Br374   1.918   .     S
C336   C579    1.417   .     S
C337   O379    1.381   .     S
C337   C354    1.403   .     A
C338   C353    1.409   .     A
C338   O387    1.381   .     S
C338   C422    1.384   .     S
C339   C353    1.395   .     A
C339   O395    1.382   .     S
C339   C419    1.386   .     S
C340   C354    1.414   .     A
C340   O403    1.383   .     S
C341   C351    1.395   .     A
C341   C345    1.375   .     A
C341   H355    1.084   .     S
C342   C346    1.392   .     A
C342   C352    1.393   .     A
C342   H356    1.083   .     S
C343   C347    1.372   .     A
C343   H357    1.083   .     S
C343   C352    1.394   .     A
C344   H358    1.083   .     S
C344   C348    1.390   .     A
C344   C351    1.396   .     A
C345   C349    1.410   .     A
C345   Br375   1.918   .     S
C346   C350    1.424   .     A
C346   Br376   1.927   .     S
C347   C350    1.414   .     A
C347   Br377   1.914   .     S
C348   Br378   1.927   .     S
C348   C349    1.420   .     A
C351   C1090   1.456   1_554 S
C352   C1089   1.456   .     S
N359   Zn369   2.025   .     S
N360   Zn370   2.025   .     S
O361   Zn369   2.021   .     S
O362   Zn370   2.021   .     S
O363   Zn369   2.029   .     S
O364   Zn370   2.029   .     S
O365   Zn369   2.008   .     S
O366   Zn370   2.008   .     S
O367   Zn369   2.010   .     S
O368   Zn370   2.010   .     S
O379   C380    1.419   .     S
C380   C383    1.512   .     S
C380   H381    1.110   .     S
H382   C462    1.114   .     S
C383   H386    1.103   .     S
H384   C629    1.110   .     S
H385   C629    1.108   .     S
O387   C388    1.412   .     S
C388   C391    1.522   .     S
C388   H390    1.113   .     S
C388   H389    1.116   .     S
C391   H393    1.110   .     S
C391   H394    1.109   .     S
C391   H392    1.108   .     S
O395   C396    1.425   .     S
C396   H397    1.110   .     S
C396   C399    1.523   .     S
C396   H480    1.118   .     S
C399   H402    1.108   .     S
C399   H482    1.107   .     S
C399   H483    1.110   .     S
O403   C404    1.418   .     S
C404   C407    1.522   .     S
C404   H406    1.112   .     S
C404   H405    1.118   .     S
C407   H409    1.110   .     S
C407   H410    1.108   .     S
C407   H408    1.106   .     S
C411   O443    1.290   .     A
C411   C436    1.445   .     S
C411   O446    1.299   .     A
C412   O445    1.287   .     A
C412   O444    1.299   .     A
C412   C435    1.440   .     S
C413   O450    1.299   .     A
C413   C431    1.464   .     S
C413   O447    1.302   .     A
C414   C432    1.466   .     S
C414   O449    1.301   .     A
C414   O448    1.299   .     A
C415   N442    1.371   .     A
C415   Br453   1.905   .     S
C416   N441    1.371   .     A
C416   Br454   1.921   .     S
C416   C663    1.424   .     S
C417   Br455   1.915   .     S
C417   N442    1.373   .     A
C418   N441    1.369   .     A
C418   Br456   1.918   .     S
C418   C661    1.417   .     S
C419   O461    1.381   .     S
C419   C436    1.403   .     A
C420   C435    1.409   .     A
C420   O469    1.381   .     S
C420   C258    1.384   1_655 S
C421   C435    1.395   .     A
C421   O477    1.382   .     S
C421   C255    1.386   1_655 S
C422   C436    1.414   .     A
C422   O485    1.383   .     S
C423   C433    1.395   .     A
C423   C427    1.375   .     A
C423   H437    1.084   .     S
C424   C428    1.392   .     A
C424   C434    1.393   .     A
C424   H438    1.083   .     S
C425   C429    1.372   .     A
C425   H439    1.083   .     S
C425   C434    1.394   .     A
C426   H440    1.083   .     S
C426   C430    1.390   .     A
C426   C433    1.396   .     A
C427   C431    1.410   .     A
C427   Br457   1.918   .     S
C428   C432    1.424   .     A
C428   Br458   1.927   .     S
C429   C432    1.414   .     A
C429   Br459   1.914   .     S
C430   Br460   1.927   .     S
C430   C431    1.420   .     A
C433   C1172   1.456   1_554 S
C434   C1171   1.456   .     S
N441   Zn451   2.025   .     S
N442   Zn452   2.025   .     S
O443   Zn451   2.021   .     S
O444   Zn452   2.021   .     S
O445   Zn451   2.029   .     S
O446   Zn452   2.029   .     S
O447   Zn451   2.008   .     S
O448   Zn452   2.008   .     S
O449   Zn451   2.010   .     S
O450   Zn452   2.010   .     S
O461   C462    1.419   .     S
C462   C465    1.512   .     S
C462   H463    1.110   .     S
H464   C298    1.114   1_655 S
C465   H468    1.103   .     S
H466   C711    1.110   .     S
H467   C711    1.108   .     S
O469   C470    1.412   .     S
C470   C473    1.522   .     S
C470   H472    1.113   .     S
C470   H471    1.116   .     S
C473   H475    1.110   .     S
C473   H476    1.109   .     S
C473   H474    1.108   .     S
O477   C478    1.425   .     S
C478   H479    1.110   .     S
C478   C481    1.523   .     S
C478   H316    1.118   1_655 S
C481   H484    1.108   .     S
C481   H318    1.107   1_655 S
C481   H319    1.110   1_655 S
O485   C486    1.418   .     S
C486   C489    1.522   .     S
C486   H488    1.112   .     S
C486   H487    1.118   .     S
C489   H491    1.110   .     S
C489   H492    1.108   .     S
C489   H490    1.106   .     S
C493   O525    1.290   .     A
C493   C518    1.445   .     S
C493   O528    1.299   .     A
C494   O527    1.287   .     A
C494   O526    1.299   .     A
C494   C517    1.440   .     S
C495   O532    1.299   .     A
C495   C513    1.464   .     S
C495   O529    1.302   .     A
C496   C514    1.466   .     S
C496   O531    1.301   .     A
C496   O530    1.299   .     A
C497   N524    1.371   .     A
C497   Br535   1.905   .     S
C498   N523    1.371   .     A
C498   Br536   1.921   .     S
C498   C7      1.424   1_565 S
C499   Br537   1.915   .     S
C499   N524    1.373   .     A
C500   N523    1.369   .     A
C500   Br538   1.918   .     S
C500   C5      1.417   1_565 S
C501   O543    1.381   .     S
C501   C518    1.403   .     A
C501   C667    1.386   1_455 S
C502   C517    1.409   .     A
C502   O551    1.381   .     S
C502   C586    1.384   .     S
C503   C517    1.395   .     A
C503   O559    1.382   .     S
C503   C583    1.386   .     S
C504   C518    1.414   .     A
C504   O567    1.383   .     S
C504   C666    1.384   1_455 S
C505   C515    1.395   .     A
C505   C509    1.375   .     A
C505   H519    1.084   .     S
C506   C510    1.392   .     A
C506   C516    1.393   .     A
C506   H520    1.083   .     S
C507   C511    1.372   .     A
C507   H521    1.083   .     S
C507   C516    1.394   .     A
C508   H522    1.083   .     S
C508   C512    1.390   .     A
C508   C515    1.396   .     A
C509   C513    1.410   .     A
C509   Br539   1.918   .     S
C510   C514    1.424   .     A
C510   Br540   1.927   .     S
C511   C514    1.414   .     A
C511   Br541   1.914   .     S
C512   Br542   1.927   .     S
C512   C513    1.420   .     A
C515   C1254   1.456   1_554 S
C516   C1253   1.456   .     S
N523   Zn533   2.025   .     S
N524   Zn534   2.025   .     S
O525   Zn533   2.021   .     S
O526   Zn534   2.021   .     S
O527   Zn533   2.029   .     S
O528   Zn534   2.029   .     S
O529   Zn533   2.008   .     S
O530   Zn534   2.008   .     S
O531   Zn533   2.010   .     S
O532   Zn534   2.010   .     S
O543   C544    1.419   .     S
C544   C547    1.512   .     S
C544   H545    1.110   .     S
C544   H710    1.114   1_455 S
H546   C626    1.114   .     S
C547   H550    1.103   .     S
H548   C55     1.110   1_565 S
H549   C55     1.108   1_565 S
O551   C552    1.412   .     S
C552   C555    1.522   .     S
C552   H554    1.113   .     S
C552   H553    1.116   .     S
C555   H557    1.110   .     S
C555   H558    1.109   .     S
C555   H556    1.108   .     S
O559   C560    1.425   .     S
C560   H561    1.110   .     S
C560   C563    1.523   .     S
C560   H644    1.118   .     S
H562   C724    1.118   1_455 S
C563   H566    1.108   .     S
C563   H646    1.107   .     S
C563   H647    1.110   .     S
H564   C727    1.107   1_455 S
H565   C727    1.110   1_455 S
O567   C568    1.418   .     S
C568   C571    1.522   .     S
C568   H570    1.112   .     S
C568   H569    1.118   .     S
C571   H573    1.110   .     S
C571   H574    1.108   .     S
C571   H572    1.106   .     S
C575   O607    1.290   .     A
C575   C600    1.445   .     S
C575   O610    1.299   .     A
C576   O609    1.287   .     A
C576   O608    1.299   .     A
C576   C599    1.440   .     S
C577   O614    1.299   .     A
C577   C595    1.464   .     S
C577   O611    1.302   .     A
C578   C596    1.466   .     S
C578   O613    1.301   .     A
C578   O612    1.299   .     A
C579   N606    1.371   .     A
C579   Br617   1.905   .     S
C580   N605    1.371   .     A
C580   Br618   1.921   .     S
C580   C89     1.424   1_565 S
C581   Br619   1.915   .     S
C581   N606    1.373   .     A
C582   N605    1.369   .     A
C582   Br620   1.918   .     S
C582   C87     1.417   1_565 S
C583   O625    1.381   .     S
C583   C600    1.403   .     A
C584   C599    1.409   .     A
C584   O633    1.381   .     S
C584   C668    1.384   .     S
C585   C599    1.395   .     A
C585   O641    1.382   .     S
C585   C665    1.386   .     S
C586   C600    1.414   .     A
C586   O649    1.383   .     S
C587   C597    1.395   .     A
C587   C591    1.375   .     A
C587   H601    1.084   .     S
C588   C592    1.392   .     A
C588   C598    1.393   .     A
C588   H602    1.083   .     S
C589   C593    1.372   .     A
C589   H603    1.083   .     S
C589   C598    1.394   .     A
C590   H604    1.083   .     S
C590   C594    1.390   .     A
C590   C597    1.396   .     A
C591   C595    1.410   .     A
C591   Br621   1.918   .     S
C592   C596    1.424   .     A
C592   Br622   1.927   .     S
C593   C596    1.414   .     A
C593   Br623   1.914   .     S
C594   Br624   1.927   .     S
C594   C595    1.420   .     A
C597   C1336   1.456   1_554 S
C598   C1335   1.456   .     S
N605   Zn615   2.025   .     S
N606   Zn616   2.025   .     S
O607   Zn615   2.021   .     S
O608   Zn616   2.021   .     S
O609   Zn615   2.029   .     S
O610   Zn616   2.029   .     S
O611   Zn615   2.008   .     S
O612   Zn616   2.008   .     S
O613   Zn615   2.010   .     S
O614   Zn616   2.010   .     S
O625   C626    1.419   .     S
C626   C629    1.512   .     S
C626   H627    1.110   .     S
H628   C708    1.114   .     S
C629   H632    1.103   .     S
H630   C137    1.110   1_565 S
H631   C137    1.108   1_565 S
O633   C634    1.412   .     S
C634   C637    1.522   .     S
C634   H636    1.113   .     S
C634   H635    1.116   .     S
C637   H639    1.110   .     S
C637   H640    1.109   .     S
C637   H638    1.108   .     S
O641   C642    1.425   .     S
C642   H643    1.110   .     S
C642   C645    1.523   .     S
C642   H726    1.118   .     S
C645   H648    1.108   .     S
C645   H728    1.107   .     S
C645   H729    1.110   .     S
O649   C650    1.418   .     S
C650   C653    1.522   .     S
C650   H652    1.112   .     S
C650   H651    1.118   .     S
C653   H655    1.110   .     S
C653   H656    1.108   .     S
C653   H654    1.106   .     S
C657   O689    1.290   .     A
C657   C682    1.445   .     S
C657   O692    1.299   .     A
C658   O691    1.287   .     A
C658   O690    1.299   .     A
C658   C681    1.440   .     S
C659   O696    1.299   .     A
C659   C677    1.464   .     S
C659   O693    1.302   .     A
C660   C678    1.466   .     S
C660   O695    1.301   .     A
C660   O694    1.299   .     A
C661   N688    1.371   .     A
C661   Br699   1.905   .     S
C662   N687    1.371   .     A
C662   Br700   1.921   .     S
C662   C171    1.424   1_565 S
C663   Br701   1.915   .     S
C663   N688    1.373   .     A
C664   N687    1.369   .     A
C664   Br702   1.918   .     S
C664   C169    1.417   1_565 S
C665   O707    1.381   .     S
C665   C682    1.403   .     A
C666   C681    1.409   .     A
C666   O715    1.381   .     S
C666   C504    1.384   1_655 S
C667   C681    1.395   .     A
C667   O723    1.382   .     S
C667   C501    1.386   1_655 S
C668   C682    1.414   .     A
C668   O731    1.383   .     S
C669   C679    1.395   .     A
C669   C673    1.375   .     A
C669   H683    1.084   .     S
C670   C674    1.392   .     A
C670   C680    1.393   .     A
C670   H684    1.083   .     S
C671   C675    1.372   .     A
C671   H685    1.083   .     S
C671   C680    1.394   .     A
C672   H686    1.083   .     S
C672   C676    1.390   .     A
C672   C679    1.396   .     A
C673   C677    1.410   .     A
C673   Br703   1.918   .     S
C674   C678    1.424   .     A
C674   Br704   1.927   .     S
C675   C678    1.414   .     A
C675   Br705   1.914   .     S
C676   Br706   1.927   .     S
C676   C677    1.420   .     A
C679   C1418   1.456   1_554 S
C680   C1417   1.456   .     S
N687   Zn697   2.025   .     S
N688   Zn698   2.025   .     S
O689   Zn697   2.021   .     S
O690   Zn698   2.021   .     S
O691   Zn697   2.029   .     S
O692   Zn698   2.029   .     S
O693   Zn697   2.008   .     S
O694   Zn698   2.008   .     S
O695   Zn697   2.010   .     S
O696   Zn698   2.010   .     S
O707   C708    1.419   .     S
C708   C711    1.512   .     S
C708   H709    1.110   .     S
H710   C544    1.114   1_655 S
C711   H714    1.103   .     S
H712   C219    1.110   1_565 S
H713   C219    1.108   1_565 S
O715   C716    1.412   .     S
C716   C719    1.522   .     S
C716   H718    1.113   .     S
C716   H717    1.116   .     S
C719   H721    1.110   .     S
C719   H722    1.109   .     S
C719   H720    1.108   .     S
O723   C724    1.425   .     S
C724   H725    1.110   .     S
C724   C727    1.523   .     S
C724   H562    1.118   1_655 S
C727   H730    1.108   .     S
C727   H564    1.107   1_655 S
C727   H565    1.110   1_655 S
O731   C732    1.418   .     S
C732   C735    1.522   .     S
C732   H734    1.112   .     S
C732   H733    1.118   .     S
C735   H737    1.110   .     S
C735   H738    1.108   .     S
C735   H736    1.106   .     S
C739   O771    1.290   .     A
C739   C764    1.445   .     S
C739   O774    1.299   .     A
C740   O773    1.287   .     A
C740   O772    1.299   .     A
C740   C763    1.440   .     S
C741   O778    1.299   .     A
C741   C759    1.464   .     S
C741   O775    1.302   .     A
C742   C760    1.466   .     S
C742   O777    1.301   .     A
C742   O776    1.299   .     A
C743   N770    1.371   .     A
C743   Br781   1.905   .     S
C743   C1238   1.417   1_545 S
C744   N769    1.371   .     A
C744   Br782   1.921   .     S
C744   C991    1.424   .     S
C745   Br783   1.915   .     S
C745   N770    1.373   .     A
C745   C1236   1.424   1_545 S
C746   N769    1.369   .     A
C746   Br784   1.918   .     S
C746   C989    1.417   .     S
C747   O789    1.381   .     S
C747   C764    1.403   .     A
C747   C913    1.386   1_455 S
C748   C763    1.409   .     A
C748   O797    1.381   .     S
C748   C832    1.384   .     S
C749   C763    1.395   .     A
C749   O805    1.382   .     S
C749   C829    1.386   .     S
C750   C764    1.414   .     A
C750   O813    1.383   .     S
C750   C912    1.384   1_455 S
C751   C761    1.395   .     A
C751   C755    1.375   .     A
C751   H765    1.084   .     S
C752   C756    1.392   .     A
C752   C762    1.393   .     A
C752   H766    1.083   .     S
C753   C757    1.372   .     A
C753   H767    1.083   .     S
C753   C762    1.394   .     A
C754   H768    1.083   .     S
C754   C758    1.390   .     A
C754   C761    1.396   .     A
C755   C759    1.410   .     A
C755   Br785   1.918   .     S
C756   C760    1.424   .     A
C756   Br786   1.927   .     S
C757   C760    1.414   .     A
C757   Br787   1.914   .     S
C758   Br788   1.927   .     S
C758   C759    1.420   .     A
C762   C23     1.456   1_556 S
N769   Zn779   2.025   .     S
N770   Zn780   2.025   .     S
O771   Zn779   2.021   .     S
O772   Zn780   2.021   .     S
O773   Zn779   2.029   .     S
O774   Zn780   2.029   .     S
O775   Zn779   2.008   .     S
O776   Zn780   2.008   .     S
O777   Zn779   2.010   .     S
O778   Zn780   2.010   .     S
O789   C790    1.419   .     S
C790   C793    1.512   .     S
C790   H791    1.110   .     S
C790   H956    1.114   1_455 S
H792   C872    1.114   .     S
C793   H796    1.103   .     S
C793   H1286   1.110   1_545 S
C793   H1287   1.108   1_545 S
H794   C1039   1.110   .     S
H795   C1039   1.108   .     S
O797   C798    1.412   .     S
C798   C801    1.522   .     S
C798   H800    1.113   .     S
C798   H799    1.116   .     S
C801   H803    1.110   .     S
C801   H804    1.109   .     S
C801   H802    1.108   .     S
O805   C806    1.425   .     S
C806   H807    1.110   .     S
C806   C809    1.523   .     S
C806   H890    1.118   .     S
H808   C970    1.118   1_455 S
C809   H812    1.108   .     S
C809   H892    1.107   .     S
C809   H893    1.110   .     S
H810   C973    1.107   1_455 S
H811   C973    1.110   1_455 S
O813   C814    1.418   .     S
C814   C817    1.522   .     S
C814   H816    1.112   .     S
C814   H815    1.118   .     S
C817   H819    1.110   .     S
C817   H820    1.108   .     S
C817   H818    1.106   .     S
C821   O853    1.290   .     A
C821   C846    1.445   .     S
C821   O856    1.299   .     A
C822   O855    1.287   .     A
C822   O854    1.299   .     A
C822   C845    1.440   .     S
C823   O860    1.299   .     A
C823   C841    1.464   .     S
C823   O857    1.302   .     A
C824   C842    1.466   .     S
C824   O859    1.301   .     A
C824   O858    1.299   .     A
C825   N852    1.371   .     A
C825   Br863   1.905   .     S
C825   C1320   1.417   1_545 S
C826   N851    1.371   .     A
C826   Br864   1.921   .     S
C826   C1073   1.424   .     S
C827   Br865   1.915   .     S
C827   N852    1.373   .     A
C827   C1318   1.424   1_545 S
C828   N851    1.369   .     A
C828   Br866   1.918   .     S
C828   C1071   1.417   .     S
C829   O871    1.381   .     S
C829   C846    1.403   .     A
C830   C845    1.409   .     A
C830   O879    1.381   .     S
C830   C914    1.384   .     S
C831   C845    1.395   .     A
C831   O887    1.382   .     S
C831   C911    1.386   .     S
C832   C846    1.414   .     A
C832   O895    1.383   .     S
C833   C843    1.395   .     A
C833   C837    1.375   .     A
C833   H847    1.084   .     S
C834   C838    1.392   .     A
C834   C844    1.393   .     A
C834   H848    1.083   .     S
C835   C839    1.372   .     A
C835   H849    1.083   .     S
C835   C844    1.394   .     A
C836   H850    1.083   .     S
C836   C840    1.390   .     A
C836   C843    1.396   .     A
C837   C841    1.410   .     A
C837   Br867   1.918   .     S
C838   C842    1.424   .     A
C838   Br868   1.927   .     S
C839   C842    1.414   .     A
C839   Br869   1.914   .     S
C840   Br870   1.927   .     S
C840   C841    1.420   .     A
C844   C105    1.456   1_556 S
N851   Zn861   2.025   .     S
N852   Zn862   2.025   .     S
O853   Zn861   2.021   .     S
O854   Zn862   2.021   .     S
O855   Zn861   2.029   .     S
O856   Zn862   2.029   .     S
O857   Zn861   2.008   .     S
O858   Zn862   2.008   .     S
O859   Zn861   2.010   .     S
O860   Zn862   2.010   .     S
O871   C872    1.419   .     S
C872   C875    1.512   .     S
C872   H873    1.110   .     S
H874   C954    1.114   .     S
C875   H878    1.103   .     S
C875   H1368   1.110   1_545 S
C875   H1369   1.108   1_545 S
H876   C1121   1.110   .     S
H877   C1121   1.108   .     S
O879   C880    1.412   .     S
C880   C883    1.522   .     S
C880   H882    1.113   .     S
C880   H881    1.116   .     S
C883   H885    1.110   .     S
C883   H886    1.109   .     S
C883   H884    1.108   .     S
O887   C888    1.425   .     S
C888   H889    1.110   .     S
C888   C891    1.523   .     S
C888   H972    1.118   .     S
C891   H894    1.108   .     S
C891   H974    1.107   .     S
C891   H975    1.110   .     S
O895   C896    1.418   .     S
C896   C899    1.522   .     S
C896   H898    1.112   .     S
C896   H897    1.118   .     S
C899   H901    1.110   .     S
C899   H902    1.108   .     S
C899   H900    1.106   .     S
C903   O935    1.290   .     A
C903   C928    1.445   .     S
C903   O938    1.299   .     A
C904   O937    1.287   .     A
C904   O936    1.299   .     A
C904   C927    1.440   .     S
C905   O942    1.299   .     A
C905   C923    1.464   .     S
C905   O939    1.302   .     A
C906   C924    1.466   .     S
C906   O941    1.301   .     A
C906   O940    1.299   .     A
C907   N934    1.371   .     A
C907   Br945   1.905   .     S
C907   C1402   1.417   1_545 S
C908   N933    1.371   .     A
C908   Br946   1.921   .     S
C908   C1155   1.424   .     S
C909   Br947   1.915   .     S
C909   N934    1.373   .     A
C909   C1400   1.424   1_545 S
C910   N933    1.369   .     A
C910   Br948   1.918   .     S
C910   C1153   1.417   .     S
C911   O953    1.381   .     S
C911   C928    1.403   .     A
C912   C927    1.409   .     A
C912   O961    1.381   .     S
C912   C750    1.384   1_655 S
C913   C927    1.395   .     A
C913   O969    1.382   .     S
C913   C747    1.386   1_655 S
C914   C928    1.414   .     A
C914   O977    1.383   .     S
C915   C925    1.395   .     A
C915   C919    1.375   .     A
C915   H929    1.084   .     S
C916   C920    1.392   .     A
C916   C926    1.393   .     A
C916   H930    1.083   .     S
C917   C921    1.372   .     A
C917   H931    1.083   .     S
C917   C926    1.394   .     A
C918   H932    1.083   .     S
C918   C922    1.390   .     A
C918   C925    1.396   .     A
C919   C923    1.410   .     A
C919   Br949   1.918   .     S
C920   C924    1.424   .     A
C920   Br950   1.927   .     S
C921   C924    1.414   .     A
C921   Br951   1.914   .     S
C922   Br952   1.927   .     S
C922   C923    1.420   .     A
C926   C187    1.456   1_556 S
N933   Zn943   2.025   .     S
N934   Zn944   2.025   .     S
O935   Zn943   2.021   .     S
O936   Zn944   2.021   .     S
O937   Zn943   2.029   .     S
O938   Zn944   2.029   .     S
O939   Zn943   2.008   .     S
O940   Zn944   2.008   .     S
O941   Zn943   2.010   .     S
O942   Zn944   2.010   .     S
O953   C954    1.419   .     S
C954   C957    1.512   .     S
C954   H955    1.110   .     S
H956   C790    1.114   1_655 S
C957   H960    1.103   .     S
C957   H1450   1.110   1_545 S
C957   H1451   1.108   1_545 S
H958   C1203   1.110   .     S
H959   C1203   1.108   .     S
O961   C962    1.412   .     S
C962   C965    1.522   .     S
C962   H964    1.113   .     S
C962   H963    1.116   .     S
C965   H967    1.110   .     S
C965   H968    1.109   .     S
C965   H966    1.108   .     S
O969   C970    1.425   .     S
C970   H971    1.110   .     S
C970   C973    1.523   .     S
C970   H808    1.118   1_655 S
C973   H976    1.108   .     S
C973   H810    1.107   1_655 S
C973   H811    1.110   1_655 S
O977   C978    1.418   .     S
C978   C981    1.522   .     S
C978   H980    1.112   .     S
C978   H979    1.118   .     S
C981   H983    1.110   .     S
C981   H984    1.108   .     S
C981   H982    1.106   .     S
C985   O1017   1.290   .     A
C985   C1010   1.445   .     S
C985   O1020   1.299   .     A
C986   O1019   1.287   .     A
C986   O1018   1.299   .     A
C986   C1009   1.440   .     S
C987   O1024   1.299   .     A
C987   C1005   1.464   .     S
C987   O1021   1.302   .     A
C988   C1006   1.466   .     S
C988   O1023   1.301   .     A
C988   O1022   1.299   .     A
C989   N1016   1.371   .     A
C989   Br1027  1.905   .     S
C990   N1015   1.371   .     A
C990   Br1028  1.921   .     S
C990   C1237   1.424   .     S
C991   Br1029  1.915   .     S
C991   N1016   1.373   .     A
C992   N1015   1.369   .     A
C992   Br1030  1.918   .     S
C992   C1235   1.417   .     S
C993   O1035   1.381   .     S
C993   C1010   1.403   .     A
C993   C1159   1.386   1_455 S
C994   C1009   1.409   .     A
C994   O1043   1.381   .     S
C994   C1078   1.384   .     S
C995   C1009   1.395   .     A
C995   O1051   1.382   .     S
C995   C1075   1.386   .     S
C996   C1010   1.414   .     A
C996   O1059   1.383   .     S
C996   C1158   1.384   1_455 S
C997   C1007   1.395   .     A
C997   C1001   1.375   .     A
C997   H1011   1.084   .     S
C998   C1002   1.392   .     A
C998   C1008   1.393   .     A
C998   H1012   1.083   .     S
C999   C1003   1.372   .     A
C999   H1013   1.083   .     S
C999   C1008   1.394   .     A
C1000  H1014   1.083   .     S
C1000  C1004   1.390   .     A
C1000  C1007   1.396   .     A
C1001  C1005   1.410   .     A
C1001  Br1031  1.918   .     S
C1002  C1006   1.424   .     A
C1002  Br1032  1.927   .     S
C1003  C1006   1.414   .     A
C1003  Br1033  1.914   .     S
C1004  Br1034  1.927   .     S
C1004  C1005   1.420   .     A
C1008  C269    1.456   1_556 S
N1015  Zn1025  2.025   .     S
N1016  Zn1026  2.025   .     S
O1017  Zn1025  2.021   .     S
O1018  Zn1026  2.021   .     S
O1019  Zn1025  2.029   .     S
O1020  Zn1026  2.029   .     S
O1021  Zn1025  2.008   .     S
O1022  Zn1026  2.008   .     S
O1023  Zn1025  2.010   .     S
O1024  Zn1026  2.010   .     S
O1035  C1036   1.419   .     S
C1036  C1039   1.512   .     S
C1036  H1037   1.110   .     S
C1036  H1202   1.114   1_455 S
H1038  C1118   1.114   .     S
C1039  H1042   1.103   .     S
H1040  C1285   1.110   .     S
H1041  C1285   1.108   .     S
O1043  C1044   1.412   .     S
C1044  C1047   1.522   .     S
C1044  H1046   1.113   .     S
C1044  H1045   1.116   .     S
C1047  H1049   1.110   .     S
C1047  H1050   1.109   .     S
C1047  H1048   1.108   .     S
O1051  C1052   1.425   .     S
C1052  H1053   1.110   .     S
C1052  C1055   1.523   .     S
C1052  H1136   1.118   .     S
H1054  C1216   1.118   1_455 S
C1055  H1058   1.108   .     S
C1055  H1138   1.107   .     S
C1055  H1139   1.110   .     S
H1056  C1219   1.107   1_455 S
H1057  C1219   1.110   1_455 S
O1059  C1060   1.418   .     S
C1060  C1063   1.522   .     S
C1060  H1062   1.112   .     S
C1060  H1061   1.118   .     S
C1063  H1065   1.110   .     S
C1063  H1066   1.108   .     S
C1063  H1064   1.106   .     S
C1067  O1099   1.290   .     A
C1067  C1092   1.445   .     S
C1067  O1102   1.299   .     A
C1068  O1101   1.287   .     A
C1068  O1100   1.299   .     A
C1068  C1091   1.440   .     S
C1069  O1106   1.299   .     A
C1069  C1087   1.464   .     S
C1069  O1103   1.302   .     A
C1070  C1088   1.466   .     S
C1070  O1105   1.301   .     A
C1070  O1104   1.299   .     A
C1071  N1098   1.371   .     A
C1071  Br1109  1.905   .     S
C1072  N1097   1.371   .     A
C1072  Br1110  1.921   .     S
C1072  C1319   1.424   .     S
C1073  Br1111  1.915   .     S
C1073  N1098   1.373   .     A
C1074  N1097   1.369   .     A
C1074  Br1112  1.918   .     S
C1074  C1317   1.417   .     S
C1075  O1117   1.381   .     S
C1075  C1092   1.403   .     A
C1076  C1091   1.409   .     A
C1076  O1125   1.381   .     S
C1076  C1160   1.384   .     S
C1077  C1091   1.395   .     A
C1077  O1133   1.382   .     S
C1077  C1157   1.386   .     S
C1078  C1092   1.414   .     A
C1078  O1141   1.383   .     S
C1079  C1089   1.395   .     A
C1079  C1083   1.375   .     A
C1079  H1093   1.084   .     S
C1080  C1084   1.392   .     A
C1080  C1090   1.393   .     A
C1080  H1094   1.083   .     S
C1081  C1085   1.372   .     A
C1081  H1095   1.083   .     S
C1081  C1090   1.394   .     A
C1082  H1096   1.083   .     S
C1082  C1086   1.390   .     A
C1082  C1089   1.396   .     A
C1083  C1087   1.410   .     A
C1083  Br1113  1.918   .     S
C1084  C1088   1.424   .     A
C1084  Br1114  1.927   .     S
C1085  C1088   1.414   .     A
C1085  Br1115  1.914   .     S
C1086  Br1116  1.927   .     S
C1086  C1087   1.420   .     A
C1090  C351    1.456   1_556 S
N1097  Zn1107  2.025   .     S
N1098  Zn1108  2.025   .     S
O1099  Zn1107  2.021   .     S
O1100  Zn1108  2.021   .     S
O1101  Zn1107  2.029   .     S
O1102  Zn1108  2.029   .     S
O1103  Zn1107  2.008   .     S
O1104  Zn1108  2.008   .     S
O1105  Zn1107  2.010   .     S
O1106  Zn1108  2.010   .     S
O1117  C1118   1.419   .     S
C1118  C1121   1.512   .     S
C1118  H1119   1.110   .     S
H1120  C1200   1.114   .     S
C1121  H1124   1.103   .     S
H1122  C1367   1.110   .     S
H1123  C1367   1.108   .     S
O1125  C1126   1.412   .     S
C1126  C1129   1.522   .     S
C1126  H1128   1.113   .     S
C1126  H1127   1.116   .     S
C1129  H1131   1.110   .     S
C1129  H1132   1.109   .     S
C1129  H1130   1.108   .     S
O1133  C1134   1.425   .     S
C1134  H1135   1.110   .     S
C1134  C1137   1.523   .     S
C1134  H1218   1.118   .     S
C1137  H1140   1.108   .     S
C1137  H1220   1.107   .     S
C1137  H1221   1.110   .     S
O1141  C1142   1.418   .     S
C1142  C1145   1.522   .     S
C1142  H1144   1.112   .     S
C1142  H1143   1.118   .     S
C1145  H1147   1.110   .     S
C1145  H1148   1.108   .     S
C1145  H1146   1.106   .     S
C1149  O1181   1.290   .     A
C1149  C1174   1.445   .     S
C1149  O1184   1.299   .     A
C1150  O1183   1.287   .     A
C1150  O1182   1.299   .     A
C1150  C1173   1.440   .     S
C1151  O1188   1.299   .     A
C1151  C1169   1.464   .     S
C1151  O1185   1.302   .     A
C1152  C1170   1.466   .     S
C1152  O1187   1.301   .     A
C1152  O1186   1.299   .     A
C1153  N1180   1.371   .     A
C1153  Br1191  1.905   .     S
C1154  N1179   1.371   .     A
C1154  Br1192  1.921   .     S
C1154  C1401   1.424   .     S
C1155  Br1193  1.915   .     S
C1155  N1180   1.373   .     A
C1156  N1179   1.369   .     A
C1156  Br1194  1.918   .     S
C1156  C1399   1.417   .     S
C1157  O1199   1.381   .     S
C1157  C1174   1.403   .     A
C1158  C1173   1.409   .     A
C1158  O1207   1.381   .     S
C1158  C996    1.384   1_655 S
C1159  C1173   1.395   .     A
C1159  O1215   1.382   .     S
C1159  C993    1.386   1_655 S
C1160  C1174   1.414   .     A
C1160  O1223   1.383   .     S
C1161  C1171   1.395   .     A
C1161  C1165   1.375   .     A
C1161  H1175   1.084   .     S
C1162  C1166   1.392   .     A
C1162  C1172   1.393   .     A
C1162  H1176   1.083   .     S
C1163  C1167   1.372   .     A
C1163  H1177   1.083   .     S
C1163  C1172   1.394   .     A
C1164  H1178   1.083   .     S
C1164  C1168   1.390   .     A
C1164  C1171   1.396   .     A
C1165  C1169   1.410   .     A
C1165  Br1195  1.918   .     S
C1166  C1170   1.424   .     A
C1166  Br1196  1.927   .     S
C1167  C1170   1.414   .     A
C1167  Br1197  1.914   .     S
C1168  Br1198  1.927   .     S
C1168  C1169   1.420   .     A
C1172  C433    1.456   1_556 S
N1179  Zn1189  2.025   .     S
N1180  Zn1190  2.025   .     S
O1181  Zn1189  2.021   .     S
O1182  Zn1190  2.021   .     S
O1183  Zn1189  2.029   .     S
O1184  Zn1190  2.029   .     S
O1185  Zn1189  2.008   .     S
O1186  Zn1190  2.008   .     S
O1187  Zn1189  2.010   .     S
O1188  Zn1190  2.010   .     S
O1199  C1200   1.419   .     S
C1200  C1203   1.512   .     S
C1200  H1201   1.110   .     S
H1202  C1036   1.114   1_655 S
C1203  H1206   1.103   .     S
H1204  C1449   1.110   .     S
H1205  C1449   1.108   .     S
O1207  C1208   1.412   .     S
C1208  C1211   1.522   .     S
C1208  H1210   1.113   .     S
C1208  H1209   1.116   .     S
C1211  H1213   1.110   .     S
C1211  H1214   1.109   .     S
C1211  H1212   1.108   .     S
O1215  C1216   1.425   .     S
C1216  H1217   1.110   .     S
C1216  C1219   1.523   .     S
C1216  H1054   1.118   1_655 S
C1219  H1222   1.108   .     S
C1219  H1056   1.107   1_655 S
C1219  H1057   1.110   1_655 S
O1223  C1224   1.418   .     S
C1224  C1227   1.522   .     S
C1224  H1226   1.112   .     S
C1224  H1225   1.118   .     S
C1227  H1229   1.110   .     S
C1227  H1230   1.108   .     S
C1227  H1228   1.106   .     S
C1231  O1263   1.290   .     A
C1231  C1256   1.445   .     S
C1231  O1266   1.299   .     A
C1232  O1265   1.287   .     A
C1232  O1264   1.299   .     A
C1232  C1255   1.440   .     S
C1233  O1270   1.299   .     A
C1233  C1251   1.464   .     S
C1233  O1267   1.302   .     A
C1234  C1252   1.466   .     S
C1234  O1269   1.301   .     A
C1234  O1268   1.299   .     A
C1235  N1262   1.371   .     A
C1235  Br1273  1.905   .     S
C1236  N1261   1.371   .     A
C1236  Br1274  1.921   .     S
C1236  C745    1.424   1_565 S
C1237  Br1275  1.915   .     S
C1237  N1262   1.373   .     A
C1238  N1261   1.369   .     A
C1238  Br1276  1.918   .     S
C1238  C743    1.417   1_565 S
C1239  O1281   1.381   .     S
C1239  C1256   1.403   .     A
C1239  C1405   1.386   1_455 S
C1240  C1255   1.409   .     A
C1240  O1289   1.381   .     S
C1240  C1324   1.384   .     S
C1241  C1255   1.395   .     A
C1241  O1297   1.382   .     S
C1241  C1321   1.386   .     S
C1242  C1256   1.414   .     A
C1242  O1305   1.383   .     S
C1242  C1404   1.384   1_455 S
C1243  C1253   1.395   .     A
C1243  C1247   1.375   .     A
C1243  H1257   1.084   .     S
C1244  C1248   1.392   .     A
C1244  C1254   1.393   .     A
C1244  H1258   1.083   .     S
C1245  C1249   1.372   .     A
C1245  H1259   1.083   .     S
C1245  C1254   1.394   .     A
C1246  H1260   1.083   .     S
C1246  C1250   1.390   .     A
C1246  C1253   1.396   .     A
C1247  C1251   1.410   .     A
C1247  Br1277  1.918   .     S
C1248  C1252   1.424   .     A
C1248  Br1278  1.927   .     S
C1249  C1252   1.414   .     A
C1249  Br1279  1.914   .     S
C1250  Br1280  1.927   .     S
C1250  C1251   1.420   .     A
C1254  C515    1.456   1_556 S
N1261  Zn1271  2.025   .     S
N1262  Zn1272  2.025   .     S
O1263  Zn1271  2.021   .     S
O1264  Zn1272  2.021   .     S
O1265  Zn1271  2.029   .     S
O1266  Zn1272  2.029   .     S
O1267  Zn1271  2.008   .     S
O1268  Zn1272  2.008   .     S
O1269  Zn1271  2.010   .     S
O1270  Zn1272  2.010   .     S
O1281  C1282   1.419   .     S
C1282  C1285   1.512   .     S
C1282  H1283   1.110   .     S
C1282  H1448   1.114   1_455 S
H1284  C1364   1.114   .     S
C1285  H1288   1.103   .     S
H1286  C793    1.110   1_565 S
H1287  C793    1.108   1_565 S
O1289  C1290   1.412   .     S
C1290  C1293   1.522   .     S
C1290  H1292   1.113   .     S
C1290  H1291   1.116   .     S
C1293  H1295   1.110   .     S
C1293  H1296   1.109   .     S
C1293  H1294   1.108   .     S
O1297  C1298   1.425   .     S
C1298  H1299   1.110   .     S
C1298  C1301   1.523   .     S
C1298  H1382   1.118   .     S
H1300  C1462   1.118   1_455 S
C1301  H1304   1.108   .     S
C1301  H1384   1.107   .     S
C1301  H1385   1.110   .     S
H1302  C1465   1.107   1_455 S
H1303  C1465   1.110   1_455 S
O1305  C1306   1.418   .     S
C1306  C1309   1.522   .     S
C1306  H1308   1.112   .     S
C1306  H1307   1.118   .     S
C1309  H1311   1.110   .     S
C1309  H1312   1.108   .     S
C1309  H1310   1.106   .     S
C1313  O1345   1.290   .     A
C1313  C1338   1.445   .     S
C1313  O1348   1.299   .     A
C1314  O1347   1.287   .     A
C1314  O1346   1.299   .     A
C1314  C1337   1.440   .     S
C1315  O1352   1.299   .     A
C1315  C1333   1.464   .     S
C1315  O1349   1.302   .     A
C1316  C1334   1.466   .     S
C1316  O1351   1.301   .     A
C1316  O1350   1.299   .     A
C1317  N1344   1.371   .     A
C1317  Br1355  1.905   .     S
C1318  N1343   1.371   .     A
C1318  Br1356  1.921   .     S
C1318  C827    1.424   1_565 S
C1319  Br1357  1.915   .     S
C1319  N1344   1.373   .     A
C1320  N1343   1.369   .     A
C1320  Br1358  1.918   .     S
C1320  C825    1.417   1_565 S
C1321  O1363   1.381   .     S
C1321  C1338   1.403   .     A
C1322  C1337   1.409   .     A
C1322  O1371   1.381   .     S
C1322  C1406   1.384   .     S
C1323  C1337   1.395   .     A
C1323  O1379   1.382   .     S
C1323  C1403   1.386   .     S
C1324  C1338   1.414   .     A
C1324  O1387   1.383   .     S
C1325  C1335   1.395   .     A
C1325  C1329   1.375   .     A
C1325  H1339   1.084   .     S
C1326  C1330   1.392   .     A
C1326  C1336   1.393   .     A
C1326  H1340   1.083   .     S
C1327  C1331   1.372   .     A
C1327  H1341   1.083   .     S
C1327  C1336   1.394   .     A
C1328  H1342   1.083   .     S
C1328  C1332   1.390   .     A
C1328  C1335   1.396   .     A
C1329  C1333   1.410   .     A
C1329  Br1359  1.918   .     S
C1330  C1334   1.424   .     A
C1330  Br1360  1.927   .     S
C1331  C1334   1.414   .     A
C1331  Br1361  1.914   .     S
C1332  Br1362  1.927   .     S
C1332  C1333   1.420   .     A
C1336  C597    1.456   1_556 S
N1343  Zn1353  2.025   .     S
N1344  Zn1354  2.025   .     S
O1345  Zn1353  2.021   .     S
O1346  Zn1354  2.021   .     S
O1347  Zn1353  2.029   .     S
O1348  Zn1354  2.029   .     S
O1349  Zn1353  2.008   .     S
O1350  Zn1354  2.008   .     S
O1351  Zn1353  2.010   .     S
O1352  Zn1354  2.010   .     S
O1363  C1364   1.419   .     S
C1364  C1367   1.512   .     S
C1364  H1365   1.110   .     S
H1366  C1446   1.114   .     S
C1367  H1370   1.103   .     S
H1368  C875    1.110   1_565 S
H1369  C875    1.108   1_565 S
O1371  C1372   1.412   .     S
C1372  C1375   1.522   .     S
C1372  H1374   1.113   .     S
C1372  H1373   1.116   .     S
C1375  H1377   1.110   .     S
C1375  H1378   1.109   .     S
C1375  H1376   1.108   .     S
O1379  C1380   1.425   .     S
C1380  H1381   1.110   .     S
C1380  C1383   1.523   .     S
C1380  H1464   1.118   .     S
C1383  H1386   1.108   .     S
C1383  H1466   1.107   .     S
C1383  H1467   1.110   .     S
O1387  C1388   1.418   .     S
C1388  C1391   1.522   .     S
C1388  H1390   1.112   .     S
C1388  H1389   1.118   .     S
C1391  H1393   1.110   .     S
C1391  H1394   1.108   .     S
C1391  H1392   1.106   .     S
C1395  O1427   1.290   .     A
C1395  C1420   1.445   .     S
C1395  O1430   1.299   .     A
C1396  O1429   1.287   .     A
C1396  O1428   1.299   .     A
C1396  C1419   1.440   .     S
C1397  O1434   1.299   .     A
C1397  C1415   1.464   .     S
C1397  O1431   1.302   .     A
C1398  C1416   1.466   .     S
C1398  O1433   1.301   .     A
C1398  O1432   1.299   .     A
C1399  N1426   1.371   .     A
C1399  Br1437  1.905   .     S
C1400  N1425   1.371   .     A
C1400  Br1438  1.921   .     S
C1400  C909    1.424   1_565 S
C1401  Br1439  1.915   .     S
C1401  N1426   1.373   .     A
C1402  N1425   1.369   .     A
C1402  Br1440  1.918   .     S
C1402  C907    1.417   1_565 S
C1403  O1445   1.381   .     S
C1403  C1420   1.403   .     A
C1404  C1419   1.409   .     A
C1404  O1453   1.381   .     S
C1404  C1242   1.384   1_655 S
C1405  C1419   1.395   .     A
C1405  O1461   1.382   .     S
C1405  C1239   1.386   1_655 S
C1406  C1420   1.414   .     A
C1406  O1469   1.383   .     S
C1407  C1417   1.395   .     A
C1407  C1411   1.375   .     A
C1407  H1421   1.084   .     S
C1408  C1412   1.392   .     A
C1408  C1418   1.393   .     A
C1408  H1422   1.083   .     S
C1409  C1413   1.372   .     A
C1409  H1423   1.083   .     S
C1409  C1418   1.394   .     A
C1410  H1424   1.083   .     S
C1410  C1414   1.390   .     A
C1410  C1417   1.396   .     A
C1411  C1415   1.410   .     A
C1411  Br1441  1.918   .     S
C1412  C1416   1.424   .     A
C1412  Br1442  1.927   .     S
C1413  C1416   1.414   .     A
C1413  Br1443  1.914   .     S
C1414  Br1444  1.927   .     S
C1414  C1415   1.420   .     A
C1418  C679    1.456   1_556 S
N1425  Zn1435  2.025   .     S
N1426  Zn1436  2.025   .     S
O1427  Zn1435  2.021   .     S
O1428  Zn1436  2.021   .     S
O1429  Zn1435  2.029   .     S
O1430  Zn1436  2.029   .     S
O1431  Zn1435  2.008   .     S
O1432  Zn1436  2.008   .     S
O1433  Zn1435  2.010   .     S
O1434  Zn1436  2.010   .     S
O1445  C1446   1.419   .     S
C1446  C1449   1.512   .     S
C1446  H1447   1.110   .     S
H1448  C1282   1.114   1_655 S
C1449  H1452   1.103   .     S
H1450  C957    1.110   1_565 S
H1451  C957    1.108   1_565 S
O1453  C1454   1.412   .     S
C1454  C1457   1.522   .     S
C1454  H1456   1.113   .     S
C1454  H1455   1.116   .     S
C1457  H1459   1.110   .     S
C1457  H1460   1.109   .     S
C1457  H1458   1.108   .     S
O1461  C1462   1.425   .     S
C1462  H1463   1.110   .     S
C1462  C1465   1.523   .     S
C1462  H1300   1.118   1_655 S
C1465  H1468   1.108   .     S
C1465  H1302   1.107   1_655 S
C1465  H1303   1.110   1_655 S
O1469  C1470   1.418   .     S
C1470  C1473   1.522   .     S
C1470  H1472   1.112   .     S
C1470  H1471   1.118   .     S
C1473  H1475   1.110   .     S
C1473  H1476   1.108   .     S
C1473  H1474   1.106   .     S
