data_str_m3_o1_o18_pcu_sym.142
_audit_creation_date              2020-01-03
_audit_creation_method            'Materials Studio'
_symmetry_space_group_name_H-M    'P1'
_symmetry_Int_Tables_number       1
_symmetry_cell_setting            triclinic
loop_
_symmetry_equiv_pos_as_xyz
  x,y,z
_cell_length_a                    29.5768
_cell_length_b                    31.9162
_cell_length_c                    31.0181
_cell_angle_alpha                 90.0994
_cell_angle_beta                  67.8563
_cell_angle_gamma                 89.9133
loop_
_atom_site_label
_atom_site_type_symbol
_atom_site_fract_x
_atom_site_fract_y
_atom_site_fract_z
_atom_site_U_iso_or_equiv
_atom_site_adp_type
_atom_site_occupancy
C1     C     0.16714   0.24655   0.24875   0.00000  Uiso   1.00
C2     C     0.16619   0.08679   0.25126   0.00000  Uiso   1.00
C3     C     0.10511   0.15959   0.05399   0.00000  Uiso   1.00
C4     C     0.21442   0.12214   0.45471   0.00000  Uiso   1.00
C5     C     0.07117   0.16465   0.03339   0.00000  Uiso   1.00
C6     C     0.24819   0.11704   0.47564   0.00000  Uiso   1.00
C7     C     0.20529   0.31272   0.21405   0.00000  Uiso   1.00
C8     C     0.12806   0.02065   0.28599   0.00000  Uiso   1.00
C9     C     0.20427   0.02256   0.21692   0.00000  Uiso   1.00
C10    C     0.12905   0.31080   0.28309   0.00000  Uiso   1.00
C11    C     0.16604   0.04264   0.25208   0.00000  Uiso   1.00
C12    C     0.16729   0.29071   0.24794   0.00000  Uiso   1.00
C13    C     0.32164   0.14256   0.21903   0.00000  Uiso   1.00
C14    C     0.01171   0.19079   0.28094   0.00000  Uiso   1.00
C15    C     0.03621   0.14255   0.21906   0.00000  Uiso   1.00
C16    C     0.29714   0.19081   0.28090   0.00000  Uiso   1.00
C17    C     0.13618   0.16599   0.33798   0.00000  Uiso   1.00
C18    C     0.19712   0.16617   0.16200   0.00000  Uiso   1.00
C19    C     0.11695   0.16251   0.38854   0.00000  Uiso   1.00
C20    C     0.21532   0.15941   0.11186   0.00000  Uiso   1.00
C21    C     0.05274   0.17151   0.46412   0.00000  Uiso   1.00
C22    C     0.27187   0.12697   0.04180   0.00000  Uiso   1.00
C23    C     0.06827   0.17189   0.41579   0.00000  Uiso   1.00
C24    C     0.26057   0.14050   0.08751   0.00000  Uiso   1.00
C25    C     0.14901   0.15030   0.40957   0.00000  Uiso   1.00
C26    C     0.18239   0.16557   0.09015   0.00000  Uiso   1.00
C27    C     0.13429   0.14931   0.45790   0.00000  Uiso   1.00
C28    C     0.19084   0.14864   0.04637   0.00000  Uiso   1.00
C29    C     0.08571   0.16142   0.48533   0.00000  Uiso   1.00
C30    C     0.23726   0.13090   0.02104   0.00000  Uiso   1.00
C31    C     0.16786   0.14011   0.47933   0.00000  Uiso   1.00
C32    C     0.15450   0.14978   0.02701   0.00000  Uiso   1.00
H33    H     0.03390   0.17288   0.05498   0.00000  Uiso   1.00
H34    H     0.28330   0.10289   0.45590   0.00000  Uiso   1.00
H35    H     0.14957   0.18318   0.10862   0.00000  Uiso   1.00
H36    H     0.18638   0.14399   0.38747   0.00000  Uiso   1.00
H37    H     0.28626   0.13495   0.10419   0.00000  Uiso   1.00
H38    H     0.04288   0.18100   0.39984   0.00000  Uiso   1.00
H39    H     0.01557   0.18070   0.48480   0.00000  Uiso   1.00
H40    H     0.30698   0.11238   0.02319   0.00000  Uiso   1.00
H41    H     0.09142   0.16259   0.09140   0.00000  Uiso   1.00
H42    H     0.22516   0.11036   0.41964   0.00000  Uiso   1.00
H43    H     0.06412   0.12323   0.19430   0.00000  Uiso   1.00
H44    H     0.26925   0.21017   0.30562   0.00000  Uiso   1.00
N45    N     0.04759   0.16668   0.25001   0.00000  Uiso   1.00
N46    N     0.28574   0.16666   0.24999   0.00000  Uiso   1.00
O47    O     0.12846   0.22775   0.25001   0.00000  Uiso   1.00
O48    O     0.20488   0.10558   0.25000   0.00000  Uiso   1.00
O49    O     0.20490   0.22774   0.25000   0.00000  Uiso   1.00
O50    O     0.12843   0.10559   0.25000   0.00000  Uiso   1.00
O51    O     0.10661   0.16667   0.31613   0.00000  Uiso   1.00
O52    O     0.22672   0.16666   0.18388   0.00000  Uiso   1.00
O53    O     0.18305   0.16666   0.31612   0.00000  Uiso   1.00
O54    O     0.15028   0.16667   0.18388   0.00000  Uiso   1.00
Zn55   Zn    0.11562   0.16667   0.25000   0.00000  Uiso   1.00
Zn56   Zn    0.21771   0.16666   0.25000   0.00000  Uiso   1.00
C57    C     0.24453   0.29143   0.17485   0.00000  Uiso   1.00
H58    H     0.24267   0.25815   0.16869   0.00000  Uiso   1.00
O59    O     0.27942   0.31101   0.14849   0.00000  Uiso   1.00
C60    C     0.08889   0.04195   0.32524   0.00000  Uiso   1.00
H61    H     0.09083   0.07522   0.33144   0.00000  Uiso   1.00
O62    O     0.05396   0.02240   0.35160   0.00000  Uiso   1.00
H63    H     0.23244   0.04088   0.19108   0.00000  Uiso   1.00
H64    H     0.10087   0.29248   0.30893   0.00000  Uiso   1.00
H65    H     0.31333   0.12329   0.19426   0.00000  Uiso   1.00
H66    H     0.02003   0.21009   0.30568   0.00000  Uiso   1.00
C67    C     0.50047   0.24655   0.24875   0.00000  Uiso   1.00
C68    C     0.49953   0.08679   0.25126   0.00000  Uiso   1.00
C69    C     0.43845   0.15959   0.05399   0.00000  Uiso   1.00
C70    C     0.54775   0.12214   0.45471   0.00000  Uiso   1.00
C71    C     0.40450   0.16465   0.03339   0.00000  Uiso   1.00
C72    C     0.58152   0.11704   0.47564   0.00000  Uiso   1.00
C73    C     0.53862   0.31272   0.21405   0.00000  Uiso   1.00
C74    C     0.46139   0.02065   0.28599   0.00000  Uiso   1.00
C75    C     0.53760   0.02256   0.21692   0.00000  Uiso   1.00
C76    C     0.46239   0.31080   0.28309   0.00000  Uiso   1.00
C77    C     0.49937   0.04264   0.25208   0.00000  Uiso   1.00
C78    C     0.50062   0.29071   0.24794   0.00000  Uiso   1.00
C79    C     0.65497   0.14256   0.21903   0.00000  Uiso   1.00
C80    C     0.34504   0.19079   0.28094   0.00000  Uiso   1.00
C81    C     0.36954   0.14255   0.21906   0.00000  Uiso   1.00
C82    C     0.63047   0.19081   0.28090   0.00000  Uiso   1.00
C83    C     0.46951   0.16599   0.33798   0.00000  Uiso   1.00
C84    C     0.53045   0.16617   0.16200   0.00000  Uiso   1.00
C85    C     0.45029   0.16251   0.38854   0.00000  Uiso   1.00
C86    C     0.54865   0.15941   0.11186   0.00000  Uiso   1.00
C87    C     0.38608   0.17151   0.46412   0.00000  Uiso   1.00
C88    C     0.60521   0.12697   0.04180   0.00000  Uiso   1.00
C89    C     0.40161   0.17189   0.41579   0.00000  Uiso   1.00
C90    C     0.59390   0.14050   0.08751   0.00000  Uiso   1.00
C91    C     0.48235   0.15030   0.40957   0.00000  Uiso   1.00
C92    C     0.51573   0.16557   0.09015   0.00000  Uiso   1.00
C93    C     0.46762   0.14931   0.45790   0.00000  Uiso   1.00
C94    C     0.52418   0.14864   0.04637   0.00000  Uiso   1.00
C95    C     0.41904   0.16142   0.48533   0.00000  Uiso   1.00
C96    C     0.57059   0.13090   0.02104   0.00000  Uiso   1.00
C97    C     0.50120   0.14011   0.47933   0.00000  Uiso   1.00
C98    C     0.48783   0.14978   0.02701   0.00000  Uiso   1.00
H99    H     0.36723   0.17288   0.05498   0.00000  Uiso   1.00
H100   H     0.61663   0.10289   0.45590   0.00000  Uiso   1.00
H101   H     0.48291   0.18318   0.10862   0.00000  Uiso   1.00
H102   H     0.51971   0.14399   0.38747   0.00000  Uiso   1.00
H103   H     0.61960   0.13495   0.10419   0.00000  Uiso   1.00
H104   H     0.37622   0.18100   0.39984   0.00000  Uiso   1.00
H105   H     0.34891   0.18070   0.48480   0.00000  Uiso   1.00
H106   H     0.64032   0.11238   0.02319   0.00000  Uiso   1.00
H107   H     0.42475   0.16259   0.09140   0.00000  Uiso   1.00
H108   H     0.55850   0.11036   0.41964   0.00000  Uiso   1.00
H109   H     0.39745   0.12323   0.19430   0.00000  Uiso   1.00
H110   H     0.60258   0.21017   0.30562   0.00000  Uiso   1.00
N111   N     0.38093   0.16668   0.25001   0.00000  Uiso   1.00
N112   N     0.61907   0.16666   0.24999   0.00000  Uiso   1.00
O113   O     0.46179   0.22775   0.25001   0.00000  Uiso   1.00
O114   O     0.53821   0.10558   0.25000   0.00000  Uiso   1.00
O115   O     0.53823   0.22774   0.25000   0.00000  Uiso   1.00
O116   O     0.46177   0.10559   0.25000   0.00000  Uiso   1.00
O117   O     0.43994   0.16667   0.31613   0.00000  Uiso   1.00
O118   O     0.56006   0.16666   0.18388   0.00000  Uiso   1.00
O119   O     0.51639   0.16666   0.31612   0.00000  Uiso   1.00
O120   O     0.48361   0.16667   0.18388   0.00000  Uiso   1.00
Zn121  Zn    0.44896   0.16667   0.25000   0.00000  Uiso   1.00
Zn122  Zn    0.55104   0.16666   0.25000   0.00000  Uiso   1.00
C123   C     0.57786   0.29143   0.17485   0.00000  Uiso   1.00
H124   H     0.57601   0.25815   0.16869   0.00000  Uiso   1.00
O125   O     0.61275   0.31101   0.14849   0.00000  Uiso   1.00
C126   C     0.42223   0.04195   0.32524   0.00000  Uiso   1.00
H127   H     0.42416   0.07522   0.33144   0.00000  Uiso   1.00
O128   O     0.38730   0.02240   0.35160   0.00000  Uiso   1.00
H129   H     0.56577   0.04088   0.19108   0.00000  Uiso   1.00
H130   H     0.43421   0.29248   0.30893   0.00000  Uiso   1.00
H131   H     0.64666   0.12329   0.19426   0.00000  Uiso   1.00
H132   H     0.35336   0.21009   0.30568   0.00000  Uiso   1.00
C133   C     0.83380   0.24655   0.24875   0.00000  Uiso   1.00
C134   C     0.83286   0.08679   0.25126   0.00000  Uiso   1.00
C135   C     0.77178   0.15959   0.05399   0.00000  Uiso   1.00
C136   C     0.88109   0.12214   0.45471   0.00000  Uiso   1.00
C137   C     0.73783   0.16465   0.03339   0.00000  Uiso   1.00
C138   C     0.91486   0.11704   0.47564   0.00000  Uiso   1.00
C139   C     0.87196   0.31272   0.21405   0.00000  Uiso   1.00
C140   C     0.79473   0.02065   0.28599   0.00000  Uiso   1.00
C141   C     0.87094   0.02256   0.21692   0.00000  Uiso   1.00
C142   C     0.79572   0.31080   0.28309   0.00000  Uiso   1.00
C143   C     0.83271   0.04264   0.25208   0.00000  Uiso   1.00
C144   C     0.83396   0.29071   0.24794   0.00000  Uiso   1.00
C145   C     0.98830   0.14256   0.21903   0.00000  Uiso   1.00
C146   C     0.67838   0.19079   0.28094   0.00000  Uiso   1.00
C147   C     0.70288   0.14255   0.21906   0.00000  Uiso   1.00
C148   C     0.96381   0.19081   0.28090   0.00000  Uiso   1.00
C149   C     0.80284   0.16599   0.33798   0.00000  Uiso   1.00
C150   C     0.86379   0.16617   0.16200   0.00000  Uiso   1.00
C151   C     0.78362   0.16251   0.38854   0.00000  Uiso   1.00
C152   C     0.88199   0.15941   0.11186   0.00000  Uiso   1.00
C153   C     0.71941   0.17151   0.46412   0.00000  Uiso   1.00
C154   C     0.93854   0.12697   0.04180   0.00000  Uiso   1.00
C155   C     0.73494   0.17189   0.41579   0.00000  Uiso   1.00
C156   C     0.92724   0.14050   0.08751   0.00000  Uiso   1.00
C157   C     0.81568   0.15030   0.40957   0.00000  Uiso   1.00
C158   C     0.84906   0.16557   0.09015   0.00000  Uiso   1.00
C159   C     0.80096   0.14931   0.45790   0.00000  Uiso   1.00
C160   C     0.85751   0.14864   0.04637   0.00000  Uiso   1.00
C161   C     0.75238   0.16142   0.48533   0.00000  Uiso   1.00
C162   C     0.90393   0.13090   0.02104   0.00000  Uiso   1.00
C163   C     0.83453   0.14011   0.47933   0.00000  Uiso   1.00
C164   C     0.82117   0.14978   0.02701   0.00000  Uiso   1.00
H165   H     0.70057   0.17288   0.05498   0.00000  Uiso   1.00
H166   H     0.94997   0.10289   0.45590   0.00000  Uiso   1.00
H167   H     0.81624   0.18318   0.10862   0.00000  Uiso   1.00
H168   H     0.85305   0.14399   0.38747   0.00000  Uiso   1.00
H169   H     0.95293   0.13495   0.10419   0.00000  Uiso   1.00
H170   H     0.70955   0.18100   0.39984   0.00000  Uiso   1.00
H171   H     0.68224   0.18070   0.48480   0.00000  Uiso   1.00
H172   H     0.97365   0.11238   0.02319   0.00000  Uiso   1.00
H173   H     0.75808   0.16259   0.09140   0.00000  Uiso   1.00
H174   H     0.89183   0.11036   0.41964   0.00000  Uiso   1.00
H175   H     0.73078   0.12323   0.19430   0.00000  Uiso   1.00
H176   H     0.93592   0.21017   0.30562   0.00000  Uiso   1.00
N177   N     0.71426   0.16668   0.25001   0.00000  Uiso   1.00
N178   N     0.95241   0.16666   0.24999   0.00000  Uiso   1.00
O179   O     0.79512   0.22775   0.25001   0.00000  Uiso   1.00
O180   O     0.87154   0.10558   0.25000   0.00000  Uiso   1.00
O181   O     0.87157   0.22774   0.25000   0.00000  Uiso   1.00
O182   O     0.79510   0.10559   0.25000   0.00000  Uiso   1.00
O183   O     0.77328   0.16667   0.31613   0.00000  Uiso   1.00
O184   O     0.89339   0.16666   0.18388   0.00000  Uiso   1.00
O185   O     0.84972   0.16666   0.31612   0.00000  Uiso   1.00
O186   O     0.81695   0.16667   0.18388   0.00000  Uiso   1.00
Zn187  Zn    0.78229   0.16667   0.25000   0.00000  Uiso   1.00
Zn188  Zn    0.88438   0.16666   0.25000   0.00000  Uiso   1.00
C189   C     0.91119   0.29143   0.17485   0.00000  Uiso   1.00
H190   H     0.90934   0.25815   0.16869   0.00000  Uiso   1.00
O191   O     0.94609   0.31101   0.14849   0.00000  Uiso   1.00
C192   C     0.75556   0.04195   0.32524   0.00000  Uiso   1.00
H193   H     0.75750   0.07522   0.33144   0.00000  Uiso   1.00
O194   O     0.72063   0.02240   0.35160   0.00000  Uiso   1.00
H195   H     0.89910   0.04088   0.19108   0.00000  Uiso   1.00
H196   H     0.76754   0.29248   0.30893   0.00000  Uiso   1.00
H197   H     0.98000   0.12329   0.19426   0.00000  Uiso   1.00
H198   H     0.68670   0.21009   0.30568   0.00000  Uiso   1.00
C199   C     0.16714   0.57989   0.24875   0.00000  Uiso   1.00
C200   C     0.16619   0.42012   0.25126   0.00000  Uiso   1.00
C201   C     0.10511   0.49293   0.05399   0.00000  Uiso   1.00
C202   C     0.21442   0.45547   0.45471   0.00000  Uiso   1.00
C203   C     0.07117   0.49798   0.03339   0.00000  Uiso   1.00
C204   C     0.24819   0.45037   0.47564   0.00000  Uiso   1.00
C205   C     0.20529   0.64605   0.21405   0.00000  Uiso   1.00
C206   C     0.12806   0.35398   0.28599   0.00000  Uiso   1.00
C207   C     0.20427   0.35589   0.21692   0.00000  Uiso   1.00
C208   C     0.12905   0.64413   0.28309   0.00000  Uiso   1.00
C209   C     0.16604   0.37597   0.25208   0.00000  Uiso   1.00
C210   C     0.16729   0.62405   0.24794   0.00000  Uiso   1.00
C211   C     0.32164   0.47590   0.21903   0.00000  Uiso   1.00
C212   C     0.01171   0.52413   0.28094   0.00000  Uiso   1.00
C213   C     0.03621   0.47588   0.21906   0.00000  Uiso   1.00
C214   C     0.29714   0.52414   0.28090   0.00000  Uiso   1.00
C215   C     0.13618   0.49932   0.33798   0.00000  Uiso   1.00
C216   C     0.19712   0.49950   0.16200   0.00000  Uiso   1.00
C217   C     0.11695   0.49585   0.38854   0.00000  Uiso   1.00
C218   C     0.21532   0.49274   0.11186   0.00000  Uiso   1.00
C219   C     0.05274   0.50484   0.46412   0.00000  Uiso   1.00
C220   C     0.27187   0.46031   0.04180   0.00000  Uiso   1.00
C221   C     0.06827   0.50523   0.41579   0.00000  Uiso   1.00
C222   C     0.26057   0.47383   0.08751   0.00000  Uiso   1.00
C223   C     0.14901   0.48363   0.40957   0.00000  Uiso   1.00
C224   C     0.18239   0.49891   0.09015   0.00000  Uiso   1.00
C225   C     0.13429   0.48265   0.45790   0.00000  Uiso   1.00
C226   C     0.19084   0.48198   0.04637   0.00000  Uiso   1.00
C227   C     0.08571   0.49476   0.48533   0.00000  Uiso   1.00
C228   C     0.23726   0.46423   0.02104   0.00000  Uiso   1.00
C229   C     0.16786   0.47344   0.47933   0.00000  Uiso   1.00
C230   C     0.15450   0.48311   0.02701   0.00000  Uiso   1.00
H231   H     0.03390   0.50621   0.05498   0.00000  Uiso   1.00
H232   H     0.28330   0.43623   0.45590   0.00000  Uiso   1.00
H233   H     0.14957   0.51651   0.10862   0.00000  Uiso   1.00
H234   H     0.18638   0.47732   0.38747   0.00000  Uiso   1.00
H235   H     0.28626   0.46829   0.10419   0.00000  Uiso   1.00
H236   H     0.04288   0.51433   0.39984   0.00000  Uiso   1.00
H237   H     0.01557   0.51403   0.48480   0.00000  Uiso   1.00
H238   H     0.30698   0.44572   0.02319   0.00000  Uiso   1.00
H239   H     0.09142   0.49592   0.09140   0.00000  Uiso   1.00
H240   H     0.22516   0.44369   0.41964   0.00000  Uiso   1.00
H241   H     0.06412   0.45657   0.19430   0.00000  Uiso   1.00
H242   H     0.26925   0.54350   0.30562   0.00000  Uiso   1.00
N243   N     0.04759   0.50001   0.25001   0.00000  Uiso   1.00
N244   N     0.28574   0.49999   0.24999   0.00000  Uiso   1.00
O245   O     0.12846   0.56108   0.25001   0.00000  Uiso   1.00
O246   O     0.20488   0.43892   0.25000   0.00000  Uiso   1.00
O247   O     0.20490   0.56107   0.25000   0.00000  Uiso   1.00
O248   O     0.12843   0.43893   0.25000   0.00000  Uiso   1.00
O249   O     0.10661   0.50001   0.31613   0.00000  Uiso   1.00
O250   O     0.22672   0.49999   0.18388   0.00000  Uiso   1.00
O251   O     0.18305   0.50000   0.31612   0.00000  Uiso   1.00
O252   O     0.15028   0.50000   0.18388   0.00000  Uiso   1.00
Zn253  Zn    0.11562   0.50001   0.25000   0.00000  Uiso   1.00
Zn254  Zn    0.21771   0.49999   0.25000   0.00000  Uiso   1.00
C255   C     0.24453   0.62476   0.17485   0.00000  Uiso   1.00
H256   H     0.24267   0.59148   0.16869   0.00000  Uiso   1.00
O257   O     0.27942   0.64435   0.14849   0.00000  Uiso   1.00
C258   C     0.08889   0.37529   0.32524   0.00000  Uiso   1.00
H259   H     0.09083   0.40855   0.33144   0.00000  Uiso   1.00
O260   O     0.05396   0.35574   0.35160   0.00000  Uiso   1.00
H261   H     0.23244   0.37422   0.19108   0.00000  Uiso   1.00
H262   H     0.10087   0.62582   0.30893   0.00000  Uiso   1.00
H263   H     0.31333   0.45662   0.19426   0.00000  Uiso   1.00
H264   H     0.02003   0.54343   0.30568   0.00000  Uiso   1.00
C265   C     0.50047   0.57989   0.24875   0.00000  Uiso   1.00
C266   C     0.49953   0.42012   0.25126   0.00000  Uiso   1.00
C267   C     0.43845   0.49293   0.05399   0.00000  Uiso   1.00
C268   C     0.54775   0.45547   0.45471   0.00000  Uiso   1.00
C269   C     0.40450   0.49798   0.03339   0.00000  Uiso   1.00
C270   C     0.58152   0.45037   0.47564   0.00000  Uiso   1.00
C271   C     0.53862   0.64605   0.21405   0.00000  Uiso   1.00
C272   C     0.46139   0.35398   0.28599   0.00000  Uiso   1.00
C273   C     0.53760   0.35589   0.21692   0.00000  Uiso   1.00
C274   C     0.46239   0.64413   0.28309   0.00000  Uiso   1.00
C275   C     0.49937   0.37597   0.25208   0.00000  Uiso   1.00
C276   C     0.50062   0.62405   0.24794   0.00000  Uiso   1.00
C277   C     0.65497   0.47590   0.21903   0.00000  Uiso   1.00
C278   C     0.34504   0.52413   0.28094   0.00000  Uiso   1.00
C279   C     0.36954   0.47588   0.21906   0.00000  Uiso   1.00
C280   C     0.63047   0.52414   0.28090   0.00000  Uiso   1.00
C281   C     0.46951   0.49932   0.33798   0.00000  Uiso   1.00
C282   C     0.53045   0.49950   0.16200   0.00000  Uiso   1.00
C283   C     0.45029   0.49585   0.38854   0.00000  Uiso   1.00
C284   C     0.54865   0.49274   0.11186   0.00000  Uiso   1.00
C285   C     0.38608   0.50484   0.46412   0.00000  Uiso   1.00
C286   C     0.60521   0.46031   0.04180   0.00000  Uiso   1.00
C287   C     0.40161   0.50523   0.41579   0.00000  Uiso   1.00
C288   C     0.59390   0.47383   0.08751   0.00000  Uiso   1.00
C289   C     0.48235   0.48363   0.40957   0.00000  Uiso   1.00
C290   C     0.51573   0.49891   0.09015   0.00000  Uiso   1.00
C291   C     0.46762   0.48265   0.45790   0.00000  Uiso   1.00
C292   C     0.52418   0.48198   0.04637   0.00000  Uiso   1.00
C293   C     0.41904   0.49476   0.48533   0.00000  Uiso   1.00
C294   C     0.57059   0.46423   0.02104   0.00000  Uiso   1.00
C295   C     0.50120   0.47344   0.47933   0.00000  Uiso   1.00
C296   C     0.48783   0.48311   0.02701   0.00000  Uiso   1.00
H297   H     0.36723   0.50621   0.05498   0.00000  Uiso   1.00
H298   H     0.61663   0.43623   0.45590   0.00000  Uiso   1.00
H299   H     0.48291   0.51651   0.10862   0.00000  Uiso   1.00
H300   H     0.51971   0.47732   0.38747   0.00000  Uiso   1.00
H301   H     0.61960   0.46829   0.10419   0.00000  Uiso   1.00
H302   H     0.37622   0.51433   0.39984   0.00000  Uiso   1.00
H303   H     0.34891   0.51403   0.48480   0.00000  Uiso   1.00
H304   H     0.64032   0.44572   0.02319   0.00000  Uiso   1.00
H305   H     0.42475   0.49592   0.09140   0.00000  Uiso   1.00
H306   H     0.55850   0.44369   0.41964   0.00000  Uiso   1.00
H307   H     0.39745   0.45657   0.19430   0.00000  Uiso   1.00
H308   H     0.60258   0.54350   0.30562   0.00000  Uiso   1.00
N309   N     0.38093   0.50001   0.25001   0.00000  Uiso   1.00
N310   N     0.61907   0.49999   0.24999   0.00000  Uiso   1.00
O311   O     0.46179   0.56108   0.25001   0.00000  Uiso   1.00
O312   O     0.53821   0.43892   0.25000   0.00000  Uiso   1.00
O313   O     0.53823   0.56107   0.25000   0.00000  Uiso   1.00
O314   O     0.46177   0.43893   0.25000   0.00000  Uiso   1.00
O315   O     0.43994   0.50001   0.31613   0.00000  Uiso   1.00
O316   O     0.56006   0.49999   0.18388   0.00000  Uiso   1.00
O317   O     0.51639   0.50000   0.31612   0.00000  Uiso   1.00
O318   O     0.48361   0.50000   0.18388   0.00000  Uiso   1.00
Zn319  Zn    0.44896   0.50001   0.25000   0.00000  Uiso   1.00
Zn320  Zn    0.55104   0.49999   0.25000   0.00000  Uiso   1.00
C321   C     0.57786   0.62476   0.17485   0.00000  Uiso   1.00
H322   H     0.57601   0.59148   0.16869   0.00000  Uiso   1.00
O323   O     0.61275   0.64435   0.14849   0.00000  Uiso   1.00
C324   C     0.42223   0.37529   0.32524   0.00000  Uiso   1.00
H325   H     0.42416   0.40855   0.33144   0.00000  Uiso   1.00
O326   O     0.38730   0.35574   0.35160   0.00000  Uiso   1.00
H327   H     0.56577   0.37422   0.19108   0.00000  Uiso   1.00
H328   H     0.43421   0.62582   0.30893   0.00000  Uiso   1.00
H329   H     0.64666   0.45662   0.19426   0.00000  Uiso   1.00
H330   H     0.35336   0.54343   0.30568   0.00000  Uiso   1.00
C331   C     0.83380   0.57989   0.24875   0.00000  Uiso   1.00
C332   C     0.83286   0.42012   0.25126   0.00000  Uiso   1.00
C333   C     0.77178   0.49293   0.05399   0.00000  Uiso   1.00
C334   C     0.88109   0.45547   0.45471   0.00000  Uiso   1.00
C335   C     0.73783   0.49798   0.03339   0.00000  Uiso   1.00
C336   C     0.91486   0.45037   0.47564   0.00000  Uiso   1.00
C337   C     0.87196   0.64605   0.21405   0.00000  Uiso   1.00
C338   C     0.79473   0.35398   0.28599   0.00000  Uiso   1.00
C339   C     0.87094   0.35589   0.21692   0.00000  Uiso   1.00
C340   C     0.79572   0.64413   0.28309   0.00000  Uiso   1.00
C341   C     0.83271   0.37597   0.25208   0.00000  Uiso   1.00
C342   C     0.83396   0.62405   0.24794   0.00000  Uiso   1.00
C343   C     0.98830   0.47590   0.21903   0.00000  Uiso   1.00
C344   C     0.67838   0.52413   0.28094   0.00000  Uiso   1.00
C345   C     0.70288   0.47588   0.21906   0.00000  Uiso   1.00
C346   C     0.96381   0.52414   0.28090   0.00000  Uiso   1.00
C347   C     0.80284   0.49932   0.33798   0.00000  Uiso   1.00
C348   C     0.86379   0.49950   0.16200   0.00000  Uiso   1.00
C349   C     0.78362   0.49585   0.38854   0.00000  Uiso   1.00
C350   C     0.88199   0.49274   0.11186   0.00000  Uiso   1.00
C351   C     0.71941   0.50484   0.46412   0.00000  Uiso   1.00
C352   C     0.93854   0.46031   0.04180   0.00000  Uiso   1.00
C353   C     0.73494   0.50523   0.41579   0.00000  Uiso   1.00
C354   C     0.92724   0.47383   0.08751   0.00000  Uiso   1.00
C355   C     0.81568   0.48363   0.40957   0.00000  Uiso   1.00
C356   C     0.84906   0.49891   0.09015   0.00000  Uiso   1.00
C357   C     0.80096   0.48265   0.45790   0.00000  Uiso   1.00
C358   C     0.85751   0.48198   0.04637   0.00000  Uiso   1.00
C359   C     0.75238   0.49476   0.48533   0.00000  Uiso   1.00
C360   C     0.90393   0.46423   0.02104   0.00000  Uiso   1.00
C361   C     0.83453   0.47344   0.47933   0.00000  Uiso   1.00
C362   C     0.82117   0.48311   0.02701   0.00000  Uiso   1.00
H363   H     0.70057   0.50621   0.05498   0.00000  Uiso   1.00
H364   H     0.94997   0.43623   0.45590   0.00000  Uiso   1.00
H365   H     0.81624   0.51651   0.10862   0.00000  Uiso   1.00
H366   H     0.85305   0.47732   0.38747   0.00000  Uiso   1.00
H367   H     0.95293   0.46829   0.10419   0.00000  Uiso   1.00
H368   H     0.70955   0.51433   0.39984   0.00000  Uiso   1.00
H369   H     0.68224   0.51403   0.48480   0.00000  Uiso   1.00
H370   H     0.97365   0.44572   0.02319   0.00000  Uiso   1.00
H371   H     0.75808   0.49592   0.09140   0.00000  Uiso   1.00
H372   H     0.89183   0.44369   0.41964   0.00000  Uiso   1.00
H373   H     0.73078   0.45657   0.19430   0.00000  Uiso   1.00
H374   H     0.93592   0.54350   0.30562   0.00000  Uiso   1.00
N375   N     0.71426   0.50001   0.25001   0.00000  Uiso   1.00
N376   N     0.95241   0.49999   0.24999   0.00000  Uiso   1.00
O377   O     0.79512   0.56108   0.25001   0.00000  Uiso   1.00
O378   O     0.87154   0.43892   0.25000   0.00000  Uiso   1.00
O379   O     0.87157   0.56107   0.25000   0.00000  Uiso   1.00
O380   O     0.79510   0.43893   0.25000   0.00000  Uiso   1.00
O381   O     0.77328   0.50001   0.31613   0.00000  Uiso   1.00
O382   O     0.89339   0.49999   0.18388   0.00000  Uiso   1.00
O383   O     0.84972   0.50000   0.31612   0.00000  Uiso   1.00
O384   O     0.81695   0.50000   0.18388   0.00000  Uiso   1.00
Zn385  Zn    0.78229   0.50001   0.25000   0.00000  Uiso   1.00
Zn386  Zn    0.88438   0.49999   0.25000   0.00000  Uiso   1.00
C387   C     0.91119   0.62476   0.17485   0.00000  Uiso   1.00
H388   H     0.90934   0.59148   0.16869   0.00000  Uiso   1.00
O389   O     0.94609   0.64435   0.14849   0.00000  Uiso   1.00
C390   C     0.75556   0.37529   0.32524   0.00000  Uiso   1.00
H391   H     0.75750   0.40855   0.33144   0.00000  Uiso   1.00
O392   O     0.72063   0.35574   0.35160   0.00000  Uiso   1.00
H393   H     0.89910   0.37422   0.19108   0.00000  Uiso   1.00
H394   H     0.76754   0.62582   0.30893   0.00000  Uiso   1.00
H395   H     0.98000   0.45662   0.19426   0.00000  Uiso   1.00
H396   H     0.68670   0.54343   0.30568   0.00000  Uiso   1.00
C397   C     0.16714   0.91322   0.24875   0.00000  Uiso   1.00
C398   C     0.16619   0.75345   0.25126   0.00000  Uiso   1.00
C399   C     0.10511   0.82626   0.05399   0.00000  Uiso   1.00
C400   C     0.21442   0.78881   0.45471   0.00000  Uiso   1.00
C401   C     0.07117   0.83131   0.03339   0.00000  Uiso   1.00
C402   C     0.24819   0.78371   0.47564   0.00000  Uiso   1.00
C403   C     0.20529   0.97938   0.21405   0.00000  Uiso   1.00
C404   C     0.12806   0.68731   0.28599   0.00000  Uiso   1.00
C405   C     0.20427   0.68923   0.21692   0.00000  Uiso   1.00
C406   C     0.12905   0.97747   0.28309   0.00000  Uiso   1.00
C407   C     0.16604   0.70931   0.25208   0.00000  Uiso   1.00
C408   C     0.16729   0.95738   0.24794   0.00000  Uiso   1.00
C409   C     0.32164   0.80923   0.21903   0.00000  Uiso   1.00
C410   C     0.01171   0.85746   0.28094   0.00000  Uiso   1.00
C411   C     0.03621   0.80922   0.21906   0.00000  Uiso   1.00
C412   C     0.29714   0.85748   0.28090   0.00000  Uiso   1.00
C413   C     0.13618   0.83265   0.33798   0.00000  Uiso   1.00
C414   C     0.19712   0.83283   0.16200   0.00000  Uiso   1.00
C415   C     0.11695   0.82918   0.38854   0.00000  Uiso   1.00
C416   C     0.21532   0.82607   0.11186   0.00000  Uiso   1.00
C417   C     0.05274   0.83817   0.46412   0.00000  Uiso   1.00
C418   C     0.27187   0.79364   0.04180   0.00000  Uiso   1.00
C419   C     0.06827   0.83856   0.41579   0.00000  Uiso   1.00
C420   C     0.26057   0.80717   0.08751   0.00000  Uiso   1.00
C421   C     0.14901   0.81697   0.40957   0.00000  Uiso   1.00
C422   C     0.18239   0.83224   0.09015   0.00000  Uiso   1.00
C423   C     0.13429   0.81598   0.45790   0.00000  Uiso   1.00
C424   C     0.19084   0.81531   0.04637   0.00000  Uiso   1.00
C425   C     0.08571   0.82809   0.48533   0.00000  Uiso   1.00
C426   C     0.23726   0.79756   0.02104   0.00000  Uiso   1.00
C427   C     0.16786   0.80678   0.47933   0.00000  Uiso   1.00
C428   C     0.15450   0.81645   0.02701   0.00000  Uiso   1.00
H429   H     0.03390   0.83955   0.05498   0.00000  Uiso   1.00
H430   H     0.28330   0.76956   0.45590   0.00000  Uiso   1.00
H431   H     0.14957   0.84985   0.10862   0.00000  Uiso   1.00
H432   H     0.18638   0.81066   0.38747   0.00000  Uiso   1.00
H433   H     0.28626   0.80162   0.10419   0.00000  Uiso   1.00
H434   H     0.04288   0.84766   0.39984   0.00000  Uiso   1.00
H435   H     0.01557   0.84737   0.48480   0.00000  Uiso   1.00
H436   H     0.30698   0.77905   0.02319   0.00000  Uiso   1.00
H437   H     0.09142   0.82925   0.09140   0.00000  Uiso   1.00
H438   H     0.22516   0.77702   0.41964   0.00000  Uiso   1.00
H439   H     0.06412   0.78990   0.19430   0.00000  Uiso   1.00
H440   H     0.26925   0.87684   0.30562   0.00000  Uiso   1.00
N441   N     0.04759   0.83334   0.25001   0.00000  Uiso   1.00
N442   N     0.28574   0.83332   0.24999   0.00000  Uiso   1.00
O443   O     0.12846   0.89442   0.25001   0.00000  Uiso   1.00
O444   O     0.20488   0.77225   0.25000   0.00000  Uiso   1.00
O445   O     0.20490   0.89441   0.25000   0.00000  Uiso   1.00
O446   O     0.12843   0.77226   0.25000   0.00000  Uiso   1.00
O447   O     0.10661   0.83334   0.31613   0.00000  Uiso   1.00
O448   O     0.22672   0.83333   0.18388   0.00000  Uiso   1.00
O449   O     0.18305   0.83333   0.31612   0.00000  Uiso   1.00
O450   O     0.15028   0.83334   0.18388   0.00000  Uiso   1.00
Zn451  Zn    0.11562   0.83334   0.25000   0.00000  Uiso   1.00
Zn452  Zn    0.21771   0.83333   0.25000   0.00000  Uiso   1.00
C453   C     0.24453   0.95810   0.17485   0.00000  Uiso   1.00
H454   H     0.24267   0.92481   0.16869   0.00000  Uiso   1.00
O455   O     0.27942   0.97768   0.14849   0.00000  Uiso   1.00
C456   C     0.08889   0.70862   0.32524   0.00000  Uiso   1.00
H457   H     0.09083   0.74189   0.33144   0.00000  Uiso   1.00
O458   O     0.05396   0.68907   0.35160   0.00000  Uiso   1.00
H459   H     0.23244   0.70755   0.19108   0.00000  Uiso   1.00
H460   H     0.10087   0.95915   0.30893   0.00000  Uiso   1.00
H461   H     0.31333   0.78996   0.19426   0.00000  Uiso   1.00
H462   H     0.02003   0.87676   0.30568   0.00000  Uiso   1.00
C463   C     0.50047   0.91322   0.24875   0.00000  Uiso   1.00
C464   C     0.49953   0.75345   0.25126   0.00000  Uiso   1.00
C465   C     0.43845   0.82626   0.05399   0.00000  Uiso   1.00
C466   C     0.54775   0.78881   0.45471   0.00000  Uiso   1.00
C467   C     0.40450   0.83131   0.03339   0.00000  Uiso   1.00
C468   C     0.58152   0.78371   0.47564   0.00000  Uiso   1.00
C469   C     0.53862   0.97938   0.21405   0.00000  Uiso   1.00
C470   C     0.46139   0.68731   0.28599   0.00000  Uiso   1.00
C471   C     0.53760   0.68923   0.21692   0.00000  Uiso   1.00
C472   C     0.46239   0.97747   0.28309   0.00000  Uiso   1.00
C473   C     0.49937   0.70931   0.25208   0.00000  Uiso   1.00
C474   C     0.50062   0.95738   0.24794   0.00000  Uiso   1.00
C475   C     0.65497   0.80923   0.21903   0.00000  Uiso   1.00
C476   C     0.34504   0.85746   0.28094   0.00000  Uiso   1.00
C477   C     0.36954   0.80922   0.21906   0.00000  Uiso   1.00
C478   C     0.63047   0.85748   0.28090   0.00000  Uiso   1.00
C479   C     0.46951   0.83265   0.33798   0.00000  Uiso   1.00
C480   C     0.53045   0.83283   0.16200   0.00000  Uiso   1.00
C481   C     0.45029   0.82918   0.38854   0.00000  Uiso   1.00
C482   C     0.54865   0.82607   0.11186   0.00000  Uiso   1.00
C483   C     0.38608   0.83817   0.46412   0.00000  Uiso   1.00
C484   C     0.60521   0.79364   0.04180   0.00000  Uiso   1.00
C485   C     0.40161   0.83856   0.41579   0.00000  Uiso   1.00
C486   C     0.59390   0.80717   0.08751   0.00000  Uiso   1.00
C487   C     0.48235   0.81697   0.40957   0.00000  Uiso   1.00
C488   C     0.51573   0.83224   0.09015   0.00000  Uiso   1.00
C489   C     0.46762   0.81598   0.45790   0.00000  Uiso   1.00
C490   C     0.52418   0.81531   0.04637   0.00000  Uiso   1.00
C491   C     0.41904   0.82809   0.48533   0.00000  Uiso   1.00
C492   C     0.57059   0.79756   0.02104   0.00000  Uiso   1.00
C493   C     0.50120   0.80678   0.47933   0.00000  Uiso   1.00
C494   C     0.48783   0.81645   0.02701   0.00000  Uiso   1.00
H495   H     0.36723   0.83955   0.05498   0.00000  Uiso   1.00
H496   H     0.61663   0.76956   0.45590   0.00000  Uiso   1.00
H497   H     0.48291   0.84985   0.10862   0.00000  Uiso   1.00
H498   H     0.51971   0.81066   0.38747   0.00000  Uiso   1.00
H499   H     0.61960   0.80162   0.10419   0.00000  Uiso   1.00
H500   H     0.37622   0.84766   0.39984   0.00000  Uiso   1.00
H501   H     0.34891   0.84737   0.48480   0.00000  Uiso   1.00
H502   H     0.64032   0.77905   0.02319   0.00000  Uiso   1.00
H503   H     0.42475   0.82925   0.09140   0.00000  Uiso   1.00
H504   H     0.55850   0.77702   0.41964   0.00000  Uiso   1.00
H505   H     0.39745   0.78990   0.19430   0.00000  Uiso   1.00
H506   H     0.60258   0.87684   0.30562   0.00000  Uiso   1.00
N507   N     0.38093   0.83334   0.25001   0.00000  Uiso   1.00
N508   N     0.61907   0.83332   0.24999   0.00000  Uiso   1.00
O509   O     0.46179   0.89442   0.25001   0.00000  Uiso   1.00
O510   O     0.53821   0.77225   0.25000   0.00000  Uiso   1.00
O511   O     0.53823   0.89441   0.25000   0.00000  Uiso   1.00
O512   O     0.46177   0.77226   0.25000   0.00000  Uiso   1.00
O513   O     0.43994   0.83334   0.31613   0.00000  Uiso   1.00
O514   O     0.56006   0.83333   0.18388   0.00000  Uiso   1.00
O515   O     0.51639   0.83333   0.31612   0.00000  Uiso   1.00
O516   O     0.48361   0.83334   0.18388   0.00000  Uiso   1.00
Zn517  Zn    0.44896   0.83334   0.25000   0.00000  Uiso   1.00
Zn518  Zn    0.55104   0.83333   0.25000   0.00000  Uiso   1.00
C519   C     0.57786   0.95810   0.17485   0.00000  Uiso   1.00
H520   H     0.57601   0.92481   0.16869   0.00000  Uiso   1.00
O521   O     0.61275   0.97768   0.14849   0.00000  Uiso   1.00
C522   C     0.42223   0.70862   0.32524   0.00000  Uiso   1.00
H523   H     0.42416   0.74189   0.33144   0.00000  Uiso   1.00
O524   O     0.38730   0.68907   0.35160   0.00000  Uiso   1.00
H525   H     0.56577   0.70755   0.19108   0.00000  Uiso   1.00
H526   H     0.43421   0.95915   0.30893   0.00000  Uiso   1.00
H527   H     0.64666   0.78996   0.19426   0.00000  Uiso   1.00
H528   H     0.35336   0.87676   0.30568   0.00000  Uiso   1.00
C529   C     0.83380   0.91322   0.24875   0.00000  Uiso   1.00
C530   C     0.83286   0.75345   0.25126   0.00000  Uiso   1.00
C531   C     0.77178   0.82626   0.05399   0.00000  Uiso   1.00
C532   C     0.88109   0.78881   0.45471   0.00000  Uiso   1.00
C533   C     0.73783   0.83131   0.03339   0.00000  Uiso   1.00
C534   C     0.91486   0.78371   0.47564   0.00000  Uiso   1.00
C535   C     0.87196   0.97938   0.21405   0.00000  Uiso   1.00
C536   C     0.79473   0.68731   0.28599   0.00000  Uiso   1.00
C537   C     0.87094   0.68923   0.21692   0.00000  Uiso   1.00
C538   C     0.79572   0.97747   0.28309   0.00000  Uiso   1.00
C539   C     0.83271   0.70931   0.25208   0.00000  Uiso   1.00
C540   C     0.83396   0.95738   0.24794   0.00000  Uiso   1.00
C541   C     0.98830   0.80923   0.21903   0.00000  Uiso   1.00
C542   C     0.67838   0.85746   0.28094   0.00000  Uiso   1.00
C543   C     0.70288   0.80922   0.21906   0.00000  Uiso   1.00
C544   C     0.96381   0.85748   0.28090   0.00000  Uiso   1.00
C545   C     0.80284   0.83265   0.33798   0.00000  Uiso   1.00
C546   C     0.86379   0.83283   0.16200   0.00000  Uiso   1.00
C547   C     0.78362   0.82918   0.38854   0.00000  Uiso   1.00
C548   C     0.88199   0.82607   0.11186   0.00000  Uiso   1.00
C549   C     0.71941   0.83817   0.46412   0.00000  Uiso   1.00
C550   C     0.93854   0.79364   0.04180   0.00000  Uiso   1.00
C551   C     0.73494   0.83856   0.41579   0.00000  Uiso   1.00
C552   C     0.92724   0.80717   0.08751   0.00000  Uiso   1.00
C553   C     0.81568   0.81697   0.40957   0.00000  Uiso   1.00
C554   C     0.84906   0.83224   0.09015   0.00000  Uiso   1.00
C555   C     0.80096   0.81598   0.45790   0.00000  Uiso   1.00
C556   C     0.85751   0.81531   0.04637   0.00000  Uiso   1.00
C557   C     0.75238   0.82809   0.48533   0.00000  Uiso   1.00
C558   C     0.90393   0.79756   0.02104   0.00000  Uiso   1.00
C559   C     0.83453   0.80678   0.47933   0.00000  Uiso   1.00
C560   C     0.82117   0.81645   0.02701   0.00000  Uiso   1.00
H561   H     0.70057   0.83955   0.05498   0.00000  Uiso   1.00
H562   H     0.94997   0.76956   0.45590   0.00000  Uiso   1.00
H563   H     0.81624   0.84985   0.10862   0.00000  Uiso   1.00
H564   H     0.85305   0.81066   0.38747   0.00000  Uiso   1.00
H565   H     0.95293   0.80162   0.10419   0.00000  Uiso   1.00
H566   H     0.70955   0.84766   0.39984   0.00000  Uiso   1.00
H567   H     0.68224   0.84737   0.48480   0.00000  Uiso   1.00
H568   H     0.97365   0.77905   0.02319   0.00000  Uiso   1.00
H569   H     0.75808   0.82925   0.09140   0.00000  Uiso   1.00
H570   H     0.89183   0.77702   0.41964   0.00000  Uiso   1.00
H571   H     0.73078   0.78990   0.19430   0.00000  Uiso   1.00
H572   H     0.93592   0.87684   0.30562   0.00000  Uiso   1.00
N573   N     0.71426   0.83334   0.25001   0.00000  Uiso   1.00
N574   N     0.95241   0.83332   0.24999   0.00000  Uiso   1.00
O575   O     0.79512   0.89442   0.25001   0.00000  Uiso   1.00
O576   O     0.87154   0.77225   0.25000   0.00000  Uiso   1.00
O577   O     0.87157   0.89441   0.25000   0.00000  Uiso   1.00
O578   O     0.79510   0.77226   0.25000   0.00000  Uiso   1.00
O579   O     0.77328   0.83334   0.31613   0.00000  Uiso   1.00
O580   O     0.89339   0.83333   0.18388   0.00000  Uiso   1.00
O581   O     0.84972   0.83333   0.31612   0.00000  Uiso   1.00
O582   O     0.81695   0.83334   0.18388   0.00000  Uiso   1.00
Zn583  Zn    0.78229   0.83334   0.25000   0.00000  Uiso   1.00
Zn584  Zn    0.88438   0.83333   0.25000   0.00000  Uiso   1.00
C585   C     0.91119   0.95810   0.17485   0.00000  Uiso   1.00
H586   H     0.90934   0.92481   0.16869   0.00000  Uiso   1.00
O587   O     0.94609   0.97768   0.14849   0.00000  Uiso   1.00
C588   C     0.75556   0.70862   0.32524   0.00000  Uiso   1.00
H589   H     0.75750   0.74189   0.33144   0.00000  Uiso   1.00
O590   O     0.72063   0.68907   0.35160   0.00000  Uiso   1.00
H591   H     0.89910   0.70755   0.19108   0.00000  Uiso   1.00
H592   H     0.76754   0.95915   0.30893   0.00000  Uiso   1.00
H593   H     0.98000   0.78996   0.19426   0.00000  Uiso   1.00
H594   H     0.68670   0.87676   0.30568   0.00000  Uiso   1.00
C595   C     0.16714   0.24655   0.74875   0.00000  Uiso   1.00
C596   C     0.16619   0.08679   0.75126   0.00000  Uiso   1.00
C597   C     0.10511   0.15959   0.55399   0.00000  Uiso   1.00
C598   C     0.21442   0.12214   0.95471   0.00000  Uiso   1.00
C599   C     0.07117   0.16465   0.53339   0.00000  Uiso   1.00
C600   C     0.24819   0.11704   0.97564   0.00000  Uiso   1.00
C601   C     0.20529   0.31272   0.71405   0.00000  Uiso   1.00
C602   C     0.12806   0.02065   0.78599   0.00000  Uiso   1.00
C603   C     0.20427   0.02256   0.71692   0.00000  Uiso   1.00
C604   C     0.12905   0.31080   0.78309   0.00000  Uiso   1.00
C605   C     0.16604   0.04264   0.75208   0.00000  Uiso   1.00
C606   C     0.16729   0.29071   0.74794   0.00000  Uiso   1.00
C607   C     0.32164   0.14256   0.71903   0.00000  Uiso   1.00
C608   C     0.01171   0.19079   0.78094   0.00000  Uiso   1.00
C609   C     0.03621   0.14255   0.71906   0.00000  Uiso   1.00
C610   C     0.29714   0.19081   0.78090   0.00000  Uiso   1.00
C611   C     0.13618   0.16599   0.83798   0.00000  Uiso   1.00
C612   C     0.19712   0.16617   0.66200   0.00000  Uiso   1.00
C613   C     0.11695   0.16251   0.88854   0.00000  Uiso   1.00
C614   C     0.21532   0.15941   0.61186   0.00000  Uiso   1.00
C615   C     0.05274   0.17151   0.96412   0.00000  Uiso   1.00
C616   C     0.27187   0.12697   0.54180   0.00000  Uiso   1.00
C617   C     0.06827   0.17189   0.91579   0.00000  Uiso   1.00
C618   C     0.26057   0.14050   0.58751   0.00000  Uiso   1.00
C619   C     0.14901   0.15030   0.90957   0.00000  Uiso   1.00
C620   C     0.18239   0.16557   0.59015   0.00000  Uiso   1.00
C621   C     0.13429   0.14931   0.95790   0.00000  Uiso   1.00
C622   C     0.19084   0.14864   0.54637   0.00000  Uiso   1.00
C623   C     0.08571   0.16142   0.98533   0.00000  Uiso   1.00
C624   C     0.23726   0.13090   0.52104   0.00000  Uiso   1.00
C625   C     0.16786   0.14011   0.97933   0.00000  Uiso   1.00
C626   C     0.15450   0.14978   0.52701   0.00000  Uiso   1.00
H627   H     0.03390   0.17288   0.55498   0.00000  Uiso   1.00
H628   H     0.28330   0.10289   0.95590   0.00000  Uiso   1.00
H629   H     0.14957   0.18318   0.60862   0.00000  Uiso   1.00
H630   H     0.18638   0.14399   0.88747   0.00000  Uiso   1.00
H631   H     0.28626   0.13495   0.60419   0.00000  Uiso   1.00
H632   H     0.04288   0.18100   0.89984   0.00000  Uiso   1.00
H633   H     0.01557   0.18070   0.98480   0.00000  Uiso   1.00
H634   H     0.30698   0.11238   0.52319   0.00000  Uiso   1.00
H635   H     0.09142   0.16259   0.59140   0.00000  Uiso   1.00
H636   H     0.22516   0.11036   0.91964   0.00000  Uiso   1.00
H637   H     0.06412   0.12323   0.69430   0.00000  Uiso   1.00
H638   H     0.26925   0.21017   0.80562   0.00000  Uiso   1.00
N639   N     0.04759   0.16668   0.75001   0.00000  Uiso   1.00
N640   N     0.28574   0.16666   0.74999   0.00000  Uiso   1.00
O641   O     0.12846   0.22775   0.75001   0.00000  Uiso   1.00
O642   O     0.20488   0.10558   0.75000   0.00000  Uiso   1.00
O643   O     0.20490   0.22774   0.75000   0.00000  Uiso   1.00
O644   O     0.12843   0.10559   0.75000   0.00000  Uiso   1.00
O645   O     0.10661   0.16667   0.81613   0.00000  Uiso   1.00
O646   O     0.22672   0.16666   0.68388   0.00000  Uiso   1.00
O647   O     0.18305   0.16666   0.81612   0.00000  Uiso   1.00
O648   O     0.15028   0.16667   0.68388   0.00000  Uiso   1.00
Zn649  Zn    0.11562   0.16667   0.75000   0.00000  Uiso   1.00
Zn650  Zn    0.21771   0.16666   0.75000   0.00000  Uiso   1.00
C651   C     0.24453   0.29143   0.67485   0.00000  Uiso   1.00
H652   H     0.24267   0.25815   0.66869   0.00000  Uiso   1.00
O653   O     0.27942   0.31101   0.64849   0.00000  Uiso   1.00
C654   C     0.08889   0.04195   0.82524   0.00000  Uiso   1.00
H655   H     0.09083   0.07522   0.83144   0.00000  Uiso   1.00
O656   O     0.05396   0.02240   0.85160   0.00000  Uiso   1.00
H657   H     0.23244   0.04088   0.69108   0.00000  Uiso   1.00
H658   H     0.10087   0.29248   0.80893   0.00000  Uiso   1.00
H659   H     0.31333   0.12329   0.69426   0.00000  Uiso   1.00
H660   H     0.02003   0.21009   0.80568   0.00000  Uiso   1.00
C661   C     0.50047   0.24655   0.74875   0.00000  Uiso   1.00
C662   C     0.49953   0.08679   0.75126   0.00000  Uiso   1.00
C663   C     0.43845   0.15959   0.55399   0.00000  Uiso   1.00
C664   C     0.54775   0.12214   0.95471   0.00000  Uiso   1.00
C665   C     0.40450   0.16465   0.53339   0.00000  Uiso   1.00
C666   C     0.58152   0.11704   0.97564   0.00000  Uiso   1.00
C667   C     0.53862   0.31272   0.71405   0.00000  Uiso   1.00
C668   C     0.46139   0.02065   0.78599   0.00000  Uiso   1.00
C669   C     0.53760   0.02256   0.71692   0.00000  Uiso   1.00
C670   C     0.46239   0.31080   0.78309   0.00000  Uiso   1.00
C671   C     0.49937   0.04264   0.75208   0.00000  Uiso   1.00
C672   C     0.50062   0.29071   0.74794   0.00000  Uiso   1.00
C673   C     0.65497   0.14256   0.71903   0.00000  Uiso   1.00
C674   C     0.34504   0.19079   0.78094   0.00000  Uiso   1.00
C675   C     0.36954   0.14255   0.71906   0.00000  Uiso   1.00
C676   C     0.63047   0.19081   0.78090   0.00000  Uiso   1.00
C677   C     0.46951   0.16599   0.83798   0.00000  Uiso   1.00
C678   C     0.53045   0.16617   0.66200   0.00000  Uiso   1.00
C679   C     0.45029   0.16251   0.88854   0.00000  Uiso   1.00
C680   C     0.54865   0.15941   0.61186   0.00000  Uiso   1.00
C681   C     0.38608   0.17151   0.96412   0.00000  Uiso   1.00
C682   C     0.60521   0.12697   0.54180   0.00000  Uiso   1.00
C683   C     0.40161   0.17189   0.91579   0.00000  Uiso   1.00
C684   C     0.59390   0.14050   0.58751   0.00000  Uiso   1.00
C685   C     0.48235   0.15030   0.90957   0.00000  Uiso   1.00
C686   C     0.51573   0.16557   0.59015   0.00000  Uiso   1.00
C687   C     0.46762   0.14931   0.95790   0.00000  Uiso   1.00
C688   C     0.52418   0.14864   0.54637   0.00000  Uiso   1.00
C689   C     0.41904   0.16142   0.98533   0.00000  Uiso   1.00
C690   C     0.57059   0.13090   0.52104   0.00000  Uiso   1.00
C691   C     0.50120   0.14011   0.97933   0.00000  Uiso   1.00
C692   C     0.48783   0.14978   0.52701   0.00000  Uiso   1.00
H693   H     0.36723   0.17288   0.55498   0.00000  Uiso   1.00
H694   H     0.61663   0.10289   0.95590   0.00000  Uiso   1.00
H695   H     0.48291   0.18318   0.60862   0.00000  Uiso   1.00
H696   H     0.51971   0.14399   0.88747   0.00000  Uiso   1.00
H697   H     0.61960   0.13495   0.60419   0.00000  Uiso   1.00
H698   H     0.37622   0.18100   0.89984   0.00000  Uiso   1.00
H699   H     0.34891   0.18070   0.98480   0.00000  Uiso   1.00
H700   H     0.64032   0.11238   0.52319   0.00000  Uiso   1.00
H701   H     0.42475   0.16259   0.59140   0.00000  Uiso   1.00
H702   H     0.55850   0.11036   0.91964   0.00000  Uiso   1.00
H703   H     0.39745   0.12323   0.69430   0.00000  Uiso   1.00
H704   H     0.60258   0.21017   0.80562   0.00000  Uiso   1.00
N705   N     0.38093   0.16668   0.75001   0.00000  Uiso   1.00
N706   N     0.61907   0.16666   0.74999   0.00000  Uiso   1.00
O707   O     0.46179   0.22775   0.75001   0.00000  Uiso   1.00
O708   O     0.53821   0.10558   0.75000   0.00000  Uiso   1.00
O709   O     0.53823   0.22774   0.75000   0.00000  Uiso   1.00
O710   O     0.46177   0.10559   0.75000   0.00000  Uiso   1.00
O711   O     0.43994   0.16667   0.81613   0.00000  Uiso   1.00
O712   O     0.56006   0.16666   0.68388   0.00000  Uiso   1.00
O713   O     0.51639   0.16666   0.81612   0.00000  Uiso   1.00
O714   O     0.48361   0.16667   0.68388   0.00000  Uiso   1.00
Zn715  Zn    0.44896   0.16667   0.75000   0.00000  Uiso   1.00
Zn716  Zn    0.55104   0.16666   0.75000   0.00000  Uiso   1.00
C717   C     0.57786   0.29143   0.67485   0.00000  Uiso   1.00
H718   H     0.57601   0.25815   0.66869   0.00000  Uiso   1.00
O719   O     0.61275   0.31101   0.64849   0.00000  Uiso   1.00
C720   C     0.42223   0.04195   0.82524   0.00000  Uiso   1.00
H721   H     0.42416   0.07522   0.83144   0.00000  Uiso   1.00
O722   O     0.38730   0.02240   0.85160   0.00000  Uiso   1.00
H723   H     0.56577   0.04088   0.69108   0.00000  Uiso   1.00
H724   H     0.43421   0.29248   0.80893   0.00000  Uiso   1.00
H725   H     0.64666   0.12329   0.69426   0.00000  Uiso   1.00
H726   H     0.35336   0.21009   0.80568   0.00000  Uiso   1.00
C727   C     0.83380   0.24655   0.74875   0.00000  Uiso   1.00
C728   C     0.83286   0.08679   0.75126   0.00000  Uiso   1.00
C729   C     0.77178   0.15959   0.55399   0.00000  Uiso   1.00
C730   C     0.88109   0.12214   0.95471   0.00000  Uiso   1.00
C731   C     0.73783   0.16465   0.53339   0.00000  Uiso   1.00
C732   C     0.91486   0.11704   0.97564   0.00000  Uiso   1.00
C733   C     0.87196   0.31272   0.71405   0.00000  Uiso   1.00
C734   C     0.79473   0.02065   0.78599   0.00000  Uiso   1.00
C735   C     0.87094   0.02256   0.71692   0.00000  Uiso   1.00
C736   C     0.79572   0.31080   0.78309   0.00000  Uiso   1.00
C737   C     0.83271   0.04264   0.75208   0.00000  Uiso   1.00
C738   C     0.83396   0.29071   0.74794   0.00000  Uiso   1.00
C739   C     0.98830   0.14256   0.71903   0.00000  Uiso   1.00
C740   C     0.67838   0.19079   0.78094   0.00000  Uiso   1.00
C741   C     0.70288   0.14255   0.71906   0.00000  Uiso   1.00
C742   C     0.96381   0.19081   0.78090   0.00000  Uiso   1.00
C743   C     0.80284   0.16599   0.83798   0.00000  Uiso   1.00
C744   C     0.86379   0.16617   0.66200   0.00000  Uiso   1.00
C745   C     0.78362   0.16251   0.88854   0.00000  Uiso   1.00
C746   C     0.88199   0.15941   0.61186   0.00000  Uiso   1.00
C747   C     0.71941   0.17151   0.96412   0.00000  Uiso   1.00
C748   C     0.93854   0.12697   0.54180   0.00000  Uiso   1.00
C749   C     0.73494   0.17189   0.91579   0.00000  Uiso   1.00
C750   C     0.92724   0.14050   0.58751   0.00000  Uiso   1.00
C751   C     0.81568   0.15030   0.90957   0.00000  Uiso   1.00
C752   C     0.84906   0.16557   0.59015   0.00000  Uiso   1.00
C753   C     0.80096   0.14931   0.95790   0.00000  Uiso   1.00
C754   C     0.85751   0.14864   0.54637   0.00000  Uiso   1.00
C755   C     0.75238   0.16142   0.98533   0.00000  Uiso   1.00
C756   C     0.90393   0.13090   0.52104   0.00000  Uiso   1.00
C757   C     0.83453   0.14011   0.97933   0.00000  Uiso   1.00
C758   C     0.82117   0.14978   0.52701   0.00000  Uiso   1.00
H759   H     0.70057   0.17288   0.55498   0.00000  Uiso   1.00
H760   H     0.94997   0.10289   0.95590   0.00000  Uiso   1.00
H761   H     0.81624   0.18318   0.60862   0.00000  Uiso   1.00
H762   H     0.85305   0.14399   0.88747   0.00000  Uiso   1.00
H763   H     0.95293   0.13495   0.60419   0.00000  Uiso   1.00
H764   H     0.70955   0.18100   0.89984   0.00000  Uiso   1.00
H765   H     0.68224   0.18070   0.98480   0.00000  Uiso   1.00
H766   H     0.97365   0.11238   0.52319   0.00000  Uiso   1.00
H767   H     0.75808   0.16259   0.59140   0.00000  Uiso   1.00
H768   H     0.89183   0.11036   0.91964   0.00000  Uiso   1.00
H769   H     0.73078   0.12323   0.69430   0.00000  Uiso   1.00
H770   H     0.93592   0.21017   0.80562   0.00000  Uiso   1.00
N771   N     0.71426   0.16668   0.75001   0.00000  Uiso   1.00
N772   N     0.95241   0.16666   0.74999   0.00000  Uiso   1.00
O773   O     0.79512   0.22775   0.75001   0.00000  Uiso   1.00
O774   O     0.87154   0.10558   0.75000   0.00000  Uiso   1.00
O775   O     0.87157   0.22774   0.75000   0.00000  Uiso   1.00
O776   O     0.79510   0.10559   0.75000   0.00000  Uiso   1.00
O777   O     0.77328   0.16667   0.81613   0.00000  Uiso   1.00
O778   O     0.89339   0.16666   0.68388   0.00000  Uiso   1.00
O779   O     0.84972   0.16666   0.81612   0.00000  Uiso   1.00
O780   O     0.81695   0.16667   0.68388   0.00000  Uiso   1.00
Zn781  Zn    0.78229   0.16667   0.75000   0.00000  Uiso   1.00
Zn782  Zn    0.88438   0.16666   0.75000   0.00000  Uiso   1.00
C783   C     0.91119   0.29143   0.67485   0.00000  Uiso   1.00
H784   H     0.90934   0.25815   0.66869   0.00000  Uiso   1.00
O785   O     0.94609   0.31101   0.64849   0.00000  Uiso   1.00
C786   C     0.75556   0.04195   0.82524   0.00000  Uiso   1.00
H787   H     0.75750   0.07522   0.83144   0.00000  Uiso   1.00
O788   O     0.72063   0.02240   0.85160   0.00000  Uiso   1.00
H789   H     0.89910   0.04088   0.69108   0.00000  Uiso   1.00
H790   H     0.76754   0.29248   0.80893   0.00000  Uiso   1.00
H791   H     0.98000   0.12329   0.69426   0.00000  Uiso   1.00
H792   H     0.68670   0.21009   0.80568   0.00000  Uiso   1.00
C793   C     0.16714   0.57989   0.74875   0.00000  Uiso   1.00
C794   C     0.16619   0.42012   0.75126   0.00000  Uiso   1.00
C795   C     0.10511   0.49293   0.55399   0.00000  Uiso   1.00
C796   C     0.21442   0.45547   0.95471   0.00000  Uiso   1.00
C797   C     0.07117   0.49798   0.53339   0.00000  Uiso   1.00
C798   C     0.24819   0.45037   0.97564   0.00000  Uiso   1.00
C799   C     0.20529   0.64605   0.71405   0.00000  Uiso   1.00
C800   C     0.12806   0.35398   0.78599   0.00000  Uiso   1.00
C801   C     0.20427   0.35589   0.71692   0.00000  Uiso   1.00
C802   C     0.12905   0.64413   0.78309   0.00000  Uiso   1.00
C803   C     0.16604   0.37597   0.75208   0.00000  Uiso   1.00
C804   C     0.16729   0.62405   0.74794   0.00000  Uiso   1.00
C805   C     0.32164   0.47590   0.71903   0.00000  Uiso   1.00
C806   C     0.01171   0.52413   0.78094   0.00000  Uiso   1.00
C807   C     0.03621   0.47588   0.71906   0.00000  Uiso   1.00
C808   C     0.29714   0.52414   0.78090   0.00000  Uiso   1.00
C809   C     0.13618   0.49932   0.83798   0.00000  Uiso   1.00
C810   C     0.19712   0.49950   0.66200   0.00000  Uiso   1.00
C811   C     0.11695   0.49585   0.88854   0.00000  Uiso   1.00
C812   C     0.21532   0.49274   0.61186   0.00000  Uiso   1.00
C813   C     0.05274   0.50484   0.96412   0.00000  Uiso   1.00
C814   C     0.27187   0.46031   0.54180   0.00000  Uiso   1.00
C815   C     0.06827   0.50523   0.91579   0.00000  Uiso   1.00
C816   C     0.26057   0.47383   0.58751   0.00000  Uiso   1.00
C817   C     0.14901   0.48363   0.90957   0.00000  Uiso   1.00
C818   C     0.18239   0.49891   0.59015   0.00000  Uiso   1.00
C819   C     0.13429   0.48265   0.95790   0.00000  Uiso   1.00
C820   C     0.19084   0.48198   0.54637   0.00000  Uiso   1.00
C821   C     0.08571   0.49476   0.98533   0.00000  Uiso   1.00
C822   C     0.23726   0.46423   0.52104   0.00000  Uiso   1.00
C823   C     0.16786   0.47344   0.97933   0.00000  Uiso   1.00
C824   C     0.15450   0.48311   0.52701   0.00000  Uiso   1.00
H825   H     0.03390   0.50621   0.55498   0.00000  Uiso   1.00
H826   H     0.28330   0.43623   0.95590   0.00000  Uiso   1.00
H827   H     0.14957   0.51651   0.60862   0.00000  Uiso   1.00
H828   H     0.18638   0.47732   0.88747   0.00000  Uiso   1.00
H829   H     0.28626   0.46829   0.60419   0.00000  Uiso   1.00
H830   H     0.04288   0.51433   0.89984   0.00000  Uiso   1.00
H831   H     0.01557   0.51403   0.98480   0.00000  Uiso   1.00
H832   H     0.30698   0.44572   0.52319   0.00000  Uiso   1.00
H833   H     0.09142   0.49592   0.59140   0.00000  Uiso   1.00
H834   H     0.22516   0.44369   0.91964   0.00000  Uiso   1.00
H835   H     0.06412   0.45657   0.69430   0.00000  Uiso   1.00
H836   H     0.26925   0.54350   0.80562   0.00000  Uiso   1.00
N837   N     0.04759   0.50001   0.75001   0.00000  Uiso   1.00
N838   N     0.28574   0.49999   0.74999   0.00000  Uiso   1.00
O839   O     0.12846   0.56108   0.75001   0.00000  Uiso   1.00
O840   O     0.20488   0.43892   0.75000   0.00000  Uiso   1.00
O841   O     0.20490   0.56107   0.75000   0.00000  Uiso   1.00
O842   O     0.12843   0.43893   0.75000   0.00000  Uiso   1.00
O843   O     0.10661   0.50001   0.81613   0.00000  Uiso   1.00
O844   O     0.22672   0.49999   0.68388   0.00000  Uiso   1.00
O845   O     0.18305   0.50000   0.81612   0.00000  Uiso   1.00
O846   O     0.15028   0.50000   0.68388   0.00000  Uiso   1.00
Zn847  Zn    0.11562   0.50001   0.75000   0.00000  Uiso   1.00
Zn848  Zn    0.21771   0.49999   0.75000   0.00000  Uiso   1.00
C849   C     0.24453   0.62476   0.67485   0.00000  Uiso   1.00
H850   H     0.24267   0.59148   0.66869   0.00000  Uiso   1.00
O851   O     0.27942   0.64435   0.64849   0.00000  Uiso   1.00
C852   C     0.08889   0.37529   0.82524   0.00000  Uiso   1.00
H853   H     0.09083   0.40855   0.83144   0.00000  Uiso   1.00
O854   O     0.05396   0.35574   0.85160   0.00000  Uiso   1.00
H855   H     0.23244   0.37422   0.69108   0.00000  Uiso   1.00
H856   H     0.10087   0.62582   0.80893   0.00000  Uiso   1.00
H857   H     0.31333   0.45662   0.69426   0.00000  Uiso   1.00
H858   H     0.02003   0.54343   0.80568   0.00000  Uiso   1.00
C859   C     0.50047   0.57989   0.74875   0.00000  Uiso   1.00
C860   C     0.49953   0.42012   0.75126   0.00000  Uiso   1.00
C861   C     0.43845   0.49293   0.55399   0.00000  Uiso   1.00
C862   C     0.54775   0.45547   0.95471   0.00000  Uiso   1.00
C863   C     0.40450   0.49798   0.53339   0.00000  Uiso   1.00
C864   C     0.58152   0.45037   0.97564   0.00000  Uiso   1.00
C865   C     0.53862   0.64605   0.71405   0.00000  Uiso   1.00
C866   C     0.46139   0.35398   0.78599   0.00000  Uiso   1.00
C867   C     0.53760   0.35589   0.71692   0.00000  Uiso   1.00
C868   C     0.46239   0.64413   0.78309   0.00000  Uiso   1.00
C869   C     0.49937   0.37597   0.75208   0.00000  Uiso   1.00
C870   C     0.50062   0.62405   0.74794   0.00000  Uiso   1.00
C871   C     0.65497   0.47590   0.71903   0.00000  Uiso   1.00
C872   C     0.34504   0.52413   0.78094   0.00000  Uiso   1.00
C873   C     0.36954   0.47588   0.71906   0.00000  Uiso   1.00
C874   C     0.63047   0.52414   0.78090   0.00000  Uiso   1.00
C875   C     0.46951   0.49932   0.83798   0.00000  Uiso   1.00
C876   C     0.53045   0.49950   0.66200   0.00000  Uiso   1.00
C877   C     0.45029   0.49585   0.88854   0.00000  Uiso   1.00
C878   C     0.54865   0.49274   0.61186   0.00000  Uiso   1.00
C879   C     0.38608   0.50484   0.96412   0.00000  Uiso   1.00
C880   C     0.60521   0.46031   0.54180   0.00000  Uiso   1.00
C881   C     0.40161   0.50523   0.91579   0.00000  Uiso   1.00
C882   C     0.59390   0.47383   0.58751   0.00000  Uiso   1.00
C883   C     0.48235   0.48363   0.90957   0.00000  Uiso   1.00
C884   C     0.51573   0.49891   0.59015   0.00000  Uiso   1.00
C885   C     0.46762   0.48265   0.95790   0.00000  Uiso   1.00
C886   C     0.52418   0.48198   0.54637   0.00000  Uiso   1.00
C887   C     0.41904   0.49476   0.98533   0.00000  Uiso   1.00
C888   C     0.57059   0.46423   0.52104   0.00000  Uiso   1.00
C889   C     0.50120   0.47344   0.97933   0.00000  Uiso   1.00
C890   C     0.48783   0.48311   0.52701   0.00000  Uiso   1.00
H891   H     0.36723   0.50621   0.55498   0.00000  Uiso   1.00
H892   H     0.61663   0.43623   0.95590   0.00000  Uiso   1.00
H893   H     0.48291   0.51651   0.60862   0.00000  Uiso   1.00
H894   H     0.51971   0.47732   0.88747   0.00000  Uiso   1.00
H895   H     0.61960   0.46829   0.60419   0.00000  Uiso   1.00
H896   H     0.37622   0.51433   0.89984   0.00000  Uiso   1.00
H897   H     0.34891   0.51403   0.98480   0.00000  Uiso   1.00
H898   H     0.64032   0.44572   0.52319   0.00000  Uiso   1.00
H899   H     0.42475   0.49592   0.59140   0.00000  Uiso   1.00
H900   H     0.55850   0.44369   0.91964   0.00000  Uiso   1.00
H901   H     0.39745   0.45657   0.69430   0.00000  Uiso   1.00
H902   H     0.60258   0.54350   0.80562   0.00000  Uiso   1.00
N903   N     0.38093   0.50001   0.75001   0.00000  Uiso   1.00
N904   N     0.61907   0.49999   0.74999   0.00000  Uiso   1.00
O905   O     0.46179   0.56108   0.75001   0.00000  Uiso   1.00
O906   O     0.53821   0.43892   0.75000   0.00000  Uiso   1.00
O907   O     0.53823   0.56107   0.75000   0.00000  Uiso   1.00
O908   O     0.46177   0.43893   0.75000   0.00000  Uiso   1.00
O909   O     0.43994   0.50001   0.81613   0.00000  Uiso   1.00
O910   O     0.56006   0.49999   0.68388   0.00000  Uiso   1.00
O911   O     0.51639   0.50000   0.81612   0.00000  Uiso   1.00
O912   O     0.48361   0.50000   0.68388   0.00000  Uiso   1.00
Zn913  Zn    0.44896   0.50001   0.75000   0.00000  Uiso   1.00
Zn914  Zn    0.55104   0.49999   0.75000   0.00000  Uiso   1.00
C915   C     0.57786   0.62476   0.67485   0.00000  Uiso   1.00
H916   H     0.57601   0.59148   0.66869   0.00000  Uiso   1.00
O917   O     0.61275   0.64435   0.64849   0.00000  Uiso   1.00
C918   C     0.42223   0.37529   0.82524   0.00000  Uiso   1.00
H919   H     0.42416   0.40855   0.83144   0.00000  Uiso   1.00
O920   O     0.38730   0.35574   0.85160   0.00000  Uiso   1.00
H921   H     0.56577   0.37422   0.69108   0.00000  Uiso   1.00
H922   H     0.43421   0.62582   0.80893   0.00000  Uiso   1.00
H923   H     0.64666   0.45662   0.69426   0.00000  Uiso   1.00
H924   H     0.35336   0.54343   0.80568   0.00000  Uiso   1.00
C925   C     0.83380   0.57989   0.74875   0.00000  Uiso   1.00
C926   C     0.83286   0.42012   0.75126   0.00000  Uiso   1.00
C927   C     0.77178   0.49293   0.55399   0.00000  Uiso   1.00
C928   C     0.88109   0.45547   0.95471   0.00000  Uiso   1.00
C929   C     0.73783   0.49798   0.53339   0.00000  Uiso   1.00
C930   C     0.91486   0.45037   0.97564   0.00000  Uiso   1.00
C931   C     0.87196   0.64605   0.71405   0.00000  Uiso   1.00
C932   C     0.79473   0.35398   0.78599   0.00000  Uiso   1.00
C933   C     0.87094   0.35589   0.71692   0.00000  Uiso   1.00
C934   C     0.79572   0.64413   0.78309   0.00000  Uiso   1.00
C935   C     0.83271   0.37597   0.75208   0.00000  Uiso   1.00
C936   C     0.83396   0.62405   0.74794   0.00000  Uiso   1.00
C937   C     0.98830   0.47590   0.71903   0.00000  Uiso   1.00
C938   C     0.67838   0.52413   0.78094   0.00000  Uiso   1.00
C939   C     0.70288   0.47588   0.71906   0.00000  Uiso   1.00
C940   C     0.96381   0.52414   0.78090   0.00000  Uiso   1.00
C941   C     0.80284   0.49932   0.83798   0.00000  Uiso   1.00
C942   C     0.86379   0.49950   0.66200   0.00000  Uiso   1.00
C943   C     0.78362   0.49585   0.88854   0.00000  Uiso   1.00
C944   C     0.88199   0.49274   0.61186   0.00000  Uiso   1.00
C945   C     0.71941   0.50484   0.96412   0.00000  Uiso   1.00
C946   C     0.93854   0.46031   0.54180   0.00000  Uiso   1.00
C947   C     0.73494   0.50523   0.91579   0.00000  Uiso   1.00
C948   C     0.92724   0.47383   0.58751   0.00000  Uiso   1.00
C949   C     0.81568   0.48363   0.90957   0.00000  Uiso   1.00
C950   C     0.84906   0.49891   0.59015   0.00000  Uiso   1.00
C951   C     0.80096   0.48265   0.95790   0.00000  Uiso   1.00
C952   C     0.85751   0.48198   0.54637   0.00000  Uiso   1.00
C953   C     0.75238   0.49476   0.98533   0.00000  Uiso   1.00
C954   C     0.90393   0.46423   0.52104   0.00000  Uiso   1.00
C955   C     0.83453   0.47344   0.97933   0.00000  Uiso   1.00
C956   C     0.82117   0.48311   0.52701   0.00000  Uiso   1.00
H957   H     0.70057   0.50621   0.55498   0.00000  Uiso   1.00
H958   H     0.94997   0.43623   0.95590   0.00000  Uiso   1.00
H959   H     0.81624   0.51651   0.60862   0.00000  Uiso   1.00
H960   H     0.85305   0.47732   0.88747   0.00000  Uiso   1.00
H961   H     0.95293   0.46829   0.60419   0.00000  Uiso   1.00
H962   H     0.70955   0.51433   0.89984   0.00000  Uiso   1.00
H963   H     0.68224   0.51403   0.98480   0.00000  Uiso   1.00
H964   H     0.97365   0.44572   0.52319   0.00000  Uiso   1.00
H965   H     0.75808   0.49592   0.59140   0.00000  Uiso   1.00
H966   H     0.89183   0.44369   0.91964   0.00000  Uiso   1.00
H967   H     0.73078   0.45657   0.69430   0.00000  Uiso   1.00
H968   H     0.93592   0.54350   0.80562   0.00000  Uiso   1.00
N969   N     0.71426   0.50001   0.75001   0.00000  Uiso   1.00
N970   N     0.95241   0.49999   0.74999   0.00000  Uiso   1.00
O971   O     0.79512   0.56108   0.75001   0.00000  Uiso   1.00
O972   O     0.87154   0.43892   0.75000   0.00000  Uiso   1.00
O973   O     0.87157   0.56107   0.75000   0.00000  Uiso   1.00
O974   O     0.79510   0.43893   0.75000   0.00000  Uiso   1.00
O975   O     0.77328   0.50001   0.81613   0.00000  Uiso   1.00
O976   O     0.89339   0.49999   0.68388   0.00000  Uiso   1.00
O977   O     0.84972   0.50000   0.81612   0.00000  Uiso   1.00
O978   O     0.81695   0.50000   0.68388   0.00000  Uiso   1.00
Zn979  Zn    0.78229   0.50001   0.75000   0.00000  Uiso   1.00
Zn980  Zn    0.88438   0.49999   0.75000   0.00000  Uiso   1.00
C981   C     0.91119   0.62476   0.67485   0.00000  Uiso   1.00
H982   H     0.90934   0.59148   0.66869   0.00000  Uiso   1.00
O983   O     0.94609   0.64435   0.64849   0.00000  Uiso   1.00
C984   C     0.75556   0.37529   0.82524   0.00000  Uiso   1.00
H985   H     0.75750   0.40855   0.83144   0.00000  Uiso   1.00
O986   O     0.72063   0.35574   0.85160   0.00000  Uiso   1.00
H987   H     0.89910   0.37422   0.69108   0.00000  Uiso   1.00
H988   H     0.76754   0.62582   0.80893   0.00000  Uiso   1.00
H989   H     0.98000   0.45662   0.69426   0.00000  Uiso   1.00
H990   H     0.68670   0.54343   0.80568   0.00000  Uiso   1.00
C991   C     0.16714   0.91322   0.74875   0.00000  Uiso   1.00
C992   C     0.16619   0.75345   0.75126   0.00000  Uiso   1.00
C993   C     0.10511   0.82626   0.55399   0.00000  Uiso   1.00
C994   C     0.21442   0.78881   0.95471   0.00000  Uiso   1.00
C995   C     0.07117   0.83131   0.53339   0.00000  Uiso   1.00
C996   C     0.24819   0.78371   0.97564   0.00000  Uiso   1.00
C997   C     0.20529   0.97938   0.71405   0.00000  Uiso   1.00
C998   C     0.12806   0.68731   0.78599   0.00000  Uiso   1.00
C999   C     0.20427   0.68923   0.71692   0.00000  Uiso   1.00
C1000  C     0.12905   0.97747   0.78309   0.00000  Uiso   1.00
C1001  C     0.16604   0.70931   0.75208   0.00000  Uiso   1.00
C1002  C     0.16729   0.95738   0.74794   0.00000  Uiso   1.00
C1003  C     0.32164   0.80923   0.71903   0.00000  Uiso   1.00
C1004  C     0.01171   0.85746   0.78094   0.00000  Uiso   1.00
C1005  C     0.03621   0.80922   0.71906   0.00000  Uiso   1.00
C1006  C     0.29714   0.85748   0.78090   0.00000  Uiso   1.00
C1007  C     0.13618   0.83265   0.83798   0.00000  Uiso   1.00
C1008  C     0.19712   0.83283   0.66200   0.00000  Uiso   1.00
C1009  C     0.11695   0.82918   0.88854   0.00000  Uiso   1.00
C1010  C     0.21532   0.82607   0.61186   0.00000  Uiso   1.00
C1011  C     0.05274   0.83817   0.96412   0.00000  Uiso   1.00
C1012  C     0.27187   0.79364   0.54180   0.00000  Uiso   1.00
C1013  C     0.06827   0.83856   0.91579   0.00000  Uiso   1.00
C1014  C     0.26057   0.80717   0.58751   0.00000  Uiso   1.00
C1015  C     0.14901   0.81697   0.90957   0.00000  Uiso   1.00
C1016  C     0.18239   0.83224   0.59015   0.00000  Uiso   1.00
C1017  C     0.13429   0.81598   0.95790   0.00000  Uiso   1.00
C1018  C     0.19084   0.81531   0.54637   0.00000  Uiso   1.00
C1019  C     0.08571   0.82809   0.98533   0.00000  Uiso   1.00
C1020  C     0.23726   0.79756   0.52104   0.00000  Uiso   1.00
C1021  C     0.16786   0.80678   0.97933   0.00000  Uiso   1.00
C1022  C     0.15450   0.81645   0.52701   0.00000  Uiso   1.00
H1023  H     0.03390   0.83955   0.55498   0.00000  Uiso   1.00
H1024  H     0.28330   0.76956   0.95590   0.00000  Uiso   1.00
H1025  H     0.14957   0.84985   0.60862   0.00000  Uiso   1.00
H1026  H     0.18638   0.81066   0.88747   0.00000  Uiso   1.00
H1027  H     0.28626   0.80162   0.60419   0.00000  Uiso   1.00
H1028  H     0.04288   0.84766   0.89984   0.00000  Uiso   1.00
H1029  H     0.01557   0.84737   0.98480   0.00000  Uiso   1.00
H1030  H     0.30698   0.77905   0.52319   0.00000  Uiso   1.00
H1031  H     0.09142   0.82925   0.59140   0.00000  Uiso   1.00
H1032  H     0.22516   0.77702   0.91964   0.00000  Uiso   1.00
H1033  H     0.06412   0.78990   0.69430   0.00000  Uiso   1.00
H1034  H     0.26925   0.87684   0.80562   0.00000  Uiso   1.00
N1035  N     0.04759   0.83334   0.75001   0.00000  Uiso   1.00
N1036  N     0.28574   0.83332   0.74999   0.00000  Uiso   1.00
O1037  O     0.12846   0.89442   0.75001   0.00000  Uiso   1.00
O1038  O     0.20488   0.77225   0.75000   0.00000  Uiso   1.00
O1039  O     0.20490   0.89441   0.75000   0.00000  Uiso   1.00
O1040  O     0.12843   0.77226   0.75000   0.00000  Uiso   1.00
O1041  O     0.10661   0.83334   0.81613   0.00000  Uiso   1.00
O1042  O     0.22672   0.83333   0.68388   0.00000  Uiso   1.00
O1043  O     0.18305   0.83333   0.81612   0.00000  Uiso   1.00
O1044  O     0.15028   0.83334   0.68388   0.00000  Uiso   1.00
Zn1045 Zn    0.11562   0.83334   0.75000   0.00000  Uiso   1.00
Zn1046 Zn    0.21771   0.83333   0.75000   0.00000  Uiso   1.00
C1047  C     0.24453   0.95810   0.67485   0.00000  Uiso   1.00
H1048  H     0.24267   0.92481   0.66869   0.00000  Uiso   1.00
O1049  O     0.27942   0.97768   0.64849   0.00000  Uiso   1.00
C1050  C     0.08889   0.70862   0.82524   0.00000  Uiso   1.00
H1051  H     0.09083   0.74189   0.83144   0.00000  Uiso   1.00
O1052  O     0.05396   0.68907   0.85160   0.00000  Uiso   1.00
H1053  H     0.23244   0.70755   0.69108   0.00000  Uiso   1.00
H1054  H     0.10087   0.95915   0.80893   0.00000  Uiso   1.00
H1055  H     0.31333   0.78996   0.69426   0.00000  Uiso   1.00
H1056  H     0.02003   0.87676   0.80568   0.00000  Uiso   1.00
C1057  C     0.50047   0.91322   0.74875   0.00000  Uiso   1.00
C1058  C     0.49953   0.75345   0.75126   0.00000  Uiso   1.00
C1059  C     0.43845   0.82626   0.55399   0.00000  Uiso   1.00
C1060  C     0.54775   0.78881   0.95471   0.00000  Uiso   1.00
C1061  C     0.40450   0.83131   0.53339   0.00000  Uiso   1.00
C1062  C     0.58152   0.78371   0.97564   0.00000  Uiso   1.00
C1063  C     0.53862   0.97938   0.71405   0.00000  Uiso   1.00
C1064  C     0.46139   0.68731   0.78599   0.00000  Uiso   1.00
C1065  C     0.53760   0.68923   0.71692   0.00000  Uiso   1.00
C1066  C     0.46239   0.97747   0.78309   0.00000  Uiso   1.00
C1067  C     0.49937   0.70931   0.75208   0.00000  Uiso   1.00
C1068  C     0.50062   0.95738   0.74794   0.00000  Uiso   1.00
C1069  C     0.65497   0.80923   0.71903   0.00000  Uiso   1.00
C1070  C     0.34504   0.85746   0.78094   0.00000  Uiso   1.00
C1071  C     0.36954   0.80922   0.71906   0.00000  Uiso   1.00
C1072  C     0.63047   0.85748   0.78090   0.00000  Uiso   1.00
C1073  C     0.46951   0.83265   0.83798   0.00000  Uiso   1.00
C1074  C     0.53045   0.83283   0.66200   0.00000  Uiso   1.00
C1075  C     0.45029   0.82918   0.88854   0.00000  Uiso   1.00
C1076  C     0.54865   0.82607   0.61186   0.00000  Uiso   1.00
C1077  C     0.38608   0.83817   0.96412   0.00000  Uiso   1.00
C1078  C     0.60521   0.79364   0.54180   0.00000  Uiso   1.00
C1079  C     0.40161   0.83856   0.91579   0.00000  Uiso   1.00
C1080  C     0.59390   0.80717   0.58751   0.00000  Uiso   1.00
C1081  C     0.48235   0.81697   0.90957   0.00000  Uiso   1.00
C1082  C     0.51573   0.83224   0.59015   0.00000  Uiso   1.00
C1083  C     0.46762   0.81598   0.95790   0.00000  Uiso   1.00
C1084  C     0.52418   0.81531   0.54637   0.00000  Uiso   1.00
C1085  C     0.41904   0.82809   0.98533   0.00000  Uiso   1.00
C1086  C     0.57059   0.79756   0.52104   0.00000  Uiso   1.00
C1087  C     0.50120   0.80678   0.97933   0.00000  Uiso   1.00
C1088  C     0.48783   0.81645   0.52701   0.00000  Uiso   1.00
H1089  H     0.36723   0.83955   0.55498   0.00000  Uiso   1.00
H1090  H     0.61663   0.76956   0.95590   0.00000  Uiso   1.00
H1091  H     0.48291   0.84985   0.60862   0.00000  Uiso   1.00
H1092  H     0.51971   0.81066   0.88747   0.00000  Uiso   1.00
H1093  H     0.61960   0.80162   0.60419   0.00000  Uiso   1.00
H1094  H     0.37622   0.84766   0.89984   0.00000  Uiso   1.00
H1095  H     0.34891   0.84737   0.98480   0.00000  Uiso   1.00
H1096  H     0.64032   0.77905   0.52319   0.00000  Uiso   1.00
H1097  H     0.42475   0.82925   0.59140   0.00000  Uiso   1.00
H1098  H     0.55850   0.77702   0.91964   0.00000  Uiso   1.00
H1099  H     0.39745   0.78990   0.69430   0.00000  Uiso   1.00
H1100  H     0.60258   0.87684   0.80562   0.00000  Uiso   1.00
N1101  N     0.38093   0.83334   0.75001   0.00000  Uiso   1.00
N1102  N     0.61907   0.83332   0.74999   0.00000  Uiso   1.00
O1103  O     0.46179   0.89442   0.75001   0.00000  Uiso   1.00
O1104  O     0.53821   0.77225   0.75000   0.00000  Uiso   1.00
O1105  O     0.53823   0.89441   0.75000   0.00000  Uiso   1.00
O1106  O     0.46177   0.77226   0.75000   0.00000  Uiso   1.00
O1107  O     0.43994   0.83334   0.81613   0.00000  Uiso   1.00
O1108  O     0.56006   0.83333   0.68388   0.00000  Uiso   1.00
O1109  O     0.51639   0.83333   0.81612   0.00000  Uiso   1.00
O1110  O     0.48361   0.83334   0.68388   0.00000  Uiso   1.00
Zn1111 Zn    0.44896   0.83334   0.75000   0.00000  Uiso   1.00
Zn1112 Zn    0.55104   0.83333   0.75000   0.00000  Uiso   1.00
C1113  C     0.57786   0.95810   0.67485   0.00000  Uiso   1.00
H1114  H     0.57601   0.92481   0.66869   0.00000  Uiso   1.00
O1115  O     0.61275   0.97768   0.64849   0.00000  Uiso   1.00
C1116  C     0.42223   0.70862   0.82524   0.00000  Uiso   1.00
H1117  H     0.42416   0.74189   0.83144   0.00000  Uiso   1.00
O1118  O     0.38730   0.68907   0.85160   0.00000  Uiso   1.00
H1119  H     0.56577   0.70755   0.69108   0.00000  Uiso   1.00
H1120  H     0.43421   0.95915   0.80893   0.00000  Uiso   1.00
H1121  H     0.64666   0.78996   0.69426   0.00000  Uiso   1.00
H1122  H     0.35336   0.87676   0.80568   0.00000  Uiso   1.00
C1123  C     0.83380   0.91322   0.74875   0.00000  Uiso   1.00
C1124  C     0.83286   0.75345   0.75126   0.00000  Uiso   1.00
C1125  C     0.77178   0.82626   0.55399   0.00000  Uiso   1.00
C1126  C     0.88109   0.78881   0.95471   0.00000  Uiso   1.00
C1127  C     0.73783   0.83131   0.53339   0.00000  Uiso   1.00
C1128  C     0.91486   0.78371   0.97564   0.00000  Uiso   1.00
C1129  C     0.87196   0.97938   0.71405   0.00000  Uiso   1.00
C1130  C     0.79473   0.68731   0.78599   0.00000  Uiso   1.00
C1131  C     0.87094   0.68923   0.71692   0.00000  Uiso   1.00
C1132  C     0.79572   0.97747   0.78309   0.00000  Uiso   1.00
C1133  C     0.83271   0.70931   0.75208   0.00000  Uiso   1.00
C1134  C     0.83396   0.95738   0.74794   0.00000  Uiso   1.00
C1135  C     0.98830   0.80923   0.71903   0.00000  Uiso   1.00
C1136  C     0.67838   0.85746   0.78094   0.00000  Uiso   1.00
C1137  C     0.70288   0.80922   0.71906   0.00000  Uiso   1.00
C1138  C     0.96381   0.85748   0.78090   0.00000  Uiso   1.00
C1139  C     0.80284   0.83265   0.83798   0.00000  Uiso   1.00
C1140  C     0.86379   0.83283   0.66200   0.00000  Uiso   1.00
C1141  C     0.78362   0.82918   0.88854   0.00000  Uiso   1.00
C1142  C     0.88199   0.82607   0.61186   0.00000  Uiso   1.00
C1143  C     0.71941   0.83817   0.96412   0.00000  Uiso   1.00
C1144  C     0.93854   0.79364   0.54180   0.00000  Uiso   1.00
C1145  C     0.73494   0.83856   0.91579   0.00000  Uiso   1.00
C1146  C     0.92724   0.80717   0.58751   0.00000  Uiso   1.00
C1147  C     0.81568   0.81697   0.90957   0.00000  Uiso   1.00
C1148  C     0.84906   0.83224   0.59015   0.00000  Uiso   1.00
C1149  C     0.80096   0.81598   0.95790   0.00000  Uiso   1.00
C1150  C     0.85751   0.81531   0.54637   0.00000  Uiso   1.00
C1151  C     0.75238   0.82809   0.98533   0.00000  Uiso   1.00
C1152  C     0.90393   0.79756   0.52104   0.00000  Uiso   1.00
C1153  C     0.83453   0.80678   0.97933   0.00000  Uiso   1.00
C1154  C     0.82117   0.81645   0.52701   0.00000  Uiso   1.00
H1155  H     0.70057   0.83955   0.55498   0.00000  Uiso   1.00
H1156  H     0.94997   0.76956   0.95590   0.00000  Uiso   1.00
H1157  H     0.81624   0.84985   0.60862   0.00000  Uiso   1.00
H1158  H     0.85305   0.81066   0.88747   0.00000  Uiso   1.00
H1159  H     0.95293   0.80162   0.60419   0.00000  Uiso   1.00
H1160  H     0.70955   0.84766   0.89984   0.00000  Uiso   1.00
H1161  H     0.68224   0.84737   0.98480   0.00000  Uiso   1.00
H1162  H     0.97365   0.77905   0.52319   0.00000  Uiso   1.00
H1163  H     0.75808   0.82925   0.59140   0.00000  Uiso   1.00
H1164  H     0.89183   0.77702   0.91964   0.00000  Uiso   1.00
H1165  H     0.73078   0.78990   0.69430   0.00000  Uiso   1.00
H1166  H     0.93592   0.87684   0.80562   0.00000  Uiso   1.00
N1167  N     0.71426   0.83334   0.75001   0.00000  Uiso   1.00
N1168  N     0.95241   0.83332   0.74999   0.00000  Uiso   1.00
O1169  O     0.79512   0.89442   0.75001   0.00000  Uiso   1.00
O1170  O     0.87154   0.77225   0.75000   0.00000  Uiso   1.00
O1171  O     0.87157   0.89441   0.75000   0.00000  Uiso   1.00
O1172  O     0.79510   0.77226   0.75000   0.00000  Uiso   1.00
O1173  O     0.77328   0.83334   0.81613   0.00000  Uiso   1.00
O1174  O     0.89339   0.83333   0.68388   0.00000  Uiso   1.00
O1175  O     0.84972   0.83333   0.81612   0.00000  Uiso   1.00
O1176  O     0.81695   0.83334   0.68388   0.00000  Uiso   1.00
Zn1177 Zn    0.78229   0.83334   0.75000   0.00000  Uiso   1.00
Zn1178 Zn    0.88438   0.83333   0.75000   0.00000  Uiso   1.00
C1179  C     0.91119   0.95810   0.67485   0.00000  Uiso   1.00
H1180  H     0.90934   0.92481   0.66869   0.00000  Uiso   1.00
O1181  O     0.94609   0.97768   0.64849   0.00000  Uiso   1.00
C1182  C     0.75556   0.70862   0.82524   0.00000  Uiso   1.00
H1183  H     0.75750   0.74189   0.83144   0.00000  Uiso   1.00
O1184  O     0.72063   0.68907   0.85160   0.00000  Uiso   1.00
H1185  H     0.89910   0.70755   0.69108   0.00000  Uiso   1.00
H1186  H     0.76754   0.95915   0.80893   0.00000  Uiso   1.00
H1187  H     0.98000   0.78996   0.69426   0.00000  Uiso   1.00
H1188  H     0.68670   0.87676   0.80568   0.00000  Uiso   1.00
loop_
_geom_bond_atom_site_label_1
_geom_bond_atom_site_label_2
_geom_bond_distance
_geom_bond_site_symmetry_2
_ccdc_geom_bond_type
C1     C12     1.410   .     S
C1     O49     1.281   .     A
C1     O47     1.280   .     A
C2     C11     1.409   .     S
C2     O50     1.281   .     A
C2     O48     1.280   .     A
C3     C32     1.417   .     A
C3     H41     1.079   .     S
C3     C5      1.388   .     A
C4     C6      1.391   .     A
C4     H42     1.079   .     S
C4     C31     1.418   .     A
C5     H33     1.084   .     S
C5     C623    1.391   1_554 S
C6     H34     1.084   .     S
C6     C624    1.392   .     S
C7     C57     1.489   .     S
C7     C12     1.406   .     A
C7     C207    1.380   .     S
C8     C60     1.489   .     S
C8     C11     1.405   .     A
C8     C406    1.380   1_545 S
C9     C11     1.394   .     A
C9     H63     1.086   .     S
C9     C403    1.380   1_545 S
C10    H64     1.085   .     S
C10    C12     1.395   .     A
C10    C206    1.380   .     S
C13    H65     1.082   .     S
C13    N46     1.366   .     A
C13    C81     1.417   .     S
C14    H66     1.082   .     S
C14    N45     1.366   .     A
C14    C148    1.417   1_455 S
C15    N45     1.367   .     A
C15    H43     1.082   .     S
C15    C145    1.417   1_455 S
C16    H44     1.082   .     S
C16    N46     1.367   .     A
C16    C80     1.417   .     S
C17    O51     1.293   .     A
C17    C19     1.457   .     S
C17    O53     1.294   .     A
C18    O52     1.294   .     A
C18    C20     1.457   .     S
C18    O54     1.293   .     A
C19    C23     1.399   .     A
C19    C25     1.394   .     A
C20    C24     1.400   .     A
C20    C26     1.391   .     A
C21    H39     1.083   .     S
C21    C23     1.393   .     A
C21    C29     1.404   .     A
C22    C30     1.405   .     A
C22    H40     1.084   .     S
C22    C24     1.396   .     A
C23    H38     1.083   .     S
C24    H37     1.083   .     S
C25    C27     1.395   .     A
C25    H36     1.077   .     S
C26    C28     1.393   .     A
C26    H35     1.079   .     S
C27    C29     1.419   .     A
C27    C31     1.418   .     A
C28    C30     1.416   .     A
C28    C32     1.415   .     A
C29    C599    1.391   .     S
C30    C600    1.392   1_554 S
C31    C626    1.413   .     S
C32    C625    1.413   1_554 S
N45    Zn55    2.012   .     S
N46    Zn56    2.012   .     S
O47    Zn55    1.987   .     S
O48    Zn56    1.987   .     S
O49    Zn56    1.985   .     S
O50    Zn55    1.985   .     S
O51    Zn55    1.966   .     S
O52    Zn56    1.966   .     S
O53    Zn56    1.916   .     S
O54    Zn55    1.916   .     S
C57    H58     1.084   .     S
C57    O59     1.221   .     D
C60    O62     1.221   .     D
C60    H61     1.084   .     S
C67    C78     1.410   .     S
C67    O115    1.281   .     A
C67    O113    1.280   .     A
C68    C77     1.409   .     S
C68    O116    1.281   .     A
C68    O114    1.280   .     A
C69    C98     1.417   .     A
C69    H107    1.079   .     S
C69    C71     1.388   .     A
C70    C72     1.391   .     A
C70    H108    1.079   .     S
C70    C97     1.418   .     A
C71    H99     1.084   .     S
C71    C689    1.391   1_554 S
C72    H100    1.084   .     S
C72    C690    1.392   .     S
C73    C123    1.489   .     S
C73    C78     1.406   .     A
C73    C273    1.380   .     S
C74    C126    1.489   .     S
C74    C77     1.405   .     A
C74    C472    1.380   1_545 S
C75    C77     1.394   .     A
C75    H129    1.086   .     S
C75    C469    1.380   1_545 S
C76    H130    1.085   .     S
C76    C78     1.395   .     A
C76    C272    1.380   .     S
C79    H131    1.082   .     S
C79    N112    1.366   .     A
C79    C147    1.417   .     S
C80    H132    1.082   .     S
C80    N111    1.366   .     A
C81    N111    1.367   .     A
C81    H109    1.082   .     S
C82    H110    1.082   .     S
C82    N112    1.367   .     A
C82    C146    1.417   .     S
C83    O117    1.293   .     A
C83    C85     1.457   .     S
C83    O119    1.294   .     A
C84    O118    1.294   .     A
C84    C86     1.457   .     S
C84    O120    1.293   .     A
C85    C89     1.399   .     A
C85    C91     1.394   .     A
C86    C90     1.400   .     A
C86    C92     1.391   .     A
C87    H105    1.083   .     S
C87    C89     1.393   .     A
C87    C95     1.404   .     A
C88    C96     1.405   .     A
C88    H106    1.084   .     S
C88    C90     1.396   .     A
C89    H104    1.083   .     S
C90    H103    1.083   .     S
C91    C93     1.395   .     A
C91    H102    1.077   .     S
C92    C94     1.393   .     A
C92    H101    1.079   .     S
C93    C95     1.419   .     A
C93    C97     1.418   .     A
C94    C96     1.416   .     A
C94    C98     1.415   .     A
C95    C665    1.391   .     S
C96    C666    1.392   1_554 S
C97    C692    1.413   .     S
C98    C691    1.413   1_554 S
N111   Zn121   2.012   .     S
N112   Zn122   2.012   .     S
O113   Zn121   1.987   .     S
O114   Zn122   1.987   .     S
O115   Zn122   1.985   .     S
O116   Zn121   1.985   .     S
O117   Zn121   1.966   .     S
O118   Zn122   1.966   .     S
O119   Zn122   1.916   .     S
O120   Zn121   1.916   .     S
C123   H124    1.084   .     S
C123   O125    1.221   .     D
C126   O128    1.221   .     D
C126   H127    1.084   .     S
C133   C144    1.410   .     S
C133   O181    1.281   .     A
C133   O179    1.280   .     A
C134   C143    1.409   .     S
C134   O182    1.281   .     A
C134   O180    1.280   .     A
C135   C164    1.417   .     A
C135   H173    1.079   .     S
C135   C137    1.388   .     A
C136   C138    1.391   .     A
C136   H174    1.079   .     S
C136   C163    1.418   .     A
C137   H165    1.084   .     S
C137   C755    1.391   1_554 S
C138   H166    1.084   .     S
C138   C756    1.392   .     S
C139   C189    1.489   .     S
C139   C144    1.406   .     A
C139   C339    1.380   .     S
C140   C192    1.489   .     S
C140   C143    1.405   .     A
C140   C538    1.380   1_545 S
C141   C143    1.394   .     A
C141   H195    1.086   .     S
C141   C535    1.380   1_545 S
C142   H196    1.085   .     S
C142   C144    1.395   .     A
C142   C338    1.380   .     S
C145   H197    1.082   .     S
C145   N178    1.366   .     A
C145   C15     1.417   1_655 S
C146   H198    1.082   .     S
C146   N177    1.366   .     A
C147   N177    1.367   .     A
C147   H175    1.082   .     S
C148   H176    1.082   .     S
C148   N178    1.367   .     A
C148   C14     1.417   1_655 S
C149   O183    1.293   .     A
C149   C151    1.457   .     S
C149   O185    1.294   .     A
C150   O184    1.294   .     A
C150   C152    1.457   .     S
C150   O186    1.293   .     A
C151   C155    1.399   .     A
C151   C157    1.394   .     A
C152   C156    1.400   .     A
C152   C158    1.391   .     A
C153   H171    1.083   .     S
C153   C155    1.393   .     A
C153   C161    1.404   .     A
C154   C162    1.405   .     A
C154   H172    1.084   .     S
C154   C156    1.396   .     A
C155   H170    1.083   .     S
C156   H169    1.083   .     S
C157   C159    1.395   .     A
C157   H168    1.077   .     S
C158   C160    1.393   .     A
C158   H167    1.079   .     S
C159   C161    1.419   .     A
C159   C163    1.418   .     A
C160   C162    1.416   .     A
C160   C164    1.415   .     A
C161   C731    1.391   .     S
C162   C732    1.392   1_554 S
C163   C758    1.413   .     S
C164   C757    1.413   1_554 S
N177   Zn187   2.012   .     S
N178   Zn188   2.012   .     S
O179   Zn187   1.987   .     S
O180   Zn188   1.987   .     S
O181   Zn188   1.985   .     S
O182   Zn187   1.985   .     S
O183   Zn187   1.966   .     S
O184   Zn188   1.966   .     S
O185   Zn188   1.916   .     S
O186   Zn187   1.916   .     S
C189   H190    1.084   .     S
C189   O191    1.221   .     D
C192   O194    1.221   .     D
C192   H193    1.084   .     S
C199   C210    1.410   .     S
C199   O247    1.281   .     A
C199   O245    1.280   .     A
C200   C209    1.409   .     S
C200   O248    1.281   .     A
C200   O246    1.280   .     A
C201   C230    1.417   .     A
C201   H239    1.079   .     S
C201   C203    1.388   .     A
C202   C204    1.391   .     A
C202   H240    1.079   .     S
C202   C229    1.418   .     A
C203   H231    1.084   .     S
C203   C821    1.391   1_554 S
C204   H232    1.084   .     S
C204   C822    1.392   .     S
C205   C255    1.489   .     S
C205   C210    1.406   .     A
C205   C405    1.380   .     S
C206   C258    1.489   .     S
C206   C209    1.405   .     A
C207   C209    1.394   .     A
C207   H261    1.086   .     S
C208   H262    1.085   .     S
C208   C210    1.395   .     A
C208   C404    1.380   .     S
C211   H263    1.082   .     S
C211   N244    1.366   .     A
C211   C279    1.417   .     S
C212   H264    1.082   .     S
C212   N243    1.366   .     A
C212   C346    1.417   1_455 S
C213   N243    1.367   .     A
C213   H241    1.082   .     S
C213   C343    1.417   1_455 S
C214   H242    1.082   .     S
C214   N244    1.367   .     A
C214   C278    1.417   .     S
C215   O249    1.293   .     A
C215   C217    1.457   .     S
C215   O251    1.294   .     A
C216   O250    1.294   .     A
C216   C218    1.457   .     S
C216   O252    1.293   .     A
C217   C221    1.399   .     A
C217   C223    1.394   .     A
C218   C222    1.400   .     A
C218   C224    1.391   .     A
C219   H237    1.083   .     S
C219   C221    1.393   .     A
C219   C227    1.404   .     A
C220   C228    1.405   .     A
C220   H238    1.084   .     S
C220   C222    1.396   .     A
C221   H236    1.083   .     S
C222   H235    1.083   .     S
C223   C225    1.395   .     A
C223   H234    1.077   .     S
C224   C226    1.393   .     A
C224   H233    1.079   .     S
C225   C227    1.419   .     A
C225   C229    1.418   .     A
C226   C228    1.416   .     A
C226   C230    1.415   .     A
C227   C797    1.391   .     S
C228   C798    1.392   1_554 S
C229   C824    1.413   .     S
C230   C823    1.413   1_554 S
N243   Zn253   2.012   .     S
N244   Zn254   2.012   .     S
O245   Zn253   1.987   .     S
O246   Zn254   1.987   .     S
O247   Zn254   1.985   .     S
O248   Zn253   1.985   .     S
O249   Zn253   1.966   .     S
O250   Zn254   1.966   .     S
O251   Zn254   1.916   .     S
O252   Zn253   1.916   .     S
C255   H256    1.084   .     S
C255   O257    1.221   .     D
C258   O260    1.221   .     D
C258   H259    1.084   .     S
C265   C276    1.410   .     S
C265   O313    1.281   .     A
C265   O311    1.280   .     A
C266   C275    1.409   .     S
C266   O314    1.281   .     A
C266   O312    1.280   .     A
C267   C296    1.417   .     A
C267   H305    1.079   .     S
C267   C269    1.388   .     A
C268   C270    1.391   .     A
C268   H306    1.079   .     S
C268   C295    1.418   .     A
C269   H297    1.084   .     S
C269   C887    1.391   1_554 S
C270   H298    1.084   .     S
C270   C888    1.392   .     S
C271   C321    1.489   .     S
C271   C276    1.406   .     A
C271   C471    1.380   .     S
C272   C324    1.489   .     S
C272   C275    1.405   .     A
C273   C275    1.394   .     A
C273   H327    1.086   .     S
C274   H328    1.085   .     S
C274   C276    1.395   .     A
C274   C470    1.380   .     S
C277   H329    1.082   .     S
C277   N310    1.366   .     A
C277   C345    1.417   .     S
C278   H330    1.082   .     S
C278   N309    1.366   .     A
C279   N309    1.367   .     A
C279   H307    1.082   .     S
C280   H308    1.082   .     S
C280   N310    1.367   .     A
C280   C344    1.417   .     S
C281   O315    1.293   .     A
C281   C283    1.457   .     S
C281   O317    1.294   .     A
C282   O316    1.294   .     A
C282   C284    1.457   .     S
C282   O318    1.293   .     A
C283   C287    1.399   .     A
C283   C289    1.394   .     A
C284   C288    1.400   .     A
C284   C290    1.391   .     A
C285   H303    1.083   .     S
C285   C287    1.393   .     A
C285   C293    1.404   .     A
C286   C294    1.405   .     A
C286   H304    1.084   .     S
C286   C288    1.396   .     A
C287   H302    1.083   .     S
C288   H301    1.083   .     S
C289   C291    1.395   .     A
C289   H300    1.077   .     S
C290   C292    1.393   .     A
C290   H299    1.079   .     S
C291   C293    1.419   .     A
C291   C295    1.418   .     A
C292   C294    1.416   .     A
C292   C296    1.415   .     A
C293   C863    1.391   .     S
C294   C864    1.392   1_554 S
C295   C890    1.413   .     S
C296   C889    1.413   1_554 S
N309   Zn319   2.012   .     S
N310   Zn320   2.012   .     S
O311   Zn319   1.987   .     S
O312   Zn320   1.987   .     S
O313   Zn320   1.985   .     S
O314   Zn319   1.985   .     S
O315   Zn319   1.966   .     S
O316   Zn320   1.966   .     S
O317   Zn320   1.916   .     S
O318   Zn319   1.916   .     S
C321   H322    1.084   .     S
C321   O323    1.221   .     D
C324   O326    1.221   .     D
C324   H325    1.084   .     S
C331   C342    1.410   .     S
C331   O379    1.281   .     A
C331   O377    1.280   .     A
C332   C341    1.409   .     S
C332   O380    1.281   .     A
C332   O378    1.280   .     A
C333   C362    1.417   .     A
C333   H371    1.079   .     S
C333   C335    1.388   .     A
C334   C336    1.391   .     A
C334   H372    1.079   .     S
C334   C361    1.418   .     A
C335   H363    1.084   .     S
C335   C953    1.391   1_554 S
C336   H364    1.084   .     S
C336   C954    1.392   .     S
C337   C387    1.489   .     S
C337   C342    1.406   .     A
C337   C537    1.380   .     S
C338   C390    1.489   .     S
C338   C341    1.405   .     A
C339   C341    1.394   .     A
C339   H393    1.086   .     S
C340   H394    1.085   .     S
C340   C342    1.395   .     A
C340   C536    1.380   .     S
C343   H395    1.082   .     S
C343   N376    1.366   .     A
C343   C213    1.417   1_655 S
C344   H396    1.082   .     S
C344   N375    1.366   .     A
C345   N375    1.367   .     A
C345   H373    1.082   .     S
C346   H374    1.082   .     S
C346   N376    1.367   .     A
C346   C212    1.417   1_655 S
C347   O381    1.293   .     A
C347   C349    1.457   .     S
C347   O383    1.294   .     A
C348   O382    1.294   .     A
C348   C350    1.457   .     S
C348   O384    1.293   .     A
C349   C353    1.399   .     A
C349   C355    1.394   .     A
C350   C354    1.400   .     A
C350   C356    1.391   .     A
C351   H369    1.083   .     S
C351   C353    1.393   .     A
C351   C359    1.404   .     A
C352   C360    1.405   .     A
C352   H370    1.084   .     S
C352   C354    1.396   .     A
C353   H368    1.083   .     S
C354   H367    1.083   .     S
C355   C357    1.395   .     A
C355   H366    1.077   .     S
C356   C358    1.393   .     A
C356   H365    1.079   .     S
C357   C359    1.419   .     A
C357   C361    1.418   .     A
C358   C360    1.416   .     A
C358   C362    1.415   .     A
C359   C929    1.391   .     S
C360   C930    1.392   1_554 S
C361   C956    1.413   .     S
C362   C955    1.413   1_554 S
N375   Zn385   2.012   .     S
N376   Zn386   2.012   .     S
O377   Zn385   1.987   .     S
O378   Zn386   1.987   .     S
O379   Zn386   1.985   .     S
O380   Zn385   1.985   .     S
O381   Zn385   1.966   .     S
O382   Zn386   1.966   .     S
O383   Zn386   1.916   .     S
O384   Zn385   1.916   .     S
C387   H388    1.084   .     S
C387   O389    1.221   .     D
C390   O392    1.221   .     D
C390   H391    1.084   .     S
C397   C408    1.410   .     S
C397   O445    1.281   .     A
C397   O443    1.280   .     A
C398   C407    1.409   .     S
C398   O446    1.281   .     A
C398   O444    1.280   .     A
C399   C428    1.417   .     A
C399   H437    1.079   .     S
C399   C401    1.388   .     A
C400   C402    1.391   .     A
C400   H438    1.079   .     S
C400   C427    1.418   .     A
C401   H429    1.084   .     S
C401   C1019   1.391   1_554 S
C402   H430    1.084   .     S
C402   C1020   1.392   .     S
C403   C453    1.489   .     S
C403   C408    1.406   .     A
C403   C9      1.380   1_565 S
C404   C456    1.489   .     S
C404   C407    1.405   .     A
C405   C407    1.394   .     A
C405   H459    1.086   .     S
C406   H460    1.085   .     S
C406   C408    1.395   .     A
C406   C8      1.380   1_565 S
C409   H461    1.082   .     S
C409   N442    1.366   .     A
C409   C477    1.417   .     S
C410   H462    1.082   .     S
C410   N441    1.366   .     A
C410   C544    1.417   1_455 S
C411   N441    1.367   .     A
C411   H439    1.082   .     S
C411   C541    1.417   1_455 S
C412   H440    1.082   .     S
C412   N442    1.367   .     A
C412   C476    1.417   .     S
C413   O447    1.293   .     A
C413   C415    1.457   .     S
C413   O449    1.294   .     A
C414   O448    1.294   .     A
C414   C416    1.457   .     S
C414   O450    1.293   .     A
C415   C419    1.399   .     A
C415   C421    1.394   .     A
C416   C420    1.400   .     A
C416   C422    1.391   .     A
C417   H435    1.083   .     S
C417   C419    1.393   .     A
C417   C425    1.404   .     A
C418   C426    1.405   .     A
C418   H436    1.084   .     S
C418   C420    1.396   .     A
C419   H434    1.083   .     S
C420   H433    1.083   .     S
C421   C423    1.395   .     A
C421   H432    1.077   .     S
C422   C424    1.393   .     A
C422   H431    1.079   .     S
C423   C425    1.419   .     A
C423   C427    1.418   .     A
C424   C426    1.416   .     A
C424   C428    1.415   .     A
C425   C995    1.391   .     S
C426   C996    1.392   1_554 S
C427   C1022   1.413   .     S
C428   C1021   1.413   1_554 S
N441   Zn451   2.012   .     S
N442   Zn452   2.012   .     S
O443   Zn451   1.987   .     S
O444   Zn452   1.987   .     S
O445   Zn452   1.985   .     S
O446   Zn451   1.985   .     S
O447   Zn451   1.966   .     S
O448   Zn452   1.966   .     S
O449   Zn452   1.916   .     S
O450   Zn451   1.916   .     S
C453   H454    1.084   .     S
C453   O455    1.221   .     D
C456   O458    1.221   .     D
C456   H457    1.084   .     S
C463   C474    1.410   .     S
C463   O511    1.281   .     A
C463   O509    1.280   .     A
C464   C473    1.409   .     S
C464   O512    1.281   .     A
C464   O510    1.280   .     A
C465   C494    1.417   .     A
C465   H503    1.079   .     S
C465   C467    1.388   .     A
C466   C468    1.391   .     A
C466   H504    1.079   .     S
C466   C493    1.418   .     A
C467   H495    1.084   .     S
C467   C1085   1.391   1_554 S
C468   H496    1.084   .     S
C468   C1086   1.392   .     S
C469   C519    1.489   .     S
C469   C474    1.406   .     A
C469   C75     1.380   1_565 S
C470   C522    1.489   .     S
C470   C473    1.405   .     A
C471   C473    1.394   .     A
C471   H525    1.086   .     S
C472   H526    1.085   .     S
C472   C474    1.395   .     A
C472   C74     1.380   1_565 S
C475   H527    1.082   .     S
C475   N508    1.366   .     A
C475   C543    1.417   .     S
C476   H528    1.082   .     S
C476   N507    1.366   .     A
C477   N507    1.367   .     A
C477   H505    1.082   .     S
C478   H506    1.082   .     S
C478   N508    1.367   .     A
C478   C542    1.417   .     S
C479   O513    1.293   .     A
C479   C481    1.457   .     S
C479   O515    1.294   .     A
C480   O514    1.294   .     A
C480   C482    1.457   .     S
C480   O516    1.293   .     A
C481   C485    1.399   .     A
C481   C487    1.394   .     A
C482   C486    1.400   .     A
C482   C488    1.391   .     A
C483   H501    1.083   .     S
C483   C485    1.393   .     A
C483   C491    1.404   .     A
C484   C492    1.405   .     A
C484   H502    1.084   .     S
C484   C486    1.396   .     A
C485   H500    1.083   .     S
C486   H499    1.083   .     S
C487   C489    1.395   .     A
C487   H498    1.077   .     S
C488   C490    1.393   .     A
C488   H497    1.079   .     S
C489   C491    1.419   .     A
C489   C493    1.418   .     A
C490   C492    1.416   .     A
C490   C494    1.415   .     A
C491   C1061   1.391   .     S
C492   C1062   1.392   1_554 S
C493   C1088   1.413   .     S
C494   C1087   1.413   1_554 S
N507   Zn517   2.012   .     S
N508   Zn518   2.012   .     S
O509   Zn517   1.987   .     S
O510   Zn518   1.987   .     S
O511   Zn518   1.985   .     S
O512   Zn517   1.985   .     S
O513   Zn517   1.966   .     S
O514   Zn518   1.966   .     S
O515   Zn518   1.916   .     S
O516   Zn517   1.916   .     S
C519   H520    1.084   .     S
C519   O521    1.221   .     D
C522   O524    1.221   .     D
C522   H523    1.084   .     S
C529   C540    1.410   .     S
C529   O577    1.281   .     A
C529   O575    1.280   .     A
C530   C539    1.409   .     S
C530   O578    1.281   .     A
C530   O576    1.280   .     A
C531   C560    1.417   .     A
C531   H569    1.079   .     S
C531   C533    1.388   .     A
C532   C534    1.391   .     A
C532   H570    1.079   .     S
C532   C559    1.418   .     A
C533   H561    1.084   .     S
C533   C1151   1.391   1_554 S
C534   H562    1.084   .     S
C534   C1152   1.392   .     S
C535   C585    1.489   .     S
C535   C540    1.406   .     A
C535   C141    1.380   1_565 S
C536   C588    1.489   .     S
C536   C539    1.405   .     A
C537   C539    1.394   .     A
C537   H591    1.086   .     S
C538   H592    1.085   .     S
C538   C540    1.395   .     A
C538   C140    1.380   1_565 S
C541   H593    1.082   .     S
C541   N574    1.366   .     A
C541   C411    1.417   1_655 S
C542   H594    1.082   .     S
C542   N573    1.366   .     A
C543   N573    1.367   .     A
C543   H571    1.082   .     S
C544   H572    1.082   .     S
C544   N574    1.367   .     A
C544   C410    1.417   1_655 S
C545   O579    1.293   .     A
C545   C547    1.457   .     S
C545   O581    1.294   .     A
C546   O580    1.294   .     A
C546   C548    1.457   .     S
C546   O582    1.293   .     A
C547   C551    1.399   .     A
C547   C553    1.394   .     A
C548   C552    1.400   .     A
C548   C554    1.391   .     A
C549   H567    1.083   .     S
C549   C551    1.393   .     A
C549   C557    1.404   .     A
C550   C558    1.405   .     A
C550   H568    1.084   .     S
C550   C552    1.396   .     A
C551   H566    1.083   .     S
C552   H565    1.083   .     S
C553   C555    1.395   .     A
C553   H564    1.077   .     S
C554   C556    1.393   .     A
C554   H563    1.079   .     S
C555   C557    1.419   .     A
C555   C559    1.418   .     A
C556   C558    1.416   .     A
C556   C560    1.415   .     A
C557   C1127   1.391   .     S
C558   C1128   1.392   1_554 S
C559   C1154   1.413   .     S
C560   C1153   1.413   1_554 S
N573   Zn583   2.012   .     S
N574   Zn584   2.012   .     S
O575   Zn583   1.987   .     S
O576   Zn584   1.987   .     S
O577   Zn584   1.985   .     S
O578   Zn583   1.985   .     S
O579   Zn583   1.966   .     S
O580   Zn584   1.966   .     S
O581   Zn584   1.916   .     S
O582   Zn583   1.916   .     S
C585   H586    1.084   .     S
C585   O587    1.221   .     D
C588   O590    1.221   .     D
C588   H589    1.084   .     S
C595   C606    1.410   .     S
C595   O643    1.281   .     A
C595   O641    1.280   .     A
C596   C605    1.409   .     S
C596   O644    1.281   .     A
C596   O642    1.280   .     A
C597   C626    1.417   .     A
C597   H635    1.079   .     S
C597   C599    1.388   .     A
C598   C600    1.391   .     A
C598   H636    1.079   .     S
C598   C625    1.418   .     A
C599   H627    1.084   .     S
C600   H628    1.084   .     S
C600   C30     1.392   1_556 S
C601   C651    1.489   .     S
C601   C606    1.406   .     A
C601   C801    1.380   .     S
C602   C654    1.489   .     S
C602   C605    1.405   .     A
C602   C1000   1.380   1_545 S
C603   C605    1.394   .     A
C603   H657    1.086   .     S
C603   C997    1.380   1_545 S
C604   H658    1.085   .     S
C604   C606    1.395   .     A
C604   C800    1.380   .     S
C607   H659    1.082   .     S
C607   N640    1.366   .     A
C607   C675    1.417   .     S
C608   H660    1.082   .     S
C608   N639    1.366   .     A
C608   C742    1.417   1_455 S
C609   N639    1.367   .     A
C609   H637    1.082   .     S
C609   C739    1.417   1_455 S
C610   H638    1.082   .     S
C610   N640    1.367   .     A
C610   C674    1.417   .     S
C611   O645    1.293   .     A
C611   C613    1.457   .     S
C611   O647    1.294   .     A
C612   O646    1.294   .     A
C612   C614    1.457   .     S
C612   O648    1.293   .     A
C613   C617    1.399   .     A
C613   C619    1.394   .     A
C614   C618    1.400   .     A
C614   C620    1.391   .     A
C615   H633    1.083   .     S
C615   C617    1.393   .     A
C615   C623    1.404   .     A
C616   C624    1.405   .     A
C616   H634    1.084   .     S
C616   C618    1.396   .     A
C617   H632    1.083   .     S
C618   H631    1.083   .     S
C619   C621    1.395   .     A
C619   H630    1.077   .     S
C620   C622    1.393   .     A
C620   H629    1.079   .     S
C621   C623    1.419   .     A
C621   C625    1.418   .     A
C622   C624    1.416   .     A
C622   C626    1.415   .     A
C623   C5      1.391   1_556 S
C625   C32     1.413   1_556 S
N639   Zn649   2.012   .     S
N640   Zn650   2.012   .     S
O641   Zn649   1.987   .     S
O642   Zn650   1.987   .     S
O643   Zn650   1.985   .     S
O644   Zn649   1.985   .     S
O645   Zn649   1.966   .     S
O646   Zn650   1.966   .     S
O647   Zn650   1.916   .     S
O648   Zn649   1.916   .     S
C651   H652    1.084   .     S
C651   O653    1.221   .     D
C654   O656    1.221   .     D
C654   H655    1.084   .     S
C661   C672    1.410   .     S
C661   O709    1.281   .     A
C661   O707    1.280   .     A
C662   C671    1.409   .     S
C662   O710    1.281   .     A
C662   O708    1.280   .     A
C663   C692    1.417   .     A
C663   H701    1.079   .     S
C663   C665    1.388   .     A
C664   C666    1.391   .     A
C664   H702    1.079   .     S
C664   C691    1.418   .     A
C665   H693    1.084   .     S
C666   H694    1.084   .     S
C666   C96     1.392   1_556 S
C667   C717    1.489   .     S
C667   C672    1.406   .     A
C667   C867    1.380   .     S
C668   C720    1.489   .     S
C668   C671    1.405   .     A
C668   C1066   1.380   1_545 S
C669   C671    1.394   .     A
C669   H723    1.086   .     S
C669   C1063   1.380   1_545 S
C670   H724    1.085   .     S
C670   C672    1.395   .     A
C670   C866    1.380   .     S
C673   H725    1.082   .     S
C673   N706    1.366   .     A
C673   C741    1.417   .     S
C674   H726    1.082   .     S
C674   N705    1.366   .     A
C675   N705    1.367   .     A
C675   H703    1.082   .     S
C676   H704    1.082   .     S
C676   N706    1.367   .     A
C676   C740    1.417   .     S
C677   O711    1.293   .     A
C677   C679    1.457   .     S
C677   O713    1.294   .     A
C678   O712    1.294   .     A
C678   C680    1.457   .     S
C678   O714    1.293   .     A
C679   C683    1.399   .     A
C679   C685    1.394   .     A
C680   C684    1.400   .     A
C680   C686    1.391   .     A
C681   H699    1.083   .     S
C681   C683    1.393   .     A
C681   C689    1.404   .     A
C682   C690    1.405   .     A
C682   H700    1.084   .     S
C682   C684    1.396   .     A
C683   H698    1.083   .     S
C684   H697    1.083   .     S
C685   C687    1.395   .     A
C685   H696    1.077   .     S
C686   C688    1.393   .     A
C686   H695    1.079   .     S
C687   C689    1.419   .     A
C687   C691    1.418   .     A
C688   C690    1.416   .     A
C688   C692    1.415   .     A
C689   C71     1.391   1_556 S
C691   C98     1.413   1_556 S
N705   Zn715   2.012   .     S
N706   Zn716   2.012   .     S
O707   Zn715   1.987   .     S
O708   Zn716   1.987   .     S
O709   Zn716   1.985   .     S
O710   Zn715   1.985   .     S
O711   Zn715   1.966   .     S
O712   Zn716   1.966   .     S
O713   Zn716   1.916   .     S
O714   Zn715   1.916   .     S
C717   H718    1.084   .     S
C717   O719    1.221   .     D
C720   O722    1.221   .     D
C720   H721    1.084   .     S
C727   C738    1.410   .     S
C727   O775    1.281   .     A
C727   O773    1.280   .     A
C728   C737    1.409   .     S
C728   O776    1.281   .     A
C728   O774    1.280   .     A
C729   C758    1.417   .     A
C729   H767    1.079   .     S
C729   C731    1.388   .     A
C730   C732    1.391   .     A
C730   H768    1.079   .     S
C730   C757    1.418   .     A
C731   H759    1.084   .     S
C732   H760    1.084   .     S
C732   C162    1.392   1_556 S
C733   C783    1.489   .     S
C733   C738    1.406   .     A
C733   C933    1.380   .     S
C734   C786    1.489   .     S
C734   C737    1.405   .     A
C734   C1132   1.380   1_545 S
C735   C737    1.394   .     A
C735   H789    1.086   .     S
C735   C1129   1.380   1_545 S
C736   H790    1.085   .     S
C736   C738    1.395   .     A
C736   C932    1.380   .     S
C739   H791    1.082   .     S
C739   N772    1.366   .     A
C739   C609    1.417   1_655 S
C740   H792    1.082   .     S
C740   N771    1.366   .     A
C741   N771    1.367   .     A
C741   H769    1.082   .     S
C742   H770    1.082   .     S
C742   N772    1.367   .     A
C742   C608    1.417   1_655 S
C743   O777    1.293   .     A
C743   C745    1.457   .     S
C743   O779    1.294   .     A
C744   O778    1.294   .     A
C744   C746    1.457   .     S
C744   O780    1.293   .     A
C745   C749    1.399   .     A
C745   C751    1.394   .     A
C746   C750    1.400   .     A
C746   C752    1.391   .     A
C747   H765    1.083   .     S
C747   C749    1.393   .     A
C747   C755    1.404   .     A
C748   C756    1.405   .     A
C748   H766    1.084   .     S
C748   C750    1.396   .     A
C749   H764    1.083   .     S
C750   H763    1.083   .     S
C751   C753    1.395   .     A
C751   H762    1.077   .     S
C752   C754    1.393   .     A
C752   H761    1.079   .     S
C753   C755    1.419   .     A
C753   C757    1.418   .     A
C754   C756    1.416   .     A
C754   C758    1.415   .     A
C755   C137    1.391   1_556 S
C757   C164    1.413   1_556 S
N771   Zn781   2.012   .     S
N772   Zn782   2.012   .     S
O773   Zn781   1.987   .     S
O774   Zn782   1.987   .     S
O775   Zn782   1.985   .     S
O776   Zn781   1.985   .     S
O777   Zn781   1.966   .     S
O778   Zn782   1.966   .     S
O779   Zn782   1.916   .     S
O780   Zn781   1.916   .     S
C783   H784    1.084   .     S
C783   O785    1.221   .     D
C786   O788    1.221   .     D
C786   H787    1.084   .     S
C793   C804    1.410   .     S
C793   O841    1.281   .     A
C793   O839    1.280   .     A
C794   C803    1.409   .     S
C794   O842    1.281   .     A
C794   O840    1.280   .     A
C795   C824    1.417   .     A
C795   H833    1.079   .     S
C795   C797    1.388   .     A
C796   C798    1.391   .     A
C796   H834    1.079   .     S
C796   C823    1.418   .     A
C797   H825    1.084   .     S
C798   H826    1.084   .     S
C798   C228    1.392   1_556 S
C799   C849    1.489   .     S
C799   C804    1.406   .     A
C799   C999    1.380   .     S
C800   C852    1.489   .     S
C800   C803    1.405   .     A
C801   C803    1.394   .     A
C801   H855    1.086   .     S
C802   H856    1.085   .     S
C802   C804    1.395   .     A
C802   C998    1.380   .     S
C805   H857    1.082   .     S
C805   N838    1.366   .     A
C805   C873    1.417   .     S
C806   H858    1.082   .     S
C806   N837    1.366   .     A
C806   C940    1.417   1_455 S
C807   N837    1.367   .     A
C807   H835    1.082   .     S
C807   C937    1.417   1_455 S
C808   H836    1.082   .     S
C808   N838    1.367   .     A
C808   C872    1.417   .     S
C809   O843    1.293   .     A
C809   C811    1.457   .     S
C809   O845    1.294   .     A
C810   O844    1.294   .     A
C810   C812    1.457   .     S
C810   O846    1.293   .     A
C811   C815    1.399   .     A
C811   C817    1.394   .     A
C812   C816    1.400   .     A
C812   C818    1.391   .     A
C813   H831    1.083   .     S
C813   C815    1.393   .     A
C813   C821    1.404   .     A
C814   C822    1.405   .     A
C814   H832    1.084   .     S
C814   C816    1.396   .     A
C815   H830    1.083   .     S
C816   H829    1.083   .     S
C817   C819    1.395   .     A
C817   H828    1.077   .     S
C818   C820    1.393   .     A
C818   H827    1.079   .     S
C819   C821    1.419   .     A
C819   C823    1.418   .     A
C820   C822    1.416   .     A
C820   C824    1.415   .     A
C821   C203    1.391   1_556 S
C823   C230    1.413   1_556 S
N837   Zn847   2.012   .     S
N838   Zn848   2.012   .     S
O839   Zn847   1.987   .     S
O840   Zn848   1.987   .     S
O841   Zn848   1.985   .     S
O842   Zn847   1.985   .     S
O843   Zn847   1.966   .     S
O844   Zn848   1.966   .     S
O845   Zn848   1.916   .     S
O846   Zn847   1.916   .     S
C849   H850    1.084   .     S
C849   O851    1.221   .     D
C852   O854    1.221   .     D
C852   H853    1.084   .     S
C859   C870    1.410   .     S
C859   O907    1.281   .     A
C859   O905    1.280   .     A
C860   C869    1.409   .     S
C860   O908    1.281   .     A
C860   O906    1.280   .     A
C861   C890    1.417   .     A
C861   H899    1.079   .     S
C861   C863    1.388   .     A
C862   C864    1.391   .     A
C862   H900    1.079   .     S
C862   C889    1.418   .     A
C863   H891    1.084   .     S
C864   H892    1.084   .     S
C864   C294    1.392   1_556 S
C865   C915    1.489   .     S
C865   C870    1.406   .     A
C865   C1065   1.380   .     S
C866   C918    1.489   .     S
C866   C869    1.405   .     A
C867   C869    1.394   .     A
C867   H921    1.086   .     S
C868   H922    1.085   .     S
C868   C870    1.395   .     A
C868   C1064   1.380   .     S
C871   H923    1.082   .     S
C871   N904    1.366   .     A
C871   C939    1.417   .     S
C872   H924    1.082   .     S
C872   N903    1.366   .     A
C873   N903    1.367   .     A
C873   H901    1.082   .     S
C874   H902    1.082   .     S
C874   N904    1.367   .     A
C874   C938    1.417   .     S
C875   O909    1.293   .     A
C875   C877    1.457   .     S
C875   O911    1.294   .     A
C876   O910    1.294   .     A
C876   C878    1.457   .     S
C876   O912    1.293   .     A
C877   C881    1.399   .     A
C877   C883    1.394   .     A
C878   C882    1.400   .     A
C878   C884    1.391   .     A
C879   H897    1.083   .     S
C879   C881    1.393   .     A
C879   C887    1.404   .     A
C880   C888    1.405   .     A
C880   H898    1.084   .     S
C880   C882    1.396   .     A
C881   H896    1.083   .     S
C882   H895    1.083   .     S
C883   C885    1.395   .     A
C883   H894    1.077   .     S
C884   C886    1.393   .     A
C884   H893    1.079   .     S
C885   C887    1.419   .     A
C885   C889    1.418   .     A
C886   C888    1.416   .     A
C886   C890    1.415   .     A
C887   C269    1.391   1_556 S
C889   C296    1.413   1_556 S
N903   Zn913   2.012   .     S
N904   Zn914   2.012   .     S
O905   Zn913   1.987   .     S
O906   Zn914   1.987   .     S
O907   Zn914   1.985   .     S
O908   Zn913   1.985   .     S
O909   Zn913   1.966   .     S
O910   Zn914   1.966   .     S
O911   Zn914   1.916   .     S
O912   Zn913   1.916   .     S
C915   H916    1.084   .     S
C915   O917    1.221   .     D
C918   O920    1.221   .     D
C918   H919    1.084   .     S
C925   C936    1.410   .     S
C925   O973    1.281   .     A
C925   O971    1.280   .     A
C926   C935    1.409   .     S
C926   O974    1.281   .     A
C926   O972    1.280   .     A
C927   C956    1.417   .     A
C927   H965    1.079   .     S
C927   C929    1.388   .     A
C928   C930    1.391   .     A
C928   H966    1.079   .     S
C928   C955    1.418   .     A
C929   H957    1.084   .     S
C930   H958    1.084   .     S
C930   C360    1.392   1_556 S
C931   C981    1.489   .     S
C931   C936    1.406   .     A
C931   C1131   1.380   .     S
C932   C984    1.489   .     S
C932   C935    1.405   .     A
C933   C935    1.394   .     A
C933   H987    1.086   .     S
C934   H988    1.085   .     S
C934   C936    1.395   .     A
C934   C1130   1.380   .     S
C937   H989    1.082   .     S
C937   N970    1.366   .     A
C937   C807    1.417   1_655 S
C938   H990    1.082   .     S
C938   N969    1.366   .     A
C939   N969    1.367   .     A
C939   H967    1.082   .     S
C940   H968    1.082   .     S
C940   N970    1.367   .     A
C940   C806    1.417   1_655 S
C941   O975    1.293   .     A
C941   C943    1.457   .     S
C941   O977    1.294   .     A
C942   O976    1.294   .     A
C942   C944    1.457   .     S
C942   O978    1.293   .     A
C943   C947    1.399   .     A
C943   C949    1.394   .     A
C944   C948    1.400   .     A
C944   C950    1.391   .     A
C945   H963    1.083   .     S
C945   C947    1.393   .     A
C945   C953    1.404   .     A
C946   C954    1.405   .     A
C946   H964    1.084   .     S
C946   C948    1.396   .     A
C947   H962    1.083   .     S
C948   H961    1.083   .     S
C949   C951    1.395   .     A
C949   H960    1.077   .     S
C950   C952    1.393   .     A
C950   H959    1.079   .     S
C951   C953    1.419   .     A
C951   C955    1.418   .     A
C952   C954    1.416   .     A
C952   C956    1.415   .     A
C953   C335    1.391   1_556 S
C955   C362    1.413   1_556 S
N969   Zn979   2.012   .     S
N970   Zn980   2.012   .     S
O971   Zn979   1.987   .     S
O972   Zn980   1.987   .     S
O973   Zn980   1.985   .     S
O974   Zn979   1.985   .     S
O975   Zn979   1.966   .     S
O976   Zn980   1.966   .     S
O977   Zn980   1.916   .     S
O978   Zn979   1.916   .     S
C981   H982    1.084   .     S
C981   O983    1.221   .     D
C984   O986    1.221   .     D
C984   H985    1.084   .     S
C991   C1002   1.410   .     S
C991   O1039   1.281   .     A
C991   O1037   1.280   .     A
C992   C1001   1.409   .     S
C992   O1040   1.281   .     A
C992   O1038   1.280   .     A
C993   C1022   1.417   .     A
C993   H1031   1.079   .     S
C993   C995    1.388   .     A
C994   C996    1.391   .     A
C994   H1032   1.079   .     S
C994   C1021   1.418   .     A
C995   H1023   1.084   .     S
C996   H1024   1.084   .     S
C996   C426    1.392   1_556 S
C997   C1047   1.489   .     S
C997   C1002   1.406   .     A
C997   C603    1.380   1_565 S
C998   C1050   1.489   .     S
C998   C1001   1.405   .     A
C999   C1001   1.394   .     A
C999   H1053   1.086   .     S
C1000  H1054   1.085   .     S
C1000  C1002   1.395   .     A
C1000  C602    1.380   1_565 S
C1003  H1055   1.082   .     S
C1003  N1036   1.366   .     A
C1003  C1071   1.417   .     S
C1004  H1056   1.082   .     S
C1004  N1035   1.366   .     A
C1004  C1138   1.417   1_455 S
C1005  N1035   1.367   .     A
C1005  H1033   1.082   .     S
C1005  C1135   1.417   1_455 S
C1006  H1034   1.082   .     S
C1006  N1036   1.367   .     A
C1006  C1070   1.417   .     S
C1007  O1041   1.293   .     A
C1007  C1009   1.457   .     S
C1007  O1043   1.294   .     A
C1008  O1042   1.294   .     A
C1008  C1010   1.457   .     S
C1008  O1044   1.293   .     A
C1009  C1013   1.399   .     A
C1009  C1015   1.394   .     A
C1010  C1014   1.400   .     A
C1010  C1016   1.391   .     A
C1011  H1029   1.083   .     S
C1011  C1013   1.393   .     A
C1011  C1019   1.404   .     A
C1012  C1020   1.405   .     A
C1012  H1030   1.084   .     S
C1012  C1014   1.396   .     A
C1013  H1028   1.083   .     S
C1014  H1027   1.083   .     S
C1015  C1017   1.395   .     A
C1015  H1026   1.077   .     S
C1016  C1018   1.393   .     A
C1016  H1025   1.079   .     S
C1017  C1019   1.419   .     A
C1017  C1021   1.418   .     A
C1018  C1020   1.416   .     A
C1018  C1022   1.415   .     A
C1019  C401    1.391   1_556 S
C1021  C428    1.413   1_556 S
N1035  Zn1045  2.012   .     S
N1036  Zn1046  2.012   .     S
O1037  Zn1045  1.987   .     S
O1038  Zn1046  1.987   .     S
O1039  Zn1046  1.985   .     S
O1040  Zn1045  1.985   .     S
O1041  Zn1045  1.966   .     S
O1042  Zn1046  1.966   .     S
O1043  Zn1046  1.916   .     S
O1044  Zn1045  1.916   .     S
C1047  H1048   1.084   .     S
C1047  O1049   1.221   .     D
C1050  O1052   1.221   .     D
C1050  H1051   1.084   .     S
C1057  C1068   1.410   .     S
C1057  O1105   1.281   .     A
C1057  O1103   1.280   .     A
C1058  C1067   1.409   .     S
C1058  O1106   1.281   .     A
C1058  O1104   1.280   .     A
C1059  C1088   1.417   .     A
C1059  H1097   1.079   .     S
C1059  C1061   1.388   .     A
C1060  C1062   1.391   .     A
C1060  H1098   1.079   .     S
C1060  C1087   1.418   .     A
C1061  H1089   1.084   .     S
C1062  H1090   1.084   .     S
C1062  C492    1.392   1_556 S
C1063  C1113   1.489   .     S
C1063  C1068   1.406   .     A
C1063  C669    1.380   1_565 S
C1064  C1116   1.489   .     S
C1064  C1067   1.405   .     A
C1065  C1067   1.394   .     A
C1065  H1119   1.086   .     S
C1066  H1120   1.085   .     S
C1066  C1068   1.395   .     A
C1066  C668    1.380   1_565 S
C1069  H1121   1.082   .     S
C1069  N1102   1.366   .     A
C1069  C1137   1.417   .     S
C1070  H1122   1.082   .     S
C1070  N1101   1.366   .     A
C1071  N1101   1.367   .     A
C1071  H1099   1.082   .     S
C1072  H1100   1.082   .     S
C1072  N1102   1.367   .     A
C1072  C1136   1.417   .     S
C1073  O1107   1.293   .     A
C1073  C1075   1.457   .     S
C1073  O1109   1.294   .     A
C1074  O1108   1.294   .     A
C1074  C1076   1.457   .     S
C1074  O1110   1.293   .     A
C1075  C1079   1.399   .     A
C1075  C1081   1.394   .     A
C1076  C1080   1.400   .     A
C1076  C1082   1.391   .     A
C1077  H1095   1.083   .     S
C1077  C1079   1.393   .     A
C1077  C1085   1.404   .     A
C1078  C1086   1.405   .     A
C1078  H1096   1.084   .     S
C1078  C1080   1.396   .     A
C1079  H1094   1.083   .     S
C1080  H1093   1.083   .     S
C1081  C1083   1.395   .     A
C1081  H1092   1.077   .     S
C1082  C1084   1.393   .     A
C1082  H1091   1.079   .     S
C1083  C1085   1.419   .     A
C1083  C1087   1.418   .     A
C1084  C1086   1.416   .     A
C1084  C1088   1.415   .     A
C1085  C467    1.391   1_556 S
C1087  C494    1.413   1_556 S
N1101  Zn1111  2.012   .     S
N1102  Zn1112  2.012   .     S
O1103  Zn1111  1.987   .     S
O1104  Zn1112  1.987   .     S
O1105  Zn1112  1.985   .     S
O1106  Zn1111  1.985   .     S
O1107  Zn1111  1.966   .     S
O1108  Zn1112  1.966   .     S
O1109  Zn1112  1.916   .     S
O1110  Zn1111  1.916   .     S
C1113  H1114   1.084   .     S
C1113  O1115   1.221   .     D
C1116  O1118   1.221   .     D
C1116  H1117   1.084   .     S
C1123  C1134   1.410   .     S
C1123  O1171   1.281   .     A
C1123  O1169   1.280   .     A
C1124  C1133   1.409   .     S
C1124  O1172   1.281   .     A
C1124  O1170   1.280   .     A
C1125  C1154   1.417   .     A
C1125  H1163   1.079   .     S
C1125  C1127   1.388   .     A
C1126  C1128   1.391   .     A
C1126  H1164   1.079   .     S
C1126  C1153   1.418   .     A
C1127  H1155   1.084   .     S
C1128  H1156   1.084   .     S
C1128  C558    1.392   1_556 S
C1129  C1179   1.489   .     S
C1129  C1134   1.406   .     A
C1129  C735    1.380   1_565 S
C1130  C1182   1.489   .     S
C1130  C1133   1.405   .     A
C1131  C1133   1.394   .     A
C1131  H1185   1.086   .     S
C1132  H1186   1.085   .     S
C1132  C1134   1.395   .     A
C1132  C734    1.380   1_565 S
C1135  H1187   1.082   .     S
C1135  N1168   1.366   .     A
C1135  C1005   1.417   1_655 S
C1136  H1188   1.082   .     S
C1136  N1167   1.366   .     A
C1137  N1167   1.367   .     A
C1137  H1165   1.082   .     S
C1138  H1166   1.082   .     S
C1138  N1168   1.367   .     A
C1138  C1004   1.417   1_655 S
C1139  O1173   1.293   .     A
C1139  C1141   1.457   .     S
C1139  O1175   1.294   .     A
C1140  O1174   1.294   .     A
C1140  C1142   1.457   .     S
C1140  O1176   1.293   .     A
C1141  C1145   1.399   .     A
C1141  C1147   1.394   .     A
C1142  C1146   1.400   .     A
C1142  C1148   1.391   .     A
C1143  H1161   1.083   .     S
C1143  C1145   1.393   .     A
C1143  C1151   1.404   .     A
C1144  C1152   1.405   .     A
C1144  H1162   1.084   .     S
C1144  C1146   1.396   .     A
C1145  H1160   1.083   .     S
C1146  H1159   1.083   .     S
C1147  C1149   1.395   .     A
C1147  H1158   1.077   .     S
C1148  C1150   1.393   .     A
C1148  H1157   1.079   .     S
C1149  C1151   1.419   .     A
C1149  C1153   1.418   .     A
C1150  C1152   1.416   .     A
C1150  C1154   1.415   .     A
C1151  C533    1.391   1_556 S
C1153  C560    1.413   1_556 S
N1167  Zn1177  2.012   .     S
N1168  Zn1178  2.012   .     S
O1169  Zn1177  1.987   .     S
O1170  Zn1178  1.987   .     S
O1171  Zn1178  1.985   .     S
O1172  Zn1177  1.985   .     S
O1173  Zn1177  1.966   .     S
O1174  Zn1178  1.966   .     S
O1175  Zn1178  1.916   .     S
O1176  Zn1177  1.916   .     S
C1179  H1180   1.084   .     S
C1179  O1181   1.221   .     D
C1182  O1184   1.221   .     D
C1182  H1183   1.084   .     S
