data_str_m3_o1_o10_pcu_sym.54
_audit_creation_date              2020-01-03
_audit_creation_method            'Materials Studio'
_symmetry_space_group_name_H-M    'P1'
_symmetry_Int_Tables_number       1
_symmetry_cell_setting            triclinic
loop_
_symmetry_equiv_pos_as_xyz
  x,y,z
_cell_length_a                    26.0819
_cell_length_b                    32.0469
_cell_length_c                    29.4625
_cell_angle_alpha                 90.4281
_cell_angle_beta                  98.9090
_cell_angle_gamma                 91.3237
loop_
_atom_site_label
_atom_site_type_symbol
_atom_site_fract_x
_atom_site_fract_y
_atom_site_fract_z
_atom_site_U_iso_or_equiv
_atom_site_adp_type
_atom_site_occupancy
C1     C     0.16667   0.08680   0.16664   0.00000  Uiso   1.00
C2     C     0.21117   0.02311   0.19043   0.00000  Uiso   1.00
C3     C     0.16720   0.29077   0.16727   0.00000  Uiso   1.00
C4     C     0.16684   0.04263   0.16708   0.00000  Uiso   1.00
C5     C     0.19719   0.19452   0.02839   0.00000  Uiso   1.00
C6     C     0.13624   0.13871   0.30495   0.00000  Uiso   1.00
C7     C     0.19732   0.19436   0.31376   0.00000  Uiso   1.00
C8     C     0.13617   0.13877   0.01962   0.00000  Uiso   1.00
C9     C     0.07231   0.04402   0.12823   0.00000  Uiso   1.00
C10    C     0.04266   0.05335   0.16771   0.00000  Uiso   1.00
C11    C     0.25980   0.28928   0.21198   0.00000  Uiso   1.00
C12    C     0.16715   0.24656   0.16689   0.00000  Uiso   1.00
C13    C     0.26560   0.29048   0.26450   0.00000  Uiso   1.00
C14    C     0.07290   0.28467   0.12670   0.00000  Uiso   1.00
C15    C     0.06882   0.27752   0.07483   0.00000  Uiso   1.00
C16    C     0.25725   0.04934   0.21538   0.00000  Uiso   1.00
C17    C     0.25053   0.06179   0.26455   0.00000  Uiso   1.00
C18    C     0.06709   0.16659   0.15479   0.00000  Uiso   1.00
C19    C     0.26624   0.16641   0.17852   0.00000  Uiso   1.00
C20    C     0.01256   0.16215   0.14862   0.00000  Uiso   1.00
C21    C     0.32079   0.17051   0.18463   0.00000  Uiso   1.00
C22    C     0.12180   0.02068   0.14594   0.00000  Uiso   1.00
C23    C     0.21191   0.31272   0.18958   0.00000  Uiso   1.00
C24    C     0.12179   0.31039   0.14629   0.00000  Uiso   1.00
H25    H     0.22169   0.21673   0.05014   0.00000  Uiso   1.00
H26    H     0.22705   0.28993   0.27612   0.00000  Uiso   1.00
H27    H     0.28724   0.26318   0.27916   0.00000  Uiso   1.00
H28    H     0.28830   0.31842   0.27875   0.00000  Uiso   1.00
H29    H     0.25860   0.25614   0.20102   0.00000  Uiso   1.00
H30    H     0.29556   0.30140   0.20012   0.00000  Uiso   1.00
H31    H     0.10150   0.25876   0.06677   0.00000  Uiso   1.00
H32    H     0.03198   0.26028   0.06186   0.00000  Uiso   1.00
H33    H     0.06928   0.30751   0.05634   0.00000  Uiso   1.00
H34    H     0.07164   0.25395   0.14352   0.00000  Uiso   1.00
H35    H     0.03725   0.29947   0.13457   0.00000  Uiso   1.00
H36    H     0.11187   0.11643   0.28319   0.00000  Uiso   1.00
H37    H     0.28855   0.06093   0.28747   0.00000  Uiso   1.00
H38    H     0.23700   0.09418   0.26617   0.00000  Uiso   1.00
H39    H     0.22274   0.04042   0.27840   0.00000  Uiso   1.00
H40    H     0.29406   0.03289   0.21721   0.00000  Uiso   1.00
H41    H     0.26397   0.07776   0.19564   0.00000  Uiso   1.00
H42    H     0.22200   0.21621   0.29909   0.00000  Uiso   1.00
H43    H     0.11176   0.11655   0.03436   0.00000  Uiso   1.00
H44    H     0.03712   0.02445   0.18708   0.00000  Uiso   1.00
H45    H     0.06411   0.07691   0.19165   0.00000  Uiso   1.00
H46    H     0.00406   0.06562   0.15391   0.00000  Uiso   1.00
H47    H     0.08062   0.07350   0.11113   0.00000  Uiso   1.00
H48    H     0.04639   0.02652   0.10104   0.00000  Uiso   1.00
I49    I     0.31434   0.13537   0.08195   0.00000  Uiso   1.00
I50    I     0.01935   0.19667   0.25141   0.00000  Uiso   1.00
N51    N     0.16665   0.16666   0.28573   0.00000  Uiso   1.00
N52    N     0.16668   0.16668   0.04760   0.00000  Uiso   1.00
O53    O     0.16666   0.10558   0.20487   0.00000  Uiso   1.00
O54    O     0.16667   0.22775   0.12846   0.00000  Uiso   1.00
O55    O     0.16666   0.10559   0.12843   0.00000  Uiso   1.00
O56    O     0.16667   0.22774   0.20490   0.00000  Uiso   1.00
O57    O     0.09058   0.16666   0.19595   0.00000  Uiso   1.00
O58    O     0.24275   0.16667   0.13739   0.00000  Uiso   1.00
O59    O     0.09058   0.16667   0.11950   0.00000  Uiso   1.00
O60    O     0.24275   0.16666   0.21383   0.00000  Uiso   1.00
Zn61   Zn    0.16667   0.16666   0.21771   0.00000  Uiso   1.00
Zn62   Zn    0.16667   0.16667   0.11563   0.00000  Uiso   1.00
C63    C     0.50000   0.08680   0.16664   0.00000  Uiso   1.00
C64    C     0.54451   0.02311   0.19043   0.00000  Uiso   1.00
C65    C     0.50053   0.29077   0.16727   0.00000  Uiso   1.00
C66    C     0.50017   0.04263   0.16708   0.00000  Uiso   1.00
C67    C     0.53053   0.19452   0.02839   0.00000  Uiso   1.00
C68    C     0.46957   0.13871   0.30495   0.00000  Uiso   1.00
C69    C     0.53066   0.19436   0.31376   0.00000  Uiso   1.00
C70    C     0.46950   0.13877   0.01962   0.00000  Uiso   1.00
C71    C     0.40565   0.04402   0.12823   0.00000  Uiso   1.00
C72    C     0.37599   0.05335   0.16771   0.00000  Uiso   1.00
C73    C     0.59313   0.28928   0.21198   0.00000  Uiso   1.00
C74    C     0.50048   0.24656   0.16689   0.00000  Uiso   1.00
C75    C     0.59893   0.29048   0.26450   0.00000  Uiso   1.00
C76    C     0.40623   0.28467   0.12670   0.00000  Uiso   1.00
C77    C     0.40215   0.27752   0.07483   0.00000  Uiso   1.00
C78    C     0.59059   0.04934   0.21538   0.00000  Uiso   1.00
C79    C     0.58386   0.06179   0.26455   0.00000  Uiso   1.00
C80    C     0.40042   0.16659   0.15479   0.00000  Uiso   1.00
C81    C     0.59958   0.16641   0.17852   0.00000  Uiso   1.00
C82    C     0.34590   0.16215   0.14862   0.00000  Uiso   1.00
C83    C     0.65412   0.17051   0.18463   0.00000  Uiso   1.00
C84    C     0.45513   0.02068   0.14594   0.00000  Uiso   1.00
C85    C     0.54524   0.31272   0.18958   0.00000  Uiso   1.00
C86    C     0.45512   0.31039   0.14629   0.00000  Uiso   1.00
H87    H     0.55502   0.21673   0.05014   0.00000  Uiso   1.00
H88    H     0.56039   0.28993   0.27612   0.00000  Uiso   1.00
H89    H     0.62057   0.26318   0.27916   0.00000  Uiso   1.00
H90    H     0.62164   0.31842   0.27875   0.00000  Uiso   1.00
H91    H     0.59193   0.25614   0.20102   0.00000  Uiso   1.00
H92    H     0.62890   0.30140   0.20012   0.00000  Uiso   1.00
H93    H     0.43484   0.25876   0.06677   0.00000  Uiso   1.00
H94    H     0.36531   0.26028   0.06186   0.00000  Uiso   1.00
H95    H     0.40261   0.30751   0.05634   0.00000  Uiso   1.00
H96    H     0.40497   0.25395   0.14352   0.00000  Uiso   1.00
H97    H     0.37059   0.29947   0.13457   0.00000  Uiso   1.00
H98    H     0.44520   0.11643   0.28319   0.00000  Uiso   1.00
H99    H     0.62188   0.06093   0.28747   0.00000  Uiso   1.00
H100   H     0.57033   0.09418   0.26617   0.00000  Uiso   1.00
H101   H     0.55607   0.04042   0.27840   0.00000  Uiso   1.00
H102   H     0.62739   0.03289   0.21721   0.00000  Uiso   1.00
H103   H     0.59731   0.07776   0.19564   0.00000  Uiso   1.00
H104   H     0.55533   0.21621   0.29909   0.00000  Uiso   1.00
H105   H     0.44509   0.11655   0.03436   0.00000  Uiso   1.00
H106   H     0.37045   0.02445   0.18708   0.00000  Uiso   1.00
H107   H     0.39744   0.07691   0.19165   0.00000  Uiso   1.00
H108   H     0.33739   0.06562   0.15391   0.00000  Uiso   1.00
H109   H     0.41396   0.07350   0.11113   0.00000  Uiso   1.00
H110   H     0.37972   0.02652   0.10104   0.00000  Uiso   1.00
I111   I     0.64767   0.13537   0.08195   0.00000  Uiso   1.00
I112   I     0.35268   0.19667   0.25141   0.00000  Uiso   1.00
N113   N     0.49999   0.16666   0.28573   0.00000  Uiso   1.00
N114   N     0.50001   0.16668   0.04760   0.00000  Uiso   1.00
O115   O     0.50000   0.10558   0.20487   0.00000  Uiso   1.00
O116   O     0.50000   0.22775   0.12846   0.00000  Uiso   1.00
O117   O     0.50000   0.10559   0.12843   0.00000  Uiso   1.00
O118   O     0.50000   0.22774   0.20490   0.00000  Uiso   1.00
O119   O     0.42392   0.16666   0.19595   0.00000  Uiso   1.00
O120   O     0.57608   0.16667   0.13739   0.00000  Uiso   1.00
O121   O     0.42392   0.16667   0.11950   0.00000  Uiso   1.00
O122   O     0.57608   0.16666   0.21383   0.00000  Uiso   1.00
Zn123  Zn    0.50000   0.16666   0.21771   0.00000  Uiso   1.00
Zn124  Zn    0.50000   0.16667   0.11563   0.00000  Uiso   1.00
C125   C     0.83333   0.08680   0.16664   0.00000  Uiso   1.00
C126   C     0.87784   0.02311   0.19043   0.00000  Uiso   1.00
C127   C     0.83387   0.29077   0.16727   0.00000  Uiso   1.00
C128   C     0.83350   0.04263   0.16708   0.00000  Uiso   1.00
C129   C     0.86386   0.19452   0.02839   0.00000  Uiso   1.00
C130   C     0.80290   0.13871   0.30495   0.00000  Uiso   1.00
C131   C     0.86399   0.19436   0.31376   0.00000  Uiso   1.00
C132   C     0.80284   0.13877   0.01962   0.00000  Uiso   1.00
C133   C     0.73898   0.04402   0.12823   0.00000  Uiso   1.00
C134   C     0.70932   0.05335   0.16771   0.00000  Uiso   1.00
C135   C     0.92647   0.28928   0.21198   0.00000  Uiso   1.00
C136   C     0.83382   0.24656   0.16689   0.00000  Uiso   1.00
C137   C     0.93227   0.29048   0.26450   0.00000  Uiso   1.00
C138   C     0.73956   0.28467   0.12670   0.00000  Uiso   1.00
C139   C     0.73549   0.27752   0.07483   0.00000  Uiso   1.00
C140   C     0.92392   0.04934   0.21538   0.00000  Uiso   1.00
C141   C     0.91720   0.06179   0.26455   0.00000  Uiso   1.00
C142   C     0.73375   0.16659   0.15479   0.00000  Uiso   1.00
C143   C     0.93291   0.16641   0.17852   0.00000  Uiso   1.00
C144   C     0.67923   0.16215   0.14862   0.00000  Uiso   1.00
C145   C     0.98745   0.17051   0.18463   0.00000  Uiso   1.00
C146   C     0.78846   0.02068   0.14594   0.00000  Uiso   1.00
C147   C     0.87858   0.31272   0.18958   0.00000  Uiso   1.00
C148   C     0.78845   0.31039   0.14629   0.00000  Uiso   1.00
H149   H     0.88836   0.21673   0.05014   0.00000  Uiso   1.00
H150   H     0.89372   0.28993   0.27612   0.00000  Uiso   1.00
H151   H     0.95390   0.26318   0.27916   0.00000  Uiso   1.00
H152   H     0.95497   0.31842   0.27875   0.00000  Uiso   1.00
H153   H     0.92526   0.25614   0.20102   0.00000  Uiso   1.00
H154   H     0.96223   0.30140   0.20012   0.00000  Uiso   1.00
H155   H     0.76817   0.25876   0.06677   0.00000  Uiso   1.00
H156   H     0.69865   0.26028   0.06186   0.00000  Uiso   1.00
H157   H     0.73595   0.30751   0.05634   0.00000  Uiso   1.00
H158   H     0.73830   0.25395   0.14352   0.00000  Uiso   1.00
H159   H     0.70392   0.29947   0.13457   0.00000  Uiso   1.00
H160   H     0.77853   0.11643   0.28319   0.00000  Uiso   1.00
H161   H     0.95521   0.06093   0.28747   0.00000  Uiso   1.00
H162   H     0.90367   0.09418   0.26617   0.00000  Uiso   1.00
H163   H     0.88941   0.04042   0.27840   0.00000  Uiso   1.00
H164   H     0.96073   0.03289   0.21721   0.00000  Uiso   1.00
H165   H     0.93064   0.07776   0.19564   0.00000  Uiso   1.00
H166   H     0.88867   0.21621   0.29909   0.00000  Uiso   1.00
H167   H     0.77842   0.11655   0.03436   0.00000  Uiso   1.00
H168   H     0.70378   0.02445   0.18708   0.00000  Uiso   1.00
H169   H     0.73077   0.07691   0.19165   0.00000  Uiso   1.00
H170   H     0.67073   0.06562   0.15391   0.00000  Uiso   1.00
H171   H     0.74729   0.07350   0.11113   0.00000  Uiso   1.00
H172   H     0.71306   0.02652   0.10104   0.00000  Uiso   1.00
I173   I     0.98100   0.13537   0.08195   0.00000  Uiso   1.00
I174   I     0.68602   0.19667   0.25141   0.00000  Uiso   1.00
N175   N     0.83332   0.16666   0.28573   0.00000  Uiso   1.00
N176   N     0.83335   0.16668   0.04760   0.00000  Uiso   1.00
O177   O     0.83333   0.10558   0.20487   0.00000  Uiso   1.00
O178   O     0.83334   0.22775   0.12846   0.00000  Uiso   1.00
O179   O     0.83333   0.10559   0.12843   0.00000  Uiso   1.00
O180   O     0.83334   0.22774   0.20490   0.00000  Uiso   1.00
O181   O     0.75725   0.16666   0.19595   0.00000  Uiso   1.00
O182   O     0.90942   0.16667   0.13739   0.00000  Uiso   1.00
O183   O     0.75725   0.16667   0.11950   0.00000  Uiso   1.00
O184   O     0.90942   0.16666   0.21383   0.00000  Uiso   1.00
Zn185  Zn    0.83333   0.16666   0.21771   0.00000  Uiso   1.00
Zn186  Zn    0.83333   0.16667   0.11563   0.00000  Uiso   1.00
C187   C     0.16667   0.42013   0.16664   0.00000  Uiso   1.00
C188   C     0.21117   0.35644   0.19043   0.00000  Uiso   1.00
C189   C     0.16720   0.62410   0.16727   0.00000  Uiso   1.00
C190   C     0.16684   0.37596   0.16708   0.00000  Uiso   1.00
C191   C     0.19719   0.52786   0.02839   0.00000  Uiso   1.00
C192   C     0.13624   0.47204   0.30495   0.00000  Uiso   1.00
C193   C     0.19732   0.52769   0.31376   0.00000  Uiso   1.00
C194   C     0.13617   0.47210   0.01962   0.00000  Uiso   1.00
C195   C     0.07231   0.37736   0.12823   0.00000  Uiso   1.00
C196   C     0.04266   0.38668   0.16771   0.00000  Uiso   1.00
C197   C     0.25980   0.62261   0.21198   0.00000  Uiso   1.00
C198   C     0.16715   0.57990   0.16689   0.00000  Uiso   1.00
C199   C     0.26560   0.62381   0.26450   0.00000  Uiso   1.00
C200   C     0.07290   0.61800   0.12670   0.00000  Uiso   1.00
C201   C     0.06882   0.61085   0.07483   0.00000  Uiso   1.00
C202   C     0.25725   0.38267   0.21538   0.00000  Uiso   1.00
C203   C     0.25053   0.39512   0.26455   0.00000  Uiso   1.00
C204   C     0.06709   0.49992   0.15479   0.00000  Uiso   1.00
C205   C     0.26624   0.49974   0.17852   0.00000  Uiso   1.00
C206   C     0.01256   0.49548   0.14862   0.00000  Uiso   1.00
C207   C     0.32079   0.50384   0.18463   0.00000  Uiso   1.00
C208   C     0.12180   0.35401   0.14594   0.00000  Uiso   1.00
C209   C     0.21191   0.64606   0.18958   0.00000  Uiso   1.00
C210   C     0.12179   0.64373   0.14629   0.00000  Uiso   1.00
H211   H     0.22169   0.55006   0.05014   0.00000  Uiso   1.00
H212   H     0.22705   0.62327   0.27612   0.00000  Uiso   1.00
H213   H     0.28724   0.59652   0.27916   0.00000  Uiso   1.00
H214   H     0.28830   0.65175   0.27875   0.00000  Uiso   1.00
H215   H     0.25860   0.58947   0.20102   0.00000  Uiso   1.00
H216   H     0.29556   0.63474   0.20012   0.00000  Uiso   1.00
H217   H     0.10150   0.59209   0.06677   0.00000  Uiso   1.00
H218   H     0.03198   0.59361   0.06186   0.00000  Uiso   1.00
H219   H     0.06928   0.64084   0.05634   0.00000  Uiso   1.00
H220   H     0.07164   0.58728   0.14352   0.00000  Uiso   1.00
H221   H     0.03725   0.63280   0.13457   0.00000  Uiso   1.00
H222   H     0.11187   0.44977   0.28319   0.00000  Uiso   1.00
H223   H     0.28855   0.39426   0.28747   0.00000  Uiso   1.00
H224   H     0.23700   0.42751   0.26617   0.00000  Uiso   1.00
H225   H     0.22274   0.37375   0.27840   0.00000  Uiso   1.00
H226   H     0.29406   0.36623   0.21721   0.00000  Uiso   1.00
H227   H     0.26397   0.41109   0.19564   0.00000  Uiso   1.00
H228   H     0.22200   0.54955   0.29909   0.00000  Uiso   1.00
H229   H     0.11176   0.44988   0.03436   0.00000  Uiso   1.00
H230   H     0.03712   0.35778   0.18708   0.00000  Uiso   1.00
H231   H     0.06411   0.41024   0.19165   0.00000  Uiso   1.00
H232   H     0.00406   0.39895   0.15391   0.00000  Uiso   1.00
H233   H     0.08062   0.40684   0.11113   0.00000  Uiso   1.00
H234   H     0.04639   0.35985   0.10104   0.00000  Uiso   1.00
I235   I     0.31434   0.46870   0.08195   0.00000  Uiso   1.00
I236   I     0.01935   0.53001   0.25141   0.00000  Uiso   1.00
N237   N     0.16665   0.49999   0.28573   0.00000  Uiso   1.00
N238   N     0.16668   0.50001   0.04760   0.00000  Uiso   1.00
O239   O     0.16666   0.43892   0.20487   0.00000  Uiso   1.00
O240   O     0.16667   0.56108   0.12846   0.00000  Uiso   1.00
O241   O     0.16666   0.43893   0.12843   0.00000  Uiso   1.00
O242   O     0.16667   0.56107   0.20490   0.00000  Uiso   1.00
O243   O     0.09058   0.50000   0.19595   0.00000  Uiso   1.00
O244   O     0.24275   0.50000   0.13739   0.00000  Uiso   1.00
O245   O     0.09058   0.50000   0.11950   0.00000  Uiso   1.00
O246   O     0.24275   0.50000   0.21383   0.00000  Uiso   1.00
Zn247  Zn    0.16667   0.49999   0.21771   0.00000  Uiso   1.00
Zn248  Zn    0.16667   0.50001   0.11563   0.00000  Uiso   1.00
C249   C     0.50000   0.42013   0.16664   0.00000  Uiso   1.00
C250   C     0.54451   0.35644   0.19043   0.00000  Uiso   1.00
C251   C     0.50053   0.62410   0.16727   0.00000  Uiso   1.00
C252   C     0.50017   0.37596   0.16708   0.00000  Uiso   1.00
C253   C     0.53053   0.52786   0.02839   0.00000  Uiso   1.00
C254   C     0.46957   0.47204   0.30495   0.00000  Uiso   1.00
C255   C     0.53066   0.52769   0.31376   0.00000  Uiso   1.00
C256   C     0.46950   0.47210   0.01962   0.00000  Uiso   1.00
C257   C     0.40565   0.37736   0.12823   0.00000  Uiso   1.00
C258   C     0.37599   0.38668   0.16771   0.00000  Uiso   1.00
C259   C     0.59313   0.62261   0.21198   0.00000  Uiso   1.00
C260   C     0.50048   0.57990   0.16689   0.00000  Uiso   1.00
C261   C     0.59893   0.62381   0.26450   0.00000  Uiso   1.00
C262   C     0.40623   0.61800   0.12670   0.00000  Uiso   1.00
C263   C     0.40215   0.61085   0.07483   0.00000  Uiso   1.00
C264   C     0.59059   0.38267   0.21538   0.00000  Uiso   1.00
C265   C     0.58386   0.39512   0.26455   0.00000  Uiso   1.00
C266   C     0.40042   0.49992   0.15479   0.00000  Uiso   1.00
C267   C     0.59958   0.49974   0.17852   0.00000  Uiso   1.00
C268   C     0.34590   0.49548   0.14862   0.00000  Uiso   1.00
C269   C     0.65412   0.50384   0.18463   0.00000  Uiso   1.00
C270   C     0.45513   0.35401   0.14594   0.00000  Uiso   1.00
C271   C     0.54524   0.64606   0.18958   0.00000  Uiso   1.00
C272   C     0.45512   0.64373   0.14629   0.00000  Uiso   1.00
H273   H     0.55502   0.55006   0.05014   0.00000  Uiso   1.00
H274   H     0.56039   0.62327   0.27612   0.00000  Uiso   1.00
H275   H     0.62057   0.59652   0.27916   0.00000  Uiso   1.00
H276   H     0.62164   0.65175   0.27875   0.00000  Uiso   1.00
H277   H     0.59193   0.58947   0.20102   0.00000  Uiso   1.00
H278   H     0.62890   0.63474   0.20012   0.00000  Uiso   1.00
H279   H     0.43484   0.59209   0.06677   0.00000  Uiso   1.00
H280   H     0.36531   0.59361   0.06186   0.00000  Uiso   1.00
H281   H     0.40261   0.64084   0.05634   0.00000  Uiso   1.00
H282   H     0.40497   0.58728   0.14352   0.00000  Uiso   1.00
H283   H     0.37059   0.63280   0.13457   0.00000  Uiso   1.00
H284   H     0.44520   0.44977   0.28319   0.00000  Uiso   1.00
H285   H     0.62188   0.39426   0.28747   0.00000  Uiso   1.00
H286   H     0.57033   0.42751   0.26617   0.00000  Uiso   1.00
H287   H     0.55607   0.37375   0.27840   0.00000  Uiso   1.00
H288   H     0.62739   0.36623   0.21721   0.00000  Uiso   1.00
H289   H     0.59731   0.41109   0.19564   0.00000  Uiso   1.00
H290   H     0.55533   0.54955   0.29909   0.00000  Uiso   1.00
H291   H     0.44509   0.44988   0.03436   0.00000  Uiso   1.00
H292   H     0.37045   0.35778   0.18708   0.00000  Uiso   1.00
H293   H     0.39744   0.41024   0.19165   0.00000  Uiso   1.00
H294   H     0.33739   0.39895   0.15391   0.00000  Uiso   1.00
H295   H     0.41396   0.40684   0.11113   0.00000  Uiso   1.00
H296   H     0.37972   0.35985   0.10104   0.00000  Uiso   1.00
I297   I     0.64767   0.46870   0.08195   0.00000  Uiso   1.00
I298   I     0.35268   0.53001   0.25141   0.00000  Uiso   1.00
N299   N     0.49999   0.49999   0.28573   0.00000  Uiso   1.00
N300   N     0.50001   0.50001   0.04760   0.00000  Uiso   1.00
O301   O     0.50000   0.43892   0.20487   0.00000  Uiso   1.00
O302   O     0.50000   0.56108   0.12846   0.00000  Uiso   1.00
O303   O     0.50000   0.43893   0.12843   0.00000  Uiso   1.00
O304   O     0.50000   0.56107   0.20490   0.00000  Uiso   1.00
O305   O     0.42392   0.50000   0.19595   0.00000  Uiso   1.00
O306   O     0.57608   0.50000   0.13739   0.00000  Uiso   1.00
O307   O     0.42392   0.50000   0.11950   0.00000  Uiso   1.00
O308   O     0.57608   0.50000   0.21383   0.00000  Uiso   1.00
Zn309  Zn    0.50000   0.49999   0.21771   0.00000  Uiso   1.00
Zn310  Zn    0.50000   0.50001   0.11563   0.00000  Uiso   1.00
C311   C     0.83333   0.42013   0.16664   0.00000  Uiso   1.00
C312   C     0.87784   0.35644   0.19043   0.00000  Uiso   1.00
C313   C     0.83387   0.62410   0.16727   0.00000  Uiso   1.00
C314   C     0.83350   0.37596   0.16708   0.00000  Uiso   1.00
C315   C     0.86386   0.52786   0.02839   0.00000  Uiso   1.00
C316   C     0.80290   0.47204   0.30495   0.00000  Uiso   1.00
C317   C     0.86399   0.52769   0.31376   0.00000  Uiso   1.00
C318   C     0.80284   0.47210   0.01962   0.00000  Uiso   1.00
C319   C     0.73898   0.37736   0.12823   0.00000  Uiso   1.00
C320   C     0.70932   0.38668   0.16771   0.00000  Uiso   1.00
C321   C     0.92647   0.62261   0.21198   0.00000  Uiso   1.00
C322   C     0.83382   0.57990   0.16689   0.00000  Uiso   1.00
C323   C     0.93227   0.62381   0.26450   0.00000  Uiso   1.00
C324   C     0.73956   0.61800   0.12670   0.00000  Uiso   1.00
C325   C     0.73549   0.61085   0.07483   0.00000  Uiso   1.00
C326   C     0.92392   0.38267   0.21538   0.00000  Uiso   1.00
C327   C     0.91720   0.39512   0.26455   0.00000  Uiso   1.00
C328   C     0.73375   0.49992   0.15479   0.00000  Uiso   1.00
C329   C     0.93291   0.49974   0.17852   0.00000  Uiso   1.00
C330   C     0.67923   0.49548   0.14862   0.00000  Uiso   1.00
C331   C     0.98745   0.50384   0.18463   0.00000  Uiso   1.00
C332   C     0.78846   0.35401   0.14594   0.00000  Uiso   1.00
C333   C     0.87858   0.64606   0.18958   0.00000  Uiso   1.00
C334   C     0.78845   0.64373   0.14629   0.00000  Uiso   1.00
H335   H     0.88836   0.55006   0.05014   0.00000  Uiso   1.00
H336   H     0.89372   0.62327   0.27612   0.00000  Uiso   1.00
H337   H     0.95390   0.59652   0.27916   0.00000  Uiso   1.00
H338   H     0.95497   0.65175   0.27875   0.00000  Uiso   1.00
H339   H     0.92526   0.58947   0.20102   0.00000  Uiso   1.00
H340   H     0.96223   0.63474   0.20012   0.00000  Uiso   1.00
H341   H     0.76817   0.59209   0.06677   0.00000  Uiso   1.00
H342   H     0.69865   0.59361   0.06186   0.00000  Uiso   1.00
H343   H     0.73595   0.64084   0.05634   0.00000  Uiso   1.00
H344   H     0.73830   0.58728   0.14352   0.00000  Uiso   1.00
H345   H     0.70392   0.63280   0.13457   0.00000  Uiso   1.00
H346   H     0.77853   0.44977   0.28319   0.00000  Uiso   1.00
H347   H     0.95521   0.39426   0.28747   0.00000  Uiso   1.00
H348   H     0.90367   0.42751   0.26617   0.00000  Uiso   1.00
H349   H     0.88941   0.37375   0.27840   0.00000  Uiso   1.00
H350   H     0.96073   0.36623   0.21721   0.00000  Uiso   1.00
H351   H     0.93064   0.41109   0.19564   0.00000  Uiso   1.00
H352   H     0.88867   0.54955   0.29909   0.00000  Uiso   1.00
H353   H     0.77842   0.44988   0.03436   0.00000  Uiso   1.00
H354   H     0.70378   0.35778   0.18708   0.00000  Uiso   1.00
H355   H     0.73077   0.41024   0.19165   0.00000  Uiso   1.00
H356   H     0.67073   0.39895   0.15391   0.00000  Uiso   1.00
H357   H     0.74729   0.40684   0.11113   0.00000  Uiso   1.00
H358   H     0.71306   0.35985   0.10104   0.00000  Uiso   1.00
I359   I     0.98100   0.46870   0.08195   0.00000  Uiso   1.00
I360   I     0.68602   0.53001   0.25141   0.00000  Uiso   1.00
N361   N     0.83332   0.49999   0.28573   0.00000  Uiso   1.00
N362   N     0.83335   0.50001   0.04760   0.00000  Uiso   1.00
O363   O     0.83333   0.43892   0.20487   0.00000  Uiso   1.00
O364   O     0.83334   0.56108   0.12846   0.00000  Uiso   1.00
O365   O     0.83333   0.43893   0.12843   0.00000  Uiso   1.00
O366   O     0.83334   0.56107   0.20490   0.00000  Uiso   1.00
O367   O     0.75725   0.50000   0.19595   0.00000  Uiso   1.00
O368   O     0.90942   0.50000   0.13739   0.00000  Uiso   1.00
O369   O     0.75725   0.50000   0.11950   0.00000  Uiso   1.00
O370   O     0.90942   0.50000   0.21383   0.00000  Uiso   1.00
Zn371  Zn    0.83333   0.49999   0.21771   0.00000  Uiso   1.00
Zn372  Zn    0.83333   0.50001   0.11563   0.00000  Uiso   1.00
C373   C     0.16667   0.75347   0.16664   0.00000  Uiso   1.00
C374   C     0.21117   0.68978   0.19043   0.00000  Uiso   1.00
C375   C     0.16720   0.95744   0.16727   0.00000  Uiso   1.00
C376   C     0.16684   0.70930   0.16708   0.00000  Uiso   1.00
C377   C     0.19719   0.86119   0.02839   0.00000  Uiso   1.00
C378   C     0.13624   0.80537   0.30495   0.00000  Uiso   1.00
C379   C     0.19732   0.86103   0.31376   0.00000  Uiso   1.00
C380   C     0.13617   0.80544   0.01962   0.00000  Uiso   1.00
C381   C     0.07231   0.71069   0.12823   0.00000  Uiso   1.00
C382   C     0.04266   0.72001   0.16771   0.00000  Uiso   1.00
C383   C     0.25980   0.95595   0.21198   0.00000  Uiso   1.00
C384   C     0.16715   0.91323   0.16689   0.00000  Uiso   1.00
C385   C     0.26560   0.95714   0.26450   0.00000  Uiso   1.00
C386   C     0.07290   0.95134   0.12670   0.00000  Uiso   1.00
C387   C     0.06882   0.94419   0.07483   0.00000  Uiso   1.00
C388   C     0.25725   0.71600   0.21538   0.00000  Uiso   1.00
C389   C     0.25053   0.72846   0.26455   0.00000  Uiso   1.00
C390   C     0.06709   0.83326   0.15479   0.00000  Uiso   1.00
C391   C     0.26624   0.83307   0.17852   0.00000  Uiso   1.00
C392   C     0.01256   0.82881   0.14862   0.00000  Uiso   1.00
C393   C     0.32079   0.83717   0.18463   0.00000  Uiso   1.00
C394   C     0.12180   0.68734   0.14594   0.00000  Uiso   1.00
C395   C     0.21191   0.97939   0.18958   0.00000  Uiso   1.00
C396   C     0.12179   0.97706   0.14629   0.00000  Uiso   1.00
H397   H     0.22169   0.88339   0.05014   0.00000  Uiso   1.00
H398   H     0.22705   0.95660   0.27612   0.00000  Uiso   1.00
H399   H     0.28724   0.92985   0.27916   0.00000  Uiso   1.00
H400   H     0.28830   0.98508   0.27875   0.00000  Uiso   1.00
H401   H     0.25860   0.92280   0.20102   0.00000  Uiso   1.00
H402   H     0.29556   0.96807   0.20012   0.00000  Uiso   1.00
H403   H     0.10150   0.92543   0.06677   0.00000  Uiso   1.00
H404   H     0.03198   0.92694   0.06186   0.00000  Uiso   1.00
H405   H     0.06928   0.97417   0.05634   0.00000  Uiso   1.00
H406   H     0.07164   0.92062   0.14352   0.00000  Uiso   1.00
H407   H     0.03725   0.96614   0.13457   0.00000  Uiso   1.00
H408   H     0.11187   0.78310   0.28319   0.00000  Uiso   1.00
H409   H     0.28855   0.72759   0.28747   0.00000  Uiso   1.00
H410   H     0.23700   0.76084   0.26617   0.00000  Uiso   1.00
H411   H     0.22274   0.70708   0.27840   0.00000  Uiso   1.00
H412   H     0.29406   0.69956   0.21721   0.00000  Uiso   1.00
H413   H     0.26397   0.74442   0.19564   0.00000  Uiso   1.00
H414   H     0.22200   0.88288   0.29909   0.00000  Uiso   1.00
H415   H     0.11176   0.78321   0.03436   0.00000  Uiso   1.00
H416   H     0.03712   0.69111   0.18708   0.00000  Uiso   1.00
H417   H     0.06411   0.74358   0.19165   0.00000  Uiso   1.00
H418   H     0.00406   0.73229   0.15391   0.00000  Uiso   1.00
H419   H     0.08062   0.74017   0.11113   0.00000  Uiso   1.00
H420   H     0.04639   0.69319   0.10104   0.00000  Uiso   1.00
I421   I     0.31434   0.80204   0.08195   0.00000  Uiso   1.00
I422   I     0.01935   0.86334   0.25141   0.00000  Uiso   1.00
N423   N     0.16665   0.83332   0.28573   0.00000  Uiso   1.00
N424   N     0.16668   0.83334   0.04760   0.00000  Uiso   1.00
O425   O     0.16666   0.77225   0.20487   0.00000  Uiso   1.00
O426   O     0.16667   0.89442   0.12846   0.00000  Uiso   1.00
O427   O     0.16666   0.77226   0.12843   0.00000  Uiso   1.00
O428   O     0.16667   0.89441   0.20490   0.00000  Uiso   1.00
O429   O     0.09058   0.83333   0.19595   0.00000  Uiso   1.00
O430   O     0.24275   0.83334   0.13739   0.00000  Uiso   1.00
O431   O     0.09058   0.83334   0.11950   0.00000  Uiso   1.00
O432   O     0.24275   0.83333   0.21383   0.00000  Uiso   1.00
Zn433  Zn    0.16667   0.83333   0.21771   0.00000  Uiso   1.00
Zn434  Zn    0.16667   0.83334   0.11563   0.00000  Uiso   1.00
C435   C     0.50000   0.75347   0.16664   0.00000  Uiso   1.00
C436   C     0.54451   0.68978   0.19043   0.00000  Uiso   1.00
C437   C     0.50053   0.95744   0.16727   0.00000  Uiso   1.00
C438   C     0.50017   0.70930   0.16708   0.00000  Uiso   1.00
C439   C     0.53053   0.86119   0.02839   0.00000  Uiso   1.00
C440   C     0.46957   0.80537   0.30495   0.00000  Uiso   1.00
C441   C     0.53066   0.86103   0.31376   0.00000  Uiso   1.00
C442   C     0.46950   0.80544   0.01962   0.00000  Uiso   1.00
C443   C     0.40565   0.71069   0.12823   0.00000  Uiso   1.00
C444   C     0.37599   0.72001   0.16771   0.00000  Uiso   1.00
C445   C     0.59313   0.95595   0.21198   0.00000  Uiso   1.00
C446   C     0.50048   0.91323   0.16689   0.00000  Uiso   1.00
C447   C     0.59893   0.95714   0.26450   0.00000  Uiso   1.00
C448   C     0.40623   0.95134   0.12670   0.00000  Uiso   1.00
C449   C     0.40215   0.94419   0.07483   0.00000  Uiso   1.00
C450   C     0.59059   0.71600   0.21538   0.00000  Uiso   1.00
C451   C     0.58386   0.72846   0.26455   0.00000  Uiso   1.00
C452   C     0.40042   0.83326   0.15479   0.00000  Uiso   1.00
C453   C     0.59958   0.83307   0.17852   0.00000  Uiso   1.00
C454   C     0.34590   0.82881   0.14862   0.00000  Uiso   1.00
C455   C     0.65412   0.83717   0.18463   0.00000  Uiso   1.00
C456   C     0.45513   0.68734   0.14594   0.00000  Uiso   1.00
C457   C     0.54524   0.97939   0.18958   0.00000  Uiso   1.00
C458   C     0.45512   0.97706   0.14629   0.00000  Uiso   1.00
H459   H     0.55502   0.88339   0.05014   0.00000  Uiso   1.00
H460   H     0.56039   0.95660   0.27612   0.00000  Uiso   1.00
H461   H     0.62057   0.92985   0.27916   0.00000  Uiso   1.00
H462   H     0.62164   0.98508   0.27875   0.00000  Uiso   1.00
H463   H     0.59193   0.92280   0.20102   0.00000  Uiso   1.00
H464   H     0.62890   0.96807   0.20012   0.00000  Uiso   1.00
H465   H     0.43484   0.92543   0.06677   0.00000  Uiso   1.00
H466   H     0.36531   0.92694   0.06186   0.00000  Uiso   1.00
H467   H     0.40261   0.97417   0.05634   0.00000  Uiso   1.00
H468   H     0.40497   0.92062   0.14352   0.00000  Uiso   1.00
H469   H     0.37059   0.96614   0.13457   0.00000  Uiso   1.00
H470   H     0.44520   0.78310   0.28319   0.00000  Uiso   1.00
H471   H     0.62188   0.72759   0.28747   0.00000  Uiso   1.00
H472   H     0.57033   0.76084   0.26617   0.00000  Uiso   1.00
H473   H     0.55607   0.70708   0.27840   0.00000  Uiso   1.00
H474   H     0.62739   0.69956   0.21721   0.00000  Uiso   1.00
H475   H     0.59731   0.74442   0.19564   0.00000  Uiso   1.00
H476   H     0.55533   0.88288   0.29909   0.00000  Uiso   1.00
H477   H     0.44509   0.78321   0.03436   0.00000  Uiso   1.00
H478   H     0.37045   0.69111   0.18708   0.00000  Uiso   1.00
H479   H     0.39744   0.74358   0.19165   0.00000  Uiso   1.00
H480   H     0.33739   0.73229   0.15391   0.00000  Uiso   1.00
H481   H     0.41396   0.74017   0.11113   0.00000  Uiso   1.00
H482   H     0.37972   0.69319   0.10104   0.00000  Uiso   1.00
I483   I     0.64767   0.80204   0.08195   0.00000  Uiso   1.00
I484   I     0.35268   0.86334   0.25141   0.00000  Uiso   1.00
N485   N     0.49999   0.83332   0.28573   0.00000  Uiso   1.00
N486   N     0.50001   0.83334   0.04760   0.00000  Uiso   1.00
O487   O     0.50000   0.77225   0.20487   0.00000  Uiso   1.00
O488   O     0.50000   0.89442   0.12846   0.00000  Uiso   1.00
O489   O     0.50000   0.77226   0.12843   0.00000  Uiso   1.00
O490   O     0.50000   0.89441   0.20490   0.00000  Uiso   1.00
O491   O     0.42392   0.83333   0.19595   0.00000  Uiso   1.00
O492   O     0.57608   0.83334   0.13739   0.00000  Uiso   1.00
O493   O     0.42392   0.83334   0.11950   0.00000  Uiso   1.00
O494   O     0.57608   0.83333   0.21383   0.00000  Uiso   1.00
Zn495  Zn    0.50000   0.83333   0.21771   0.00000  Uiso   1.00
Zn496  Zn    0.50000   0.83334   0.11563   0.00000  Uiso   1.00
C497   C     0.83333   0.75347   0.16664   0.00000  Uiso   1.00
C498   C     0.87784   0.68978   0.19043   0.00000  Uiso   1.00
C499   C     0.83387   0.95744   0.16727   0.00000  Uiso   1.00
C500   C     0.83350   0.70930   0.16708   0.00000  Uiso   1.00
C501   C     0.86386   0.86119   0.02839   0.00000  Uiso   1.00
C502   C     0.80290   0.80537   0.30495   0.00000  Uiso   1.00
C503   C     0.86399   0.86103   0.31376   0.00000  Uiso   1.00
C504   C     0.80284   0.80544   0.01962   0.00000  Uiso   1.00
C505   C     0.73898   0.71069   0.12823   0.00000  Uiso   1.00
C506   C     0.70932   0.72001   0.16771   0.00000  Uiso   1.00
C507   C     0.92647   0.95595   0.21198   0.00000  Uiso   1.00
C508   C     0.83382   0.91323   0.16689   0.00000  Uiso   1.00
C509   C     0.93227   0.95714   0.26450   0.00000  Uiso   1.00
C510   C     0.73956   0.95134   0.12670   0.00000  Uiso   1.00
C511   C     0.73549   0.94419   0.07483   0.00000  Uiso   1.00
C512   C     0.92392   0.71600   0.21538   0.00000  Uiso   1.00
C513   C     0.91720   0.72846   0.26455   0.00000  Uiso   1.00
C514   C     0.73375   0.83326   0.15479   0.00000  Uiso   1.00
C515   C     0.93291   0.83307   0.17852   0.00000  Uiso   1.00
C516   C     0.67923   0.82881   0.14862   0.00000  Uiso   1.00
C517   C     0.98745   0.83717   0.18463   0.00000  Uiso   1.00
C518   C     0.78846   0.68734   0.14594   0.00000  Uiso   1.00
C519   C     0.87858   0.97939   0.18958   0.00000  Uiso   1.00
C520   C     0.78845   0.97706   0.14629   0.00000  Uiso   1.00
H521   H     0.88836   0.88339   0.05014   0.00000  Uiso   1.00
H522   H     0.89372   0.95660   0.27612   0.00000  Uiso   1.00
H523   H     0.95390   0.92985   0.27916   0.00000  Uiso   1.00
H524   H     0.95497   0.98508   0.27875   0.00000  Uiso   1.00
H525   H     0.92526   0.92280   0.20102   0.00000  Uiso   1.00
H526   H     0.96223   0.96807   0.20012   0.00000  Uiso   1.00
H527   H     0.76817   0.92543   0.06677   0.00000  Uiso   1.00
H528   H     0.69865   0.92694   0.06186   0.00000  Uiso   1.00
H529   H     0.73595   0.97417   0.05634   0.00000  Uiso   1.00
H530   H     0.73830   0.92062   0.14352   0.00000  Uiso   1.00
H531   H     0.70392   0.96614   0.13457   0.00000  Uiso   1.00
H532   H     0.77853   0.78310   0.28319   0.00000  Uiso   1.00
H533   H     0.95521   0.72759   0.28747   0.00000  Uiso   1.00
H534   H     0.90367   0.76084   0.26617   0.00000  Uiso   1.00
H535   H     0.88941   0.70708   0.27840   0.00000  Uiso   1.00
H536   H     0.96073   0.69956   0.21721   0.00000  Uiso   1.00
H537   H     0.93064   0.74442   0.19564   0.00000  Uiso   1.00
H538   H     0.88867   0.88288   0.29909   0.00000  Uiso   1.00
H539   H     0.77842   0.78321   0.03436   0.00000  Uiso   1.00
H540   H     0.70378   0.69111   0.18708   0.00000  Uiso   1.00
H541   H     0.73077   0.74358   0.19165   0.00000  Uiso   1.00
H542   H     0.67073   0.73229   0.15391   0.00000  Uiso   1.00
H543   H     0.74729   0.74017   0.11113   0.00000  Uiso   1.00
H544   H     0.71306   0.69319   0.10104   0.00000  Uiso   1.00
I545   I     0.98100   0.80204   0.08195   0.00000  Uiso   1.00
I546   I     0.68602   0.86334   0.25141   0.00000  Uiso   1.00
N547   N     0.83332   0.83332   0.28573   0.00000  Uiso   1.00
N548   N     0.83335   0.83334   0.04760   0.00000  Uiso   1.00
O549   O     0.83333   0.77225   0.20487   0.00000  Uiso   1.00
O550   O     0.83334   0.89442   0.12846   0.00000  Uiso   1.00
O551   O     0.83333   0.77226   0.12843   0.00000  Uiso   1.00
O552   O     0.83334   0.89441   0.20490   0.00000  Uiso   1.00
O553   O     0.75725   0.83333   0.19595   0.00000  Uiso   1.00
O554   O     0.90942   0.83334   0.13739   0.00000  Uiso   1.00
O555   O     0.75725   0.83334   0.11950   0.00000  Uiso   1.00
O556   O     0.90942   0.83333   0.21383   0.00000  Uiso   1.00
Zn557  Zn    0.83333   0.83333   0.21771   0.00000  Uiso   1.00
Zn558  Zn    0.83333   0.83334   0.11563   0.00000  Uiso   1.00
C559   C     0.16667   0.08680   0.49997   0.00000  Uiso   1.00
C560   C     0.21117   0.02311   0.52377   0.00000  Uiso   1.00
C561   C     0.16720   0.29077   0.50060   0.00000  Uiso   1.00
C562   C     0.16684   0.04263   0.50041   0.00000  Uiso   1.00
C563   C     0.19719   0.19452   0.36173   0.00000  Uiso   1.00
C564   C     0.13624   0.13871   0.63828   0.00000  Uiso   1.00
C565   C     0.19732   0.19436   0.64710   0.00000  Uiso   1.00
C566   C     0.13617   0.13877   0.35296   0.00000  Uiso   1.00
C567   C     0.07231   0.04402   0.46157   0.00000  Uiso   1.00
C568   C     0.04266   0.05335   0.50105   0.00000  Uiso   1.00
C569   C     0.25980   0.28928   0.54531   0.00000  Uiso   1.00
C570   C     0.16715   0.24656   0.50022   0.00000  Uiso   1.00
C571   C     0.26560   0.29048   0.59783   0.00000  Uiso   1.00
C572   C     0.07290   0.28467   0.46003   0.00000  Uiso   1.00
C573   C     0.06882   0.27752   0.40817   0.00000  Uiso   1.00
C574   C     0.25725   0.04934   0.54872   0.00000  Uiso   1.00
C575   C     0.25053   0.06179   0.59788   0.00000  Uiso   1.00
C576   C     0.06709   0.16659   0.48813   0.00000  Uiso   1.00
C577   C     0.26624   0.16641   0.51185   0.00000  Uiso   1.00
C578   C     0.01256   0.16215   0.48195   0.00000  Uiso   1.00
C579   C     0.32079   0.17051   0.51797   0.00000  Uiso   1.00
C580   C     0.12180   0.02068   0.47927   0.00000  Uiso   1.00
C581   C     0.21191   0.31272   0.52291   0.00000  Uiso   1.00
C582   C     0.12179   0.31039   0.47962   0.00000  Uiso   1.00
H583   H     0.22169   0.21673   0.38347   0.00000  Uiso   1.00
H584   H     0.22705   0.28993   0.60945   0.00000  Uiso   1.00
H585   H     0.28724   0.26318   0.61249   0.00000  Uiso   1.00
H586   H     0.28830   0.31842   0.61208   0.00000  Uiso   1.00
H587   H     0.25860   0.25614   0.53436   0.00000  Uiso   1.00
H588   H     0.29556   0.30140   0.53345   0.00000  Uiso   1.00
H589   H     0.10150   0.25876   0.40010   0.00000  Uiso   1.00
H590   H     0.03198   0.26028   0.39519   0.00000  Uiso   1.00
H591   H     0.06928   0.30751   0.38968   0.00000  Uiso   1.00
H592   H     0.07164   0.25395   0.47685   0.00000  Uiso   1.00
H593   H     0.03725   0.29947   0.46790   0.00000  Uiso   1.00
H594   H     0.11187   0.11643   0.61652   0.00000  Uiso   1.00
H595   H     0.28855   0.06093   0.62080   0.00000  Uiso   1.00
H596   H     0.23700   0.09418   0.59950   0.00000  Uiso   1.00
H597   H     0.22274   0.04042   0.61173   0.00000  Uiso   1.00
H598   H     0.29406   0.03289   0.55054   0.00000  Uiso   1.00
H599   H     0.26397   0.07776   0.52897   0.00000  Uiso   1.00
H600   H     0.22200   0.21621   0.63242   0.00000  Uiso   1.00
H601   H     0.11176   0.11655   0.36769   0.00000  Uiso   1.00
H602   H     0.03712   0.02445   0.52041   0.00000  Uiso   1.00
H603   H     0.06411   0.07691   0.52498   0.00000  Uiso   1.00
H604   H     0.00406   0.06562   0.48724   0.00000  Uiso   1.00
H605   H     0.08062   0.07350   0.44446   0.00000  Uiso   1.00
H606   H     0.04639   0.02652   0.43438   0.00000  Uiso   1.00
I607   I     0.31434   0.13537   0.41529   0.00000  Uiso   1.00
I608   I     0.01935   0.19667   0.58474   0.00000  Uiso   1.00
N609   N     0.16665   0.16666   0.61907   0.00000  Uiso   1.00
N610   N     0.16668   0.16668   0.38093   0.00000  Uiso   1.00
O611   O     0.16666   0.10558   0.53821   0.00000  Uiso   1.00
O612   O     0.16667   0.22775   0.46179   0.00000  Uiso   1.00
O613   O     0.16666   0.10559   0.46176   0.00000  Uiso   1.00
O614   O     0.16667   0.22774   0.53824   0.00000  Uiso   1.00
O615   O     0.09058   0.16666   0.52928   0.00000  Uiso   1.00
O616   O     0.24275   0.16667   0.47072   0.00000  Uiso   1.00
O617   O     0.09058   0.16667   0.45284   0.00000  Uiso   1.00
O618   O     0.24275   0.16666   0.54716   0.00000  Uiso   1.00
Zn619  Zn    0.16667   0.16666   0.55104   0.00000  Uiso   1.00
Zn620  Zn    0.16667   0.16667   0.44896   0.00000  Uiso   1.00
C621   C     0.50000   0.08680   0.49997   0.00000  Uiso   1.00
C622   C     0.54451   0.02311   0.52377   0.00000  Uiso   1.00
C623   C     0.50053   0.29077   0.50060   0.00000  Uiso   1.00
C624   C     0.50017   0.04263   0.50041   0.00000  Uiso   1.00
C625   C     0.53053   0.19452   0.36173   0.00000  Uiso   1.00
C626   C     0.46957   0.13871   0.63828   0.00000  Uiso   1.00
C627   C     0.53066   0.19436   0.64710   0.00000  Uiso   1.00
C628   C     0.46950   0.13877   0.35296   0.00000  Uiso   1.00
C629   C     0.40565   0.04402   0.46157   0.00000  Uiso   1.00
C630   C     0.37599   0.05335   0.50105   0.00000  Uiso   1.00
C631   C     0.59313   0.28928   0.54531   0.00000  Uiso   1.00
C632   C     0.50048   0.24656   0.50022   0.00000  Uiso   1.00
C633   C     0.59893   0.29048   0.59783   0.00000  Uiso   1.00
C634   C     0.40623   0.28467   0.46003   0.00000  Uiso   1.00
C635   C     0.40215   0.27752   0.40817   0.00000  Uiso   1.00
C636   C     0.59059   0.04934   0.54872   0.00000  Uiso   1.00
C637   C     0.58386   0.06179   0.59788   0.00000  Uiso   1.00
C638   C     0.40042   0.16659   0.48813   0.00000  Uiso   1.00
C639   C     0.59958   0.16641   0.51185   0.00000  Uiso   1.00
C640   C     0.34590   0.16215   0.48195   0.00000  Uiso   1.00
C641   C     0.65412   0.17051   0.51797   0.00000  Uiso   1.00
C642   C     0.45513   0.02068   0.47927   0.00000  Uiso   1.00
C643   C     0.54524   0.31272   0.52291   0.00000  Uiso   1.00
C644   C     0.45512   0.31039   0.47962   0.00000  Uiso   1.00
H645   H     0.55502   0.21673   0.38347   0.00000  Uiso   1.00
H646   H     0.56039   0.28993   0.60945   0.00000  Uiso   1.00
H647   H     0.62057   0.26318   0.61249   0.00000  Uiso   1.00
H648   H     0.62164   0.31842   0.61208   0.00000  Uiso   1.00
H649   H     0.59193   0.25614   0.53436   0.00000  Uiso   1.00
H650   H     0.62890   0.30140   0.53345   0.00000  Uiso   1.00
H651   H     0.43484   0.25876   0.40010   0.00000  Uiso   1.00
H652   H     0.36531   0.26028   0.39519   0.00000  Uiso   1.00
H653   H     0.40261   0.30751   0.38968   0.00000  Uiso   1.00
H654   H     0.40497   0.25395   0.47685   0.00000  Uiso   1.00
H655   H     0.37059   0.29947   0.46790   0.00000  Uiso   1.00
H656   H     0.44520   0.11643   0.61652   0.00000  Uiso   1.00
H657   H     0.62188   0.06093   0.62080   0.00000  Uiso   1.00
H658   H     0.57033   0.09418   0.59950   0.00000  Uiso   1.00
H659   H     0.55607   0.04042   0.61173   0.00000  Uiso   1.00
H660   H     0.62739   0.03289   0.55054   0.00000  Uiso   1.00
H661   H     0.59731   0.07776   0.52897   0.00000  Uiso   1.00
H662   H     0.55533   0.21621   0.63242   0.00000  Uiso   1.00
H663   H     0.44509   0.11655   0.36769   0.00000  Uiso   1.00
H664   H     0.37045   0.02445   0.52041   0.00000  Uiso   1.00
H665   H     0.39744   0.07691   0.52498   0.00000  Uiso   1.00
H666   H     0.33739   0.06562   0.48724   0.00000  Uiso   1.00
H667   H     0.41396   0.07350   0.44446   0.00000  Uiso   1.00
H668   H     0.37972   0.02652   0.43438   0.00000  Uiso   1.00
I669   I     0.64767   0.13537   0.41529   0.00000  Uiso   1.00
I670   I     0.35268   0.19667   0.58474   0.00000  Uiso   1.00
N671   N     0.49999   0.16666   0.61907   0.00000  Uiso   1.00
N672   N     0.50001   0.16668   0.38093   0.00000  Uiso   1.00
O673   O     0.50000   0.10558   0.53821   0.00000  Uiso   1.00
O674   O     0.50000   0.22775   0.46179   0.00000  Uiso   1.00
O675   O     0.50000   0.10559   0.46176   0.00000  Uiso   1.00
O676   O     0.50000   0.22774   0.53824   0.00000  Uiso   1.00
O677   O     0.42392   0.16666   0.52928   0.00000  Uiso   1.00
O678   O     0.57608   0.16667   0.47072   0.00000  Uiso   1.00
O679   O     0.42392   0.16667   0.45284   0.00000  Uiso   1.00
O680   O     0.57608   0.16666   0.54716   0.00000  Uiso   1.00
Zn681  Zn    0.50000   0.16666   0.55104   0.00000  Uiso   1.00
Zn682  Zn    0.50000   0.16667   0.44896   0.00000  Uiso   1.00
C683   C     0.83333   0.08680   0.49997   0.00000  Uiso   1.00
C684   C     0.87784   0.02311   0.52377   0.00000  Uiso   1.00
C685   C     0.83387   0.29077   0.50060   0.00000  Uiso   1.00
C686   C     0.83350   0.04263   0.50041   0.00000  Uiso   1.00
C687   C     0.86386   0.19452   0.36173   0.00000  Uiso   1.00
C688   C     0.80290   0.13871   0.63828   0.00000  Uiso   1.00
C689   C     0.86399   0.19436   0.64710   0.00000  Uiso   1.00
C690   C     0.80284   0.13877   0.35296   0.00000  Uiso   1.00
C691   C     0.73898   0.04402   0.46157   0.00000  Uiso   1.00
C692   C     0.70932   0.05335   0.50105   0.00000  Uiso   1.00
C693   C     0.92647   0.28928   0.54531   0.00000  Uiso   1.00
C694   C     0.83382   0.24656   0.50022   0.00000  Uiso   1.00
C695   C     0.93227   0.29048   0.59783   0.00000  Uiso   1.00
C696   C     0.73956   0.28467   0.46003   0.00000  Uiso   1.00
C697   C     0.73549   0.27752   0.40817   0.00000  Uiso   1.00
C698   C     0.92392   0.04934   0.54872   0.00000  Uiso   1.00
C699   C     0.91720   0.06179   0.59788   0.00000  Uiso   1.00
C700   C     0.73375   0.16659   0.48813   0.00000  Uiso   1.00
C701   C     0.93291   0.16641   0.51185   0.00000  Uiso   1.00
C702   C     0.67923   0.16215   0.48195   0.00000  Uiso   1.00
C703   C     0.98745   0.17051   0.51797   0.00000  Uiso   1.00
C704   C     0.78846   0.02068   0.47927   0.00000  Uiso   1.00
C705   C     0.87858   0.31272   0.52291   0.00000  Uiso   1.00
C706   C     0.78845   0.31039   0.47962   0.00000  Uiso   1.00
H707   H     0.88836   0.21673   0.38347   0.00000  Uiso   1.00
H708   H     0.89372   0.28993   0.60945   0.00000  Uiso   1.00
H709   H     0.95390   0.26318   0.61249   0.00000  Uiso   1.00
H710   H     0.95497   0.31842   0.61208   0.00000  Uiso   1.00
H711   H     0.92526   0.25614   0.53436   0.00000  Uiso   1.00
H712   H     0.96223   0.30140   0.53345   0.00000  Uiso   1.00
H713   H     0.76817   0.25876   0.40010   0.00000  Uiso   1.00
H714   H     0.69865   0.26028   0.39519   0.00000  Uiso   1.00
H715   H     0.73595   0.30751   0.38968   0.00000  Uiso   1.00
H716   H     0.73830   0.25395   0.47685   0.00000  Uiso   1.00
H717   H     0.70392   0.29947   0.46790   0.00000  Uiso   1.00
H718   H     0.77853   0.11643   0.61652   0.00000  Uiso   1.00
H719   H     0.95521   0.06093   0.62080   0.00000  Uiso   1.00
H720   H     0.90367   0.09418   0.59950   0.00000  Uiso   1.00
H721   H     0.88941   0.04042   0.61173   0.00000  Uiso   1.00
H722   H     0.96073   0.03289   0.55054   0.00000  Uiso   1.00
H723   H     0.93064   0.07776   0.52897   0.00000  Uiso   1.00
H724   H     0.88867   0.21621   0.63242   0.00000  Uiso   1.00
H725   H     0.77842   0.11655   0.36769   0.00000  Uiso   1.00
H726   H     0.70378   0.02445   0.52041   0.00000  Uiso   1.00
H727   H     0.73077   0.07691   0.52498   0.00000  Uiso   1.00
H728   H     0.67073   0.06562   0.48724   0.00000  Uiso   1.00
H729   H     0.74729   0.07350   0.44446   0.00000  Uiso   1.00
H730   H     0.71306   0.02652   0.43438   0.00000  Uiso   1.00
I731   I     0.98100   0.13537   0.41529   0.00000  Uiso   1.00
I732   I     0.68602   0.19667   0.58474   0.00000  Uiso   1.00
N733   N     0.83332   0.16666   0.61907   0.00000  Uiso   1.00
N734   N     0.83335   0.16668   0.38093   0.00000  Uiso   1.00
O735   O     0.83333   0.10558   0.53821   0.00000  Uiso   1.00
O736   O     0.83334   0.22775   0.46179   0.00000  Uiso   1.00
O737   O     0.83333   0.10559   0.46176   0.00000  Uiso   1.00
O738   O     0.83334   0.22774   0.53824   0.00000  Uiso   1.00
O739   O     0.75725   0.16666   0.52928   0.00000  Uiso   1.00
O740   O     0.90942   0.16667   0.47072   0.00000  Uiso   1.00
O741   O     0.75725   0.16667   0.45284   0.00000  Uiso   1.00
O742   O     0.90942   0.16666   0.54716   0.00000  Uiso   1.00
Zn743  Zn    0.83333   0.16666   0.55104   0.00000  Uiso   1.00
Zn744  Zn    0.83333   0.16667   0.44896   0.00000  Uiso   1.00
C745   C     0.16667   0.42013   0.49997   0.00000  Uiso   1.00
C746   C     0.21117   0.35644   0.52377   0.00000  Uiso   1.00
C747   C     0.16720   0.62410   0.50060   0.00000  Uiso   1.00
C748   C     0.16684   0.37596   0.50041   0.00000  Uiso   1.00
C749   C     0.19719   0.52786   0.36173   0.00000  Uiso   1.00
C750   C     0.13624   0.47204   0.63828   0.00000  Uiso   1.00
C751   C     0.19732   0.52769   0.64710   0.00000  Uiso   1.00
C752   C     0.13617   0.47210   0.35296   0.00000  Uiso   1.00
C753   C     0.07231   0.37736   0.46157   0.00000  Uiso   1.00
C754   C     0.04266   0.38668   0.50105   0.00000  Uiso   1.00
C755   C     0.25980   0.62261   0.54531   0.00000  Uiso   1.00
C756   C     0.16715   0.57990   0.50022   0.00000  Uiso   1.00
C757   C     0.26560   0.62381   0.59783   0.00000  Uiso   1.00
C758   C     0.07290   0.61800   0.46003   0.00000  Uiso   1.00
C759   C     0.06882   0.61085   0.40817   0.00000  Uiso   1.00
C760   C     0.25725   0.38267   0.54872   0.00000  Uiso   1.00
C761   C     0.25053   0.39512   0.59788   0.00000  Uiso   1.00
C762   C     0.06709   0.49992   0.48813   0.00000  Uiso   1.00
C763   C     0.26624   0.49974   0.51185   0.00000  Uiso   1.00
C764   C     0.01256   0.49548   0.48195   0.00000  Uiso   1.00
C765   C     0.32079   0.50384   0.51797   0.00000  Uiso   1.00
C766   C     0.12180   0.35401   0.47927   0.00000  Uiso   1.00
C767   C     0.21191   0.64606   0.52291   0.00000  Uiso   1.00
C768   C     0.12179   0.64373   0.47962   0.00000  Uiso   1.00
H769   H     0.22169   0.55006   0.38347   0.00000  Uiso   1.00
H770   H     0.22705   0.62327   0.60945   0.00000  Uiso   1.00
H771   H     0.28724   0.59652   0.61249   0.00000  Uiso   1.00
H772   H     0.28830   0.65175   0.61208   0.00000  Uiso   1.00
H773   H     0.25860   0.58947   0.53436   0.00000  Uiso   1.00
H774   H     0.29556   0.63474   0.53345   0.00000  Uiso   1.00
H775   H     0.10150   0.59209   0.40010   0.00000  Uiso   1.00
H776   H     0.03198   0.59361   0.39519   0.00000  Uiso   1.00
H777   H     0.06928   0.64084   0.38968   0.00000  Uiso   1.00
H778   H     0.07164   0.58728   0.47685   0.00000  Uiso   1.00
H779   H     0.03725   0.63280   0.46790   0.00000  Uiso   1.00
H780   H     0.11187   0.44977   0.61652   0.00000  Uiso   1.00
H781   H     0.28855   0.39426   0.62080   0.00000  Uiso   1.00
H782   H     0.23700   0.42751   0.59950   0.00000  Uiso   1.00
H783   H     0.22274   0.37375   0.61173   0.00000  Uiso   1.00
H784   H     0.29406   0.36623   0.55054   0.00000  Uiso   1.00
H785   H     0.26397   0.41109   0.52897   0.00000  Uiso   1.00
H786   H     0.22200   0.54955   0.63242   0.00000  Uiso   1.00
H787   H     0.11176   0.44988   0.36769   0.00000  Uiso   1.00
H788   H     0.03712   0.35778   0.52041   0.00000  Uiso   1.00
H789   H     0.06411   0.41024   0.52498   0.00000  Uiso   1.00
H790   H     0.00406   0.39895   0.48724   0.00000  Uiso   1.00
H791   H     0.08062   0.40684   0.44446   0.00000  Uiso   1.00
H792   H     0.04639   0.35985   0.43438   0.00000  Uiso   1.00
I793   I     0.31434   0.46870   0.41529   0.00000  Uiso   1.00
I794   I     0.01935   0.53001   0.58474   0.00000  Uiso   1.00
N795   N     0.16665   0.49999   0.61907   0.00000  Uiso   1.00
N796   N     0.16668   0.50001   0.38093   0.00000  Uiso   1.00
O797   O     0.16666   0.43892   0.53821   0.00000  Uiso   1.00
O798   O     0.16667   0.56108   0.46179   0.00000  Uiso   1.00
O799   O     0.16666   0.43893   0.46176   0.00000  Uiso   1.00
O800   O     0.16667   0.56107   0.53824   0.00000  Uiso   1.00
O801   O     0.09058   0.50000   0.52928   0.00000  Uiso   1.00
O802   O     0.24275   0.50000   0.47072   0.00000  Uiso   1.00
O803   O     0.09058   0.50000   0.45284   0.00000  Uiso   1.00
O804   O     0.24275   0.50000   0.54716   0.00000  Uiso   1.00
Zn805  Zn    0.16667   0.49999   0.55104   0.00000  Uiso   1.00
Zn806  Zn    0.16667   0.50001   0.44896   0.00000  Uiso   1.00
C807   C     0.50000   0.42013   0.49997   0.00000  Uiso   1.00
C808   C     0.54451   0.35644   0.52377   0.00000  Uiso   1.00
C809   C     0.50053   0.62410   0.50060   0.00000  Uiso   1.00
C810   C     0.50017   0.37596   0.50041   0.00000  Uiso   1.00
C811   C     0.53053   0.52786   0.36173   0.00000  Uiso   1.00
C812   C     0.46957   0.47204   0.63828   0.00000  Uiso   1.00
C813   C     0.53066   0.52769   0.64710   0.00000  Uiso   1.00
C814   C     0.46950   0.47210   0.35296   0.00000  Uiso   1.00
C815   C     0.40565   0.37736   0.46157   0.00000  Uiso   1.00
C816   C     0.37599   0.38668   0.50105   0.00000  Uiso   1.00
C817   C     0.59313   0.62261   0.54531   0.00000  Uiso   1.00
C818   C     0.50048   0.57990   0.50022   0.00000  Uiso   1.00
C819   C     0.59893   0.62381   0.59783   0.00000  Uiso   1.00
C820   C     0.40623   0.61800   0.46003   0.00000  Uiso   1.00
C821   C     0.40215   0.61085   0.40817   0.00000  Uiso   1.00
C822   C     0.59059   0.38267   0.54872   0.00000  Uiso   1.00
C823   C     0.58386   0.39512   0.59788   0.00000  Uiso   1.00
C824   C     0.40042   0.49992   0.48813   0.00000  Uiso   1.00
C825   C     0.59958   0.49974   0.51185   0.00000  Uiso   1.00
C826   C     0.34590   0.49548   0.48195   0.00000  Uiso   1.00
C827   C     0.65412   0.50384   0.51797   0.00000  Uiso   1.00
C828   C     0.45513   0.35401   0.47927   0.00000  Uiso   1.00
C829   C     0.54524   0.64606   0.52291   0.00000  Uiso   1.00
C830   C     0.45512   0.64373   0.47962   0.00000  Uiso   1.00
H831   H     0.55502   0.55006   0.38347   0.00000  Uiso   1.00
H832   H     0.56039   0.62327   0.60945   0.00000  Uiso   1.00
H833   H     0.62057   0.59652   0.61249   0.00000  Uiso   1.00
H834   H     0.62164   0.65175   0.61208   0.00000  Uiso   1.00
H835   H     0.59193   0.58947   0.53436   0.00000  Uiso   1.00
H836   H     0.62890   0.63474   0.53345   0.00000  Uiso   1.00
H837   H     0.43484   0.59209   0.40010   0.00000  Uiso   1.00
H838   H     0.36531   0.59361   0.39519   0.00000  Uiso   1.00
H839   H     0.40261   0.64084   0.38968   0.00000  Uiso   1.00
H840   H     0.40497   0.58728   0.47685   0.00000  Uiso   1.00
H841   H     0.37059   0.63280   0.46790   0.00000  Uiso   1.00
H842   H     0.44520   0.44977   0.61652   0.00000  Uiso   1.00
H843   H     0.62188   0.39426   0.62080   0.00000  Uiso   1.00
H844   H     0.57033   0.42751   0.59950   0.00000  Uiso   1.00
H845   H     0.55607   0.37375   0.61173   0.00000  Uiso   1.00
H846   H     0.62739   0.36623   0.55054   0.00000  Uiso   1.00
H847   H     0.59731   0.41109   0.52897   0.00000  Uiso   1.00
H848   H     0.55533   0.54955   0.63242   0.00000  Uiso   1.00
H849   H     0.44509   0.44988   0.36769   0.00000  Uiso   1.00
H850   H     0.37045   0.35778   0.52041   0.00000  Uiso   1.00
H851   H     0.39744   0.41024   0.52498   0.00000  Uiso   1.00
H852   H     0.33739   0.39895   0.48724   0.00000  Uiso   1.00
H853   H     0.41396   0.40684   0.44446   0.00000  Uiso   1.00
H854   H     0.37972   0.35985   0.43438   0.00000  Uiso   1.00
I855   I     0.64767   0.46870   0.41529   0.00000  Uiso   1.00
I856   I     0.35268   0.53001   0.58474   0.00000  Uiso   1.00
N857   N     0.49999   0.49999   0.61907   0.00000  Uiso   1.00
N858   N     0.50001   0.50001   0.38093   0.00000  Uiso   1.00
O859   O     0.50000   0.43892   0.53821   0.00000  Uiso   1.00
O860   O     0.50000   0.56108   0.46179   0.00000  Uiso   1.00
O861   O     0.50000   0.43893   0.46176   0.00000  Uiso   1.00
O862   O     0.50000   0.56107   0.53824   0.00000  Uiso   1.00
O863   O     0.42392   0.50000   0.52928   0.00000  Uiso   1.00
O864   O     0.57608   0.50000   0.47072   0.00000  Uiso   1.00
O865   O     0.42392   0.50000   0.45284   0.00000  Uiso   1.00
O866   O     0.57608   0.50000   0.54716   0.00000  Uiso   1.00
Zn867  Zn    0.50000   0.49999   0.55104   0.00000  Uiso   1.00
Zn868  Zn    0.50000   0.50001   0.44896   0.00000  Uiso   1.00
C869   C     0.83333   0.42013   0.49997   0.00000  Uiso   1.00
C870   C     0.87784   0.35644   0.52377   0.00000  Uiso   1.00
C871   C     0.83387   0.62410   0.50060   0.00000  Uiso   1.00
C872   C     0.83350   0.37596   0.50041   0.00000  Uiso   1.00
C873   C     0.86386   0.52786   0.36173   0.00000  Uiso   1.00
C874   C     0.80290   0.47204   0.63828   0.00000  Uiso   1.00
C875   C     0.86399   0.52769   0.64710   0.00000  Uiso   1.00
C876   C     0.80284   0.47210   0.35296   0.00000  Uiso   1.00
C877   C     0.73898   0.37736   0.46157   0.00000  Uiso   1.00
C878   C     0.70932   0.38668   0.50105   0.00000  Uiso   1.00
C879   C     0.92647   0.62261   0.54531   0.00000  Uiso   1.00
C880   C     0.83382   0.57990   0.50022   0.00000  Uiso   1.00
C881   C     0.93227   0.62381   0.59783   0.00000  Uiso   1.00
C882   C     0.73956   0.61800   0.46003   0.00000  Uiso   1.00
C883   C     0.73549   0.61085   0.40817   0.00000  Uiso   1.00
C884   C     0.92392   0.38267   0.54872   0.00000  Uiso   1.00
C885   C     0.91720   0.39512   0.59788   0.00000  Uiso   1.00
C886   C     0.73375   0.49992   0.48813   0.00000  Uiso   1.00
C887   C     0.93291   0.49974   0.51185   0.00000  Uiso   1.00
C888   C     0.67923   0.49548   0.48195   0.00000  Uiso   1.00
C889   C     0.98745   0.50384   0.51797   0.00000  Uiso   1.00
C890   C     0.78846   0.35401   0.47927   0.00000  Uiso   1.00
C891   C     0.87858   0.64606   0.52291   0.00000  Uiso   1.00
C892   C     0.78845   0.64373   0.47962   0.00000  Uiso   1.00
H893   H     0.88836   0.55006   0.38347   0.00000  Uiso   1.00
H894   H     0.89372   0.62327   0.60945   0.00000  Uiso   1.00
H895   H     0.95390   0.59652   0.61249   0.00000  Uiso   1.00
H896   H     0.95497   0.65175   0.61208   0.00000  Uiso   1.00
H897   H     0.92526   0.58947   0.53436   0.00000  Uiso   1.00
H898   H     0.96223   0.63474   0.53345   0.00000  Uiso   1.00
H899   H     0.76817   0.59209   0.40010   0.00000  Uiso   1.00
H900   H     0.69865   0.59361   0.39519   0.00000  Uiso   1.00
H901   H     0.73595   0.64084   0.38968   0.00000  Uiso   1.00
H902   H     0.73830   0.58728   0.47685   0.00000  Uiso   1.00
H903   H     0.70392   0.63280   0.46790   0.00000  Uiso   1.00
H904   H     0.77853   0.44977   0.61652   0.00000  Uiso   1.00
H905   H     0.95521   0.39426   0.62080   0.00000  Uiso   1.00
H906   H     0.90367   0.42751   0.59950   0.00000  Uiso   1.00
H907   H     0.88941   0.37375   0.61173   0.00000  Uiso   1.00
H908   H     0.96073   0.36623   0.55054   0.00000  Uiso   1.00
H909   H     0.93064   0.41109   0.52897   0.00000  Uiso   1.00
H910   H     0.88867   0.54955   0.63242   0.00000  Uiso   1.00
H911   H     0.77842   0.44988   0.36769   0.00000  Uiso   1.00
H912   H     0.70378   0.35778   0.52041   0.00000  Uiso   1.00
H913   H     0.73077   0.41024   0.52498   0.00000  Uiso   1.00
H914   H     0.67073   0.39895   0.48724   0.00000  Uiso   1.00
H915   H     0.74729   0.40684   0.44446   0.00000  Uiso   1.00
H916   H     0.71306   0.35985   0.43438   0.00000  Uiso   1.00
I917   I     0.98100   0.46870   0.41529   0.00000  Uiso   1.00
I918   I     0.68602   0.53001   0.58474   0.00000  Uiso   1.00
N919   N     0.83332   0.49999   0.61907   0.00000  Uiso   1.00
N920   N     0.83335   0.50001   0.38093   0.00000  Uiso   1.00
O921   O     0.83333   0.43892   0.53821   0.00000  Uiso   1.00
O922   O     0.83334   0.56108   0.46179   0.00000  Uiso   1.00
O923   O     0.83333   0.43893   0.46176   0.00000  Uiso   1.00
O924   O     0.83334   0.56107   0.53824   0.00000  Uiso   1.00
O925   O     0.75725   0.50000   0.52928   0.00000  Uiso   1.00
O926   O     0.90942   0.50000   0.47072   0.00000  Uiso   1.00
O927   O     0.75725   0.50000   0.45284   0.00000  Uiso   1.00
O928   O     0.90942   0.50000   0.54716   0.00000  Uiso   1.00
Zn929  Zn    0.83333   0.49999   0.55104   0.00000  Uiso   1.00
Zn930  Zn    0.83333   0.50001   0.44896   0.00000  Uiso   1.00
C931   C     0.16667   0.75347   0.49997   0.00000  Uiso   1.00
C932   C     0.21117   0.68978   0.52377   0.00000  Uiso   1.00
C933   C     0.16720   0.95744   0.50060   0.00000  Uiso   1.00
C934   C     0.16684   0.70930   0.50041   0.00000  Uiso   1.00
C935   C     0.19719   0.86119   0.36173   0.00000  Uiso   1.00
C936   C     0.13624   0.80537   0.63828   0.00000  Uiso   1.00
C937   C     0.19732   0.86103   0.64710   0.00000  Uiso   1.00
C938   C     0.13617   0.80544   0.35296   0.00000  Uiso   1.00
C939   C     0.07231   0.71069   0.46157   0.00000  Uiso   1.00
C940   C     0.04266   0.72001   0.50105   0.00000  Uiso   1.00
C941   C     0.25980   0.95595   0.54531   0.00000  Uiso   1.00
C942   C     0.16715   0.91323   0.50022   0.00000  Uiso   1.00
C943   C     0.26560   0.95714   0.59783   0.00000  Uiso   1.00
C944   C     0.07290   0.95134   0.46003   0.00000  Uiso   1.00
C945   C     0.06882   0.94419   0.40817   0.00000  Uiso   1.00
C946   C     0.25725   0.71600   0.54872   0.00000  Uiso   1.00
C947   C     0.25053   0.72846   0.59788   0.00000  Uiso   1.00
C948   C     0.06709   0.83326   0.48813   0.00000  Uiso   1.00
C949   C     0.26624   0.83307   0.51185   0.00000  Uiso   1.00
C950   C     0.01256   0.82881   0.48195   0.00000  Uiso   1.00
C951   C     0.32079   0.83717   0.51797   0.00000  Uiso   1.00
C952   C     0.12180   0.68734   0.47927   0.00000  Uiso   1.00
C953   C     0.21191   0.97939   0.52291   0.00000  Uiso   1.00
C954   C     0.12179   0.97706   0.47962   0.00000  Uiso   1.00
H955   H     0.22169   0.88339   0.38347   0.00000  Uiso   1.00
H956   H     0.22705   0.95660   0.60945   0.00000  Uiso   1.00
H957   H     0.28724   0.92985   0.61249   0.00000  Uiso   1.00
H958   H     0.28830   0.98508   0.61208   0.00000  Uiso   1.00
H959   H     0.25860   0.92280   0.53436   0.00000  Uiso   1.00
H960   H     0.29556   0.96807   0.53345   0.00000  Uiso   1.00
H961   H     0.10150   0.92543   0.40010   0.00000  Uiso   1.00
H962   H     0.03198   0.92694   0.39519   0.00000  Uiso   1.00
H963   H     0.06928   0.97417   0.38968   0.00000  Uiso   1.00
H964   H     0.07164   0.92062   0.47685   0.00000  Uiso   1.00
H965   H     0.03725   0.96614   0.46790   0.00000  Uiso   1.00
H966   H     0.11187   0.78310   0.61652   0.00000  Uiso   1.00
H967   H     0.28855   0.72759   0.62080   0.00000  Uiso   1.00
H968   H     0.23700   0.76084   0.59950   0.00000  Uiso   1.00
H969   H     0.22274   0.70708   0.61173   0.00000  Uiso   1.00
H970   H     0.29406   0.69956   0.55054   0.00000  Uiso   1.00
H971   H     0.26397   0.74442   0.52897   0.00000  Uiso   1.00
H972   H     0.22200   0.88288   0.63242   0.00000  Uiso   1.00
H973   H     0.11176   0.78321   0.36769   0.00000  Uiso   1.00
H974   H     0.03712   0.69111   0.52041   0.00000  Uiso   1.00
H975   H     0.06411   0.74358   0.52498   0.00000  Uiso   1.00
H976   H     0.00406   0.73229   0.48724   0.00000  Uiso   1.00
H977   H     0.08062   0.74017   0.44446   0.00000  Uiso   1.00
H978   H     0.04639   0.69319   0.43438   0.00000  Uiso   1.00
I979   I     0.31434   0.80204   0.41529   0.00000  Uiso   1.00
I980   I     0.01935   0.86334   0.58474   0.00000  Uiso   1.00
N981   N     0.16665   0.83332   0.61907   0.00000  Uiso   1.00
N982   N     0.16668   0.83334   0.38093   0.00000  Uiso   1.00
O983   O     0.16666   0.77225   0.53821   0.00000  Uiso   1.00
O984   O     0.16667   0.89442   0.46179   0.00000  Uiso   1.00
O985   O     0.16666   0.77226   0.46176   0.00000  Uiso   1.00
O986   O     0.16667   0.89441   0.53824   0.00000  Uiso   1.00
O987   O     0.09058   0.83333   0.52928   0.00000  Uiso   1.00
O988   O     0.24275   0.83334   0.47072   0.00000  Uiso   1.00
O989   O     0.09058   0.83334   0.45284   0.00000  Uiso   1.00
O990   O     0.24275   0.83333   0.54716   0.00000  Uiso   1.00
Zn991  Zn    0.16667   0.83333   0.55104   0.00000  Uiso   1.00
Zn992  Zn    0.16667   0.83334   0.44896   0.00000  Uiso   1.00
C993   C     0.50000   0.75347   0.49997   0.00000  Uiso   1.00
C994   C     0.54451   0.68978   0.52377   0.00000  Uiso   1.00
C995   C     0.50053   0.95744   0.50060   0.00000  Uiso   1.00
C996   C     0.50017   0.70930   0.50041   0.00000  Uiso   1.00
C997   C     0.53053   0.86119   0.36173   0.00000  Uiso   1.00
C998   C     0.46957   0.80537   0.63828   0.00000  Uiso   1.00
C999   C     0.53066   0.86103   0.64710   0.00000  Uiso   1.00
C1000  C     0.46950   0.80544   0.35296   0.00000  Uiso   1.00
C1001  C     0.40565   0.71069   0.46157   0.00000  Uiso   1.00
C1002  C     0.37599   0.72001   0.50105   0.00000  Uiso   1.00
C1003  C     0.59313   0.95595   0.54531   0.00000  Uiso   1.00
C1004  C     0.50048   0.91323   0.50022   0.00000  Uiso   1.00
C1005  C     0.59893   0.95714   0.59783   0.00000  Uiso   1.00
C1006  C     0.40623   0.95134   0.46003   0.00000  Uiso   1.00
C1007  C     0.40215   0.94419   0.40817   0.00000  Uiso   1.00
C1008  C     0.59059   0.71600   0.54872   0.00000  Uiso   1.00
C1009  C     0.58386   0.72846   0.59788   0.00000  Uiso   1.00
C1010  C     0.40042   0.83326   0.48813   0.00000  Uiso   1.00
C1011  C     0.59958   0.83307   0.51185   0.00000  Uiso   1.00
C1012  C     0.34590   0.82881   0.48195   0.00000  Uiso   1.00
C1013  C     0.65412   0.83717   0.51797   0.00000  Uiso   1.00
C1014  C     0.45513   0.68734   0.47927   0.00000  Uiso   1.00
C1015  C     0.54524   0.97939   0.52291   0.00000  Uiso   1.00
C1016  C     0.45512   0.97706   0.47962   0.00000  Uiso   1.00
H1017  H     0.55502   0.88339   0.38347   0.00000  Uiso   1.00
H1018  H     0.56039   0.95660   0.60945   0.00000  Uiso   1.00
H1019  H     0.62057   0.92985   0.61249   0.00000  Uiso   1.00
H1020  H     0.62164   0.98508   0.61208   0.00000  Uiso   1.00
H1021  H     0.59193   0.92280   0.53436   0.00000  Uiso   1.00
H1022  H     0.62890   0.96807   0.53345   0.00000  Uiso   1.00
H1023  H     0.43484   0.92543   0.40010   0.00000  Uiso   1.00
H1024  H     0.36531   0.92694   0.39519   0.00000  Uiso   1.00
H1025  H     0.40261   0.97417   0.38968   0.00000  Uiso   1.00
H1026  H     0.40497   0.92062   0.47685   0.00000  Uiso   1.00
H1027  H     0.37059   0.96614   0.46790   0.00000  Uiso   1.00
H1028  H     0.44520   0.78310   0.61652   0.00000  Uiso   1.00
H1029  H     0.62188   0.72759   0.62080   0.00000  Uiso   1.00
H1030  H     0.57033   0.76084   0.59950   0.00000  Uiso   1.00
H1031  H     0.55607   0.70708   0.61173   0.00000  Uiso   1.00
H1032  H     0.62739   0.69956   0.55054   0.00000  Uiso   1.00
H1033  H     0.59731   0.74442   0.52897   0.00000  Uiso   1.00
H1034  H     0.55533   0.88288   0.63242   0.00000  Uiso   1.00
H1035  H     0.44509   0.78321   0.36769   0.00000  Uiso   1.00
H1036  H     0.37045   0.69111   0.52041   0.00000  Uiso   1.00
H1037  H     0.39744   0.74358   0.52498   0.00000  Uiso   1.00
H1038  H     0.33739   0.73229   0.48724   0.00000  Uiso   1.00
H1039  H     0.41396   0.74017   0.44446   0.00000  Uiso   1.00
H1040  H     0.37972   0.69319   0.43438   0.00000  Uiso   1.00
I1041  I     0.64767   0.80204   0.41529   0.00000  Uiso   1.00
I1042  I     0.35268   0.86334   0.58474   0.00000  Uiso   1.00
N1043  N     0.49999   0.83332   0.61907   0.00000  Uiso   1.00
N1044  N     0.50001   0.83334   0.38093   0.00000  Uiso   1.00
O1045  O     0.50000   0.77225   0.53821   0.00000  Uiso   1.00
O1046  O     0.50000   0.89442   0.46179   0.00000  Uiso   1.00
O1047  O     0.50000   0.77226   0.46176   0.00000  Uiso   1.00
O1048  O     0.50000   0.89441   0.53824   0.00000  Uiso   1.00
O1049  O     0.42392   0.83333   0.52928   0.00000  Uiso   1.00
O1050  O     0.57608   0.83334   0.47072   0.00000  Uiso   1.00
O1051  O     0.42392   0.83334   0.45284   0.00000  Uiso   1.00
O1052  O     0.57608   0.83333   0.54716   0.00000  Uiso   1.00
Zn1053 Zn    0.50000   0.83333   0.55104   0.00000  Uiso   1.00
Zn1054 Zn    0.50000   0.83334   0.44896   0.00000  Uiso   1.00
C1055  C     0.83333   0.75347   0.49997   0.00000  Uiso   1.00
C1056  C     0.87784   0.68978   0.52377   0.00000  Uiso   1.00
C1057  C     0.83387   0.95744   0.50060   0.00000  Uiso   1.00
C1058  C     0.83350   0.70930   0.50041   0.00000  Uiso   1.00
C1059  C     0.86386   0.86119   0.36173   0.00000  Uiso   1.00
C1060  C     0.80290   0.80537   0.63828   0.00000  Uiso   1.00
C1061  C     0.86399   0.86103   0.64710   0.00000  Uiso   1.00
C1062  C     0.80284   0.80544   0.35296   0.00000  Uiso   1.00
C1063  C     0.73898   0.71069   0.46157   0.00000  Uiso   1.00
C1064  C     0.70932   0.72001   0.50105   0.00000  Uiso   1.00
C1065  C     0.92647   0.95595   0.54531   0.00000  Uiso   1.00
C1066  C     0.83382   0.91323   0.50022   0.00000  Uiso   1.00
C1067  C     0.93227   0.95714   0.59783   0.00000  Uiso   1.00
C1068  C     0.73956   0.95134   0.46003   0.00000  Uiso   1.00
C1069  C     0.73549   0.94419   0.40817   0.00000  Uiso   1.00
C1070  C     0.92392   0.71600   0.54872   0.00000  Uiso   1.00
C1071  C     0.91720   0.72846   0.59788   0.00000  Uiso   1.00
C1072  C     0.73375   0.83326   0.48813   0.00000  Uiso   1.00
C1073  C     0.93291   0.83307   0.51185   0.00000  Uiso   1.00
C1074  C     0.67923   0.82881   0.48195   0.00000  Uiso   1.00
C1075  C     0.98745   0.83717   0.51797   0.00000  Uiso   1.00
C1076  C     0.78846   0.68734   0.47927   0.00000  Uiso   1.00
C1077  C     0.87858   0.97939   0.52291   0.00000  Uiso   1.00
C1078  C     0.78845   0.97706   0.47962   0.00000  Uiso   1.00
H1079  H     0.88836   0.88339   0.38347   0.00000  Uiso   1.00
H1080  H     0.89372   0.95660   0.60945   0.00000  Uiso   1.00
H1081  H     0.95390   0.92985   0.61249   0.00000  Uiso   1.00
H1082  H     0.95497   0.98508   0.61208   0.00000  Uiso   1.00
H1083  H     0.92526   0.92280   0.53436   0.00000  Uiso   1.00
H1084  H     0.96223   0.96807   0.53345   0.00000  Uiso   1.00
H1085  H     0.76817   0.92543   0.40010   0.00000  Uiso   1.00
H1086  H     0.69865   0.92694   0.39519   0.00000  Uiso   1.00
H1087  H     0.73595   0.97417   0.38968   0.00000  Uiso   1.00
H1088  H     0.73830   0.92062   0.47685   0.00000  Uiso   1.00
H1089  H     0.70392   0.96614   0.46790   0.00000  Uiso   1.00
H1090  H     0.77853   0.78310   0.61652   0.00000  Uiso   1.00
H1091  H     0.95521   0.72759   0.62080   0.00000  Uiso   1.00
H1092  H     0.90367   0.76084   0.59950   0.00000  Uiso   1.00
H1093  H     0.88941   0.70708   0.61173   0.00000  Uiso   1.00
H1094  H     0.96073   0.69956   0.55054   0.00000  Uiso   1.00
H1095  H     0.93064   0.74442   0.52897   0.00000  Uiso   1.00
H1096  H     0.88867   0.88288   0.63242   0.00000  Uiso   1.00
H1097  H     0.77842   0.78321   0.36769   0.00000  Uiso   1.00
H1098  H     0.70378   0.69111   0.52041   0.00000  Uiso   1.00
H1099  H     0.73077   0.74358   0.52498   0.00000  Uiso   1.00
H1100  H     0.67073   0.73229   0.48724   0.00000  Uiso   1.00
H1101  H     0.74729   0.74017   0.44446   0.00000  Uiso   1.00
H1102  H     0.71306   0.69319   0.43438   0.00000  Uiso   1.00
I1103  I     0.98100   0.80204   0.41529   0.00000  Uiso   1.00
I1104  I     0.68602   0.86334   0.58474   0.00000  Uiso   1.00
N1105  N     0.83332   0.83332   0.61907   0.00000  Uiso   1.00
N1106  N     0.83335   0.83334   0.38093   0.00000  Uiso   1.00
O1107  O     0.83333   0.77225   0.53821   0.00000  Uiso   1.00
O1108  O     0.83334   0.89442   0.46179   0.00000  Uiso   1.00
O1109  O     0.83333   0.77226   0.46176   0.00000  Uiso   1.00
O1110  O     0.83334   0.89441   0.53824   0.00000  Uiso   1.00
O1111  O     0.75725   0.83333   0.52928   0.00000  Uiso   1.00
O1112  O     0.90942   0.83334   0.47072   0.00000  Uiso   1.00
O1113  O     0.75725   0.83334   0.45284   0.00000  Uiso   1.00
O1114  O     0.90942   0.83333   0.54716   0.00000  Uiso   1.00
Zn1115 Zn    0.83333   0.83333   0.55104   0.00000  Uiso   1.00
Zn1116 Zn    0.83333   0.83334   0.44896   0.00000  Uiso   1.00
C1117  C     0.16667   0.08680   0.83331   0.00000  Uiso   1.00
C1118  C     0.21117   0.02311   0.85710   0.00000  Uiso   1.00
C1119  C     0.16720   0.29077   0.83394   0.00000  Uiso   1.00
C1120  C     0.16684   0.04263   0.83374   0.00000  Uiso   1.00
C1121  C     0.19719   0.19452   0.69506   0.00000  Uiso   1.00
C1122  C     0.13624   0.13871   0.97161   0.00000  Uiso   1.00
C1123  C     0.19732   0.19436   0.98043   0.00000  Uiso   1.00
C1124  C     0.13617   0.13877   0.68629   0.00000  Uiso   1.00
C1125  C     0.07231   0.04402   0.79490   0.00000  Uiso   1.00
C1126  C     0.04266   0.05335   0.83438   0.00000  Uiso   1.00
C1127  C     0.25980   0.28928   0.87865   0.00000  Uiso   1.00
C1128  C     0.16715   0.24656   0.83356   0.00000  Uiso   1.00
C1129  C     0.26560   0.29048   0.93116   0.00000  Uiso   1.00
C1130  C     0.07290   0.28467   0.79336   0.00000  Uiso   1.00
C1131  C     0.06882   0.27752   0.74150   0.00000  Uiso   1.00
C1132  C     0.25725   0.04934   0.88205   0.00000  Uiso   1.00
C1133  C     0.25053   0.06179   0.93122   0.00000  Uiso   1.00
C1134  C     0.06709   0.16659   0.82146   0.00000  Uiso   1.00
C1135  C     0.26624   0.16641   0.84518   0.00000  Uiso   1.00
C1136  C     0.01256   0.16215   0.81529   0.00000  Uiso   1.00
C1137  C     0.32079   0.17051   0.85130   0.00000  Uiso   1.00
C1138  C     0.12180   0.02068   0.81260   0.00000  Uiso   1.00
C1139  C     0.21191   0.31272   0.85624   0.00000  Uiso   1.00
C1140  C     0.12179   0.31039   0.81295   0.00000  Uiso   1.00
H1141  H     0.22169   0.21673   0.71680   0.00000  Uiso   1.00
H1142  H     0.22705   0.28993   0.94278   0.00000  Uiso   1.00
H1143  H     0.28724   0.26318   0.94582   0.00000  Uiso   1.00
H1144  H     0.28830   0.31842   0.94542   0.00000  Uiso   1.00
H1145  H     0.25860   0.25614   0.86769   0.00000  Uiso   1.00
H1146  H     0.29556   0.30140   0.86679   0.00000  Uiso   1.00
H1147  H     0.10150   0.25876   0.73344   0.00000  Uiso   1.00
H1148  H     0.03198   0.26028   0.72852   0.00000  Uiso   1.00
H1149  H     0.06928   0.30751   0.72301   0.00000  Uiso   1.00
H1150  H     0.07164   0.25395   0.81018   0.00000  Uiso   1.00
H1151  H     0.03725   0.29947   0.80124   0.00000  Uiso   1.00
H1152  H     0.11187   0.11643   0.94986   0.00000  Uiso   1.00
H1153  H     0.28855   0.06093   0.95414   0.00000  Uiso   1.00
H1154  H     0.23700   0.09418   0.93284   0.00000  Uiso   1.00
H1155  H     0.22274   0.04042   0.94506   0.00000  Uiso   1.00
H1156  H     0.29406   0.03289   0.88387   0.00000  Uiso   1.00
H1157  H     0.26397   0.07776   0.86230   0.00000  Uiso   1.00
H1158  H     0.22200   0.21621   0.96576   0.00000  Uiso   1.00
H1159  H     0.11176   0.11655   0.70103   0.00000  Uiso   1.00
H1160  H     0.03712   0.02445   0.85374   0.00000  Uiso   1.00
H1161  H     0.06411   0.07691   0.85832   0.00000  Uiso   1.00
H1162  H     0.00406   0.06562   0.82058   0.00000  Uiso   1.00
H1163  H     0.08062   0.07350   0.77780   0.00000  Uiso   1.00
H1164  H     0.04639   0.02652   0.76771   0.00000  Uiso   1.00
I1165  I     0.31434   0.13537   0.74862   0.00000  Uiso   1.00
I1166  I     0.01935   0.19667   0.91807   0.00000  Uiso   1.00
N1167  N     0.16665   0.16666   0.95240   0.00000  Uiso   1.00
N1168  N     0.16668   0.16668   0.71427   0.00000  Uiso   1.00
O1169  O     0.16666   0.10558   0.87154   0.00000  Uiso   1.00
O1170  O     0.16667   0.22775   0.79513   0.00000  Uiso   1.00
O1171  O     0.16666   0.10559   0.79510   0.00000  Uiso   1.00
O1172  O     0.16667   0.22774   0.87157   0.00000  Uiso   1.00
O1173  O     0.09058   0.16666   0.86261   0.00000  Uiso   1.00
O1174  O     0.24275   0.16667   0.80405   0.00000  Uiso   1.00
O1175  O     0.09058   0.16667   0.78617   0.00000  Uiso   1.00
O1176  O     0.24275   0.16666   0.88050   0.00000  Uiso   1.00
Zn1177 Zn    0.16667   0.16666   0.88437   0.00000  Uiso   1.00
Zn1178 Zn    0.16667   0.16667   0.78229   0.00000  Uiso   1.00
C1179  C     0.50000   0.08680   0.83331   0.00000  Uiso   1.00
C1180  C     0.54451   0.02311   0.85710   0.00000  Uiso   1.00
C1181  C     0.50053   0.29077   0.83394   0.00000  Uiso   1.00
C1182  C     0.50017   0.04263   0.83374   0.00000  Uiso   1.00
C1183  C     0.53053   0.19452   0.69506   0.00000  Uiso   1.00
C1184  C     0.46957   0.13871   0.97161   0.00000  Uiso   1.00
C1185  C     0.53066   0.19436   0.98043   0.00000  Uiso   1.00
C1186  C     0.46950   0.13877   0.68629   0.00000  Uiso   1.00
C1187  C     0.40565   0.04402   0.79490   0.00000  Uiso   1.00
C1188  C     0.37599   0.05335   0.83438   0.00000  Uiso   1.00
C1189  C     0.59313   0.28928   0.87865   0.00000  Uiso   1.00
C1190  C     0.50048   0.24656   0.83356   0.00000  Uiso   1.00
C1191  C     0.59893   0.29048   0.93116   0.00000  Uiso   1.00
C1192  C     0.40623   0.28467   0.79336   0.00000  Uiso   1.00
C1193  C     0.40215   0.27752   0.74150   0.00000  Uiso   1.00
C1194  C     0.59059   0.04934   0.88205   0.00000  Uiso   1.00
C1195  C     0.58386   0.06179   0.93122   0.00000  Uiso   1.00
C1196  C     0.40042   0.16659   0.82146   0.00000  Uiso   1.00
C1197  C     0.59958   0.16641   0.84518   0.00000  Uiso   1.00
C1198  C     0.34590   0.16215   0.81529   0.00000  Uiso   1.00
C1199  C     0.65412   0.17051   0.85130   0.00000  Uiso   1.00
C1200  C     0.45513   0.02068   0.81260   0.00000  Uiso   1.00
C1201  C     0.54524   0.31272   0.85624   0.00000  Uiso   1.00
C1202  C     0.45512   0.31039   0.81295   0.00000  Uiso   1.00
H1203  H     0.55502   0.21673   0.71680   0.00000  Uiso   1.00
H1204  H     0.56039   0.28993   0.94278   0.00000  Uiso   1.00
H1205  H     0.62057   0.26318   0.94582   0.00000  Uiso   1.00
H1206  H     0.62164   0.31842   0.94542   0.00000  Uiso   1.00
H1207  H     0.59193   0.25614   0.86769   0.00000  Uiso   1.00
H1208  H     0.62890   0.30140   0.86679   0.00000  Uiso   1.00
H1209  H     0.43484   0.25876   0.73344   0.00000  Uiso   1.00
H1210  H     0.36531   0.26028   0.72852   0.00000  Uiso   1.00
H1211  H     0.40261   0.30751   0.72301   0.00000  Uiso   1.00
H1212  H     0.40497   0.25395   0.81018   0.00000  Uiso   1.00
H1213  H     0.37059   0.29947   0.80124   0.00000  Uiso   1.00
H1214  H     0.44520   0.11643   0.94986   0.00000  Uiso   1.00
H1215  H     0.62188   0.06093   0.95414   0.00000  Uiso   1.00
H1216  H     0.57033   0.09418   0.93284   0.00000  Uiso   1.00
H1217  H     0.55607   0.04042   0.94506   0.00000  Uiso   1.00
H1218  H     0.62739   0.03289   0.88387   0.00000  Uiso   1.00
H1219  H     0.59731   0.07776   0.86230   0.00000  Uiso   1.00
H1220  H     0.55533   0.21621   0.96576   0.00000  Uiso   1.00
H1221  H     0.44509   0.11655   0.70103   0.00000  Uiso   1.00
H1222  H     0.37045   0.02445   0.85374   0.00000  Uiso   1.00
H1223  H     0.39744   0.07691   0.85832   0.00000  Uiso   1.00
H1224  H     0.33739   0.06562   0.82058   0.00000  Uiso   1.00
H1225  H     0.41396   0.07350   0.77780   0.00000  Uiso   1.00
H1226  H     0.37972   0.02652   0.76771   0.00000  Uiso   1.00
I1227  I     0.64767   0.13537   0.74862   0.00000  Uiso   1.00
I1228  I     0.35268   0.19667   0.91807   0.00000  Uiso   1.00
N1229  N     0.49999   0.16666   0.95240   0.00000  Uiso   1.00
N1230  N     0.50001   0.16668   0.71427   0.00000  Uiso   1.00
O1231  O     0.50000   0.10558   0.87154   0.00000  Uiso   1.00
O1232  O     0.50000   0.22775   0.79513   0.00000  Uiso   1.00
O1233  O     0.50000   0.10559   0.79510   0.00000  Uiso   1.00
O1234  O     0.50000   0.22774   0.87157   0.00000  Uiso   1.00
O1235  O     0.42392   0.16666   0.86261   0.00000  Uiso   1.00
O1236  O     0.57608   0.16667   0.80405   0.00000  Uiso   1.00
O1237  O     0.42392   0.16667   0.78617   0.00000  Uiso   1.00
O1238  O     0.57608   0.16666   0.88050   0.00000  Uiso   1.00
Zn1239 Zn    0.50000   0.16666   0.88437   0.00000  Uiso   1.00
Zn1240 Zn    0.50000   0.16667   0.78229   0.00000  Uiso   1.00
C1241  C     0.83333   0.08680   0.83331   0.00000  Uiso   1.00
C1242  C     0.87784   0.02311   0.85710   0.00000  Uiso   1.00
C1243  C     0.83387   0.29077   0.83394   0.00000  Uiso   1.00
C1244  C     0.83350   0.04263   0.83374   0.00000  Uiso   1.00
C1245  C     0.86386   0.19452   0.69506   0.00000  Uiso   1.00
C1246  C     0.80290   0.13871   0.97161   0.00000  Uiso   1.00
C1247  C     0.86399   0.19436   0.98043   0.00000  Uiso   1.00
C1248  C     0.80284   0.13877   0.68629   0.00000  Uiso   1.00
C1249  C     0.73898   0.04402   0.79490   0.00000  Uiso   1.00
C1250  C     0.70932   0.05335   0.83438   0.00000  Uiso   1.00
C1251  C     0.92647   0.28928   0.87865   0.00000  Uiso   1.00
C1252  C     0.83382   0.24656   0.83356   0.00000  Uiso   1.00
C1253  C     0.93227   0.29048   0.93116   0.00000  Uiso   1.00
C1254  C     0.73956   0.28467   0.79336   0.00000  Uiso   1.00
C1255  C     0.73549   0.27752   0.74150   0.00000  Uiso   1.00
C1256  C     0.92392   0.04934   0.88205   0.00000  Uiso   1.00
C1257  C     0.91720   0.06179   0.93122   0.00000  Uiso   1.00
C1258  C     0.73375   0.16659   0.82146   0.00000  Uiso   1.00
C1259  C     0.93291   0.16641   0.84518   0.00000  Uiso   1.00
C1260  C     0.67923   0.16215   0.81529   0.00000  Uiso   1.00
C1261  C     0.98745   0.17051   0.85130   0.00000  Uiso   1.00
C1262  C     0.78846   0.02068   0.81260   0.00000  Uiso   1.00
C1263  C     0.87858   0.31272   0.85624   0.00000  Uiso   1.00
C1264  C     0.78845   0.31039   0.81295   0.00000  Uiso   1.00
H1265  H     0.88836   0.21673   0.71680   0.00000  Uiso   1.00
H1266  H     0.89372   0.28993   0.94278   0.00000  Uiso   1.00
H1267  H     0.95390   0.26318   0.94582   0.00000  Uiso   1.00
H1268  H     0.95497   0.31842   0.94542   0.00000  Uiso   1.00
H1269  H     0.92526   0.25614   0.86769   0.00000  Uiso   1.00
H1270  H     0.96223   0.30140   0.86679   0.00000  Uiso   1.00
H1271  H     0.76817   0.25876   0.73344   0.00000  Uiso   1.00
H1272  H     0.69865   0.26028   0.72852   0.00000  Uiso   1.00
H1273  H     0.73595   0.30751   0.72301   0.00000  Uiso   1.00
H1274  H     0.73830   0.25395   0.81018   0.00000  Uiso   1.00
H1275  H     0.70392   0.29947   0.80124   0.00000  Uiso   1.00
H1276  H     0.77853   0.11643   0.94986   0.00000  Uiso   1.00
H1277  H     0.95521   0.06093   0.95414   0.00000  Uiso   1.00
H1278  H     0.90367   0.09418   0.93284   0.00000  Uiso   1.00
H1279  H     0.88941   0.04042   0.94506   0.00000  Uiso   1.00
H1280  H     0.96073   0.03289   0.88387   0.00000  Uiso   1.00
H1281  H     0.93064   0.07776   0.86230   0.00000  Uiso   1.00
H1282  H     0.88867   0.21621   0.96576   0.00000  Uiso   1.00
H1283  H     0.77842   0.11655   0.70103   0.00000  Uiso   1.00
H1284  H     0.70378   0.02445   0.85374   0.00000  Uiso   1.00
H1285  H     0.73077   0.07691   0.85832   0.00000  Uiso   1.00
H1286  H     0.67073   0.06562   0.82058   0.00000  Uiso   1.00
H1287  H     0.74729   0.07350   0.77780   0.00000  Uiso   1.00
H1288  H     0.71306   0.02652   0.76771   0.00000  Uiso   1.00
I1289  I     0.98100   0.13537   0.74862   0.00000  Uiso   1.00
I1290  I     0.68602   0.19667   0.91807   0.00000  Uiso   1.00
N1291  N     0.83332   0.16666   0.95240   0.00000  Uiso   1.00
N1292  N     0.83335   0.16668   0.71427   0.00000  Uiso   1.00
O1293  O     0.83333   0.10558   0.87154   0.00000  Uiso   1.00
O1294  O     0.83334   0.22775   0.79513   0.00000  Uiso   1.00
O1295  O     0.83333   0.10559   0.79510   0.00000  Uiso   1.00
O1296  O     0.83334   0.22774   0.87157   0.00000  Uiso   1.00
O1297  O     0.75725   0.16666   0.86261   0.00000  Uiso   1.00
O1298  O     0.90942   0.16667   0.80405   0.00000  Uiso   1.00
O1299  O     0.75725   0.16667   0.78617   0.00000  Uiso   1.00
O1300  O     0.90942   0.16666   0.88050   0.00000  Uiso   1.00
Zn1301 Zn    0.83333   0.16666   0.88437   0.00000  Uiso   1.00
Zn1302 Zn    0.83333   0.16667   0.78229   0.00000  Uiso   1.00
C1303  C     0.16667   0.42013   0.83331   0.00000  Uiso   1.00
C1304  C     0.21117   0.35644   0.85710   0.00000  Uiso   1.00
C1305  C     0.16720   0.62410   0.83394   0.00000  Uiso   1.00
C1306  C     0.16684   0.37596   0.83374   0.00000  Uiso   1.00
C1307  C     0.19719   0.52786   0.69506   0.00000  Uiso   1.00
C1308  C     0.13624   0.47204   0.97161   0.00000  Uiso   1.00
C1309  C     0.19732   0.52769   0.98043   0.00000  Uiso   1.00
C1310  C     0.13617   0.47210   0.68629   0.00000  Uiso   1.00
C1311  C     0.07231   0.37736   0.79490   0.00000  Uiso   1.00
C1312  C     0.04266   0.38668   0.83438   0.00000  Uiso   1.00
C1313  C     0.25980   0.62261   0.87865   0.00000  Uiso   1.00
C1314  C     0.16715   0.57990   0.83356   0.00000  Uiso   1.00
C1315  C     0.26560   0.62381   0.93116   0.00000  Uiso   1.00
C1316  C     0.07290   0.61800   0.79336   0.00000  Uiso   1.00
C1317  C     0.06882   0.61085   0.74150   0.00000  Uiso   1.00
C1318  C     0.25725   0.38267   0.88205   0.00000  Uiso   1.00
C1319  C     0.25053   0.39512   0.93122   0.00000  Uiso   1.00
C1320  C     0.06709   0.49992   0.82146   0.00000  Uiso   1.00
C1321  C     0.26624   0.49974   0.84518   0.00000  Uiso   1.00
C1322  C     0.01256   0.49548   0.81529   0.00000  Uiso   1.00
C1323  C     0.32079   0.50384   0.85130   0.00000  Uiso   1.00
C1324  C     0.12180   0.35401   0.81260   0.00000  Uiso   1.00
C1325  C     0.21191   0.64606   0.85624   0.00000  Uiso   1.00
C1326  C     0.12179   0.64373   0.81295   0.00000  Uiso   1.00
H1327  H     0.22169   0.55006   0.71680   0.00000  Uiso   1.00
H1328  H     0.22705   0.62327   0.94278   0.00000  Uiso   1.00
H1329  H     0.28724   0.59652   0.94582   0.00000  Uiso   1.00
H1330  H     0.28830   0.65175   0.94542   0.00000  Uiso   1.00
H1331  H     0.25860   0.58947   0.86769   0.00000  Uiso   1.00
H1332  H     0.29556   0.63474   0.86679   0.00000  Uiso   1.00
H1333  H     0.10150   0.59209   0.73344   0.00000  Uiso   1.00
H1334  H     0.03198   0.59361   0.72852   0.00000  Uiso   1.00
H1335  H     0.06928   0.64084   0.72301   0.00000  Uiso   1.00
H1336  H     0.07164   0.58728   0.81018   0.00000  Uiso   1.00
H1337  H     0.03725   0.63280   0.80124   0.00000  Uiso   1.00
H1338  H     0.11187   0.44977   0.94986   0.00000  Uiso   1.00
H1339  H     0.28855   0.39426   0.95414   0.00000  Uiso   1.00
H1340  H     0.23700   0.42751   0.93284   0.00000  Uiso   1.00
H1341  H     0.22274   0.37375   0.94506   0.00000  Uiso   1.00
H1342  H     0.29406   0.36623   0.88387   0.00000  Uiso   1.00
H1343  H     0.26397   0.41109   0.86230   0.00000  Uiso   1.00
H1344  H     0.22200   0.54955   0.96576   0.00000  Uiso   1.00
H1345  H     0.11176   0.44988   0.70103   0.00000  Uiso   1.00
H1346  H     0.03712   0.35778   0.85374   0.00000  Uiso   1.00
H1347  H     0.06411   0.41024   0.85832   0.00000  Uiso   1.00
H1348  H     0.00406   0.39895   0.82058   0.00000  Uiso   1.00
H1349  H     0.08062   0.40684   0.77780   0.00000  Uiso   1.00
H1350  H     0.04639   0.35985   0.76771   0.00000  Uiso   1.00
I1351  I     0.31434   0.46870   0.74862   0.00000  Uiso   1.00
I1352  I     0.01935   0.53001   0.91807   0.00000  Uiso   1.00
N1353  N     0.16665   0.49999   0.95240   0.00000  Uiso   1.00
N1354  N     0.16668   0.50001   0.71427   0.00000  Uiso   1.00
O1355  O     0.16666   0.43892   0.87154   0.00000  Uiso   1.00
O1356  O     0.16667   0.56108   0.79513   0.00000  Uiso   1.00
O1357  O     0.16666   0.43893   0.79510   0.00000  Uiso   1.00
O1358  O     0.16667   0.56107   0.87157   0.00000  Uiso   1.00
O1359  O     0.09058   0.50000   0.86261   0.00000  Uiso   1.00
O1360  O     0.24275   0.50000   0.80405   0.00000  Uiso   1.00
O1361  O     0.09058   0.50000   0.78617   0.00000  Uiso   1.00
O1362  O     0.24275   0.50000   0.88050   0.00000  Uiso   1.00
Zn1363 Zn    0.16667   0.49999   0.88437   0.00000  Uiso   1.00
Zn1364 Zn    0.16667   0.50001   0.78229   0.00000  Uiso   1.00
C1365  C     0.50000   0.42013   0.83331   0.00000  Uiso   1.00
C1366  C     0.54451   0.35644   0.85710   0.00000  Uiso   1.00
C1367  C     0.50053   0.62410   0.83394   0.00000  Uiso   1.00
C1368  C     0.50017   0.37596   0.83374   0.00000  Uiso   1.00
C1369  C     0.53053   0.52786   0.69506   0.00000  Uiso   1.00
C1370  C     0.46957   0.47204   0.97161   0.00000  Uiso   1.00
C1371  C     0.53066   0.52769   0.98043   0.00000  Uiso   1.00
C1372  C     0.46950   0.47210   0.68629   0.00000  Uiso   1.00
C1373  C     0.40565   0.37736   0.79490   0.00000  Uiso   1.00
C1374  C     0.37599   0.38668   0.83438   0.00000  Uiso   1.00
C1375  C     0.59313   0.62261   0.87865   0.00000  Uiso   1.00
C1376  C     0.50048   0.57990   0.83356   0.00000  Uiso   1.00
C1377  C     0.59893   0.62381   0.93116   0.00000  Uiso   1.00
C1378  C     0.40623   0.61800   0.79336   0.00000  Uiso   1.00
C1379  C     0.40215   0.61085   0.74150   0.00000  Uiso   1.00
C1380  C     0.59059   0.38267   0.88205   0.00000  Uiso   1.00
C1381  C     0.58386   0.39512   0.93122   0.00000  Uiso   1.00
C1382  C     0.40042   0.49992   0.82146   0.00000  Uiso   1.00
C1383  C     0.59958   0.49974   0.84518   0.00000  Uiso   1.00
C1384  C     0.34590   0.49548   0.81529   0.00000  Uiso   1.00
C1385  C     0.65412   0.50384   0.85130   0.00000  Uiso   1.00
C1386  C     0.45513   0.35401   0.81260   0.00000  Uiso   1.00
C1387  C     0.54524   0.64606   0.85624   0.00000  Uiso   1.00
C1388  C     0.45512   0.64373   0.81295   0.00000  Uiso   1.00
H1389  H     0.55502   0.55006   0.71680   0.00000  Uiso   1.00
H1390  H     0.56039   0.62327   0.94278   0.00000  Uiso   1.00
H1391  H     0.62057   0.59652   0.94582   0.00000  Uiso   1.00
H1392  H     0.62164   0.65175   0.94542   0.00000  Uiso   1.00
H1393  H     0.59193   0.58947   0.86769   0.00000  Uiso   1.00
H1394  H     0.62890   0.63474   0.86679   0.00000  Uiso   1.00
H1395  H     0.43484   0.59209   0.73344   0.00000  Uiso   1.00
H1396  H     0.36531   0.59361   0.72852   0.00000  Uiso   1.00
H1397  H     0.40261   0.64084   0.72301   0.00000  Uiso   1.00
H1398  H     0.40497   0.58728   0.81018   0.00000  Uiso   1.00
H1399  H     0.37059   0.63280   0.80124   0.00000  Uiso   1.00
H1400  H     0.44520   0.44977   0.94986   0.00000  Uiso   1.00
H1401  H     0.62188   0.39426   0.95414   0.00000  Uiso   1.00
H1402  H     0.57033   0.42751   0.93284   0.00000  Uiso   1.00
H1403  H     0.55607   0.37375   0.94506   0.00000  Uiso   1.00
H1404  H     0.62739   0.36623   0.88387   0.00000  Uiso   1.00
H1405  H     0.59731   0.41109   0.86230   0.00000  Uiso   1.00
H1406  H     0.55533   0.54955   0.96576   0.00000  Uiso   1.00
H1407  H     0.44509   0.44988   0.70103   0.00000  Uiso   1.00
H1408  H     0.37045   0.35778   0.85374   0.00000  Uiso   1.00
H1409  H     0.39744   0.41024   0.85832   0.00000  Uiso   1.00
H1410  H     0.33739   0.39895   0.82058   0.00000  Uiso   1.00
H1411  H     0.41396   0.40684   0.77780   0.00000  Uiso   1.00
H1412  H     0.37972   0.35985   0.76771   0.00000  Uiso   1.00
I1413  I     0.64767   0.46870   0.74862   0.00000  Uiso   1.00
I1414  I     0.35268   0.53001   0.91807   0.00000  Uiso   1.00
N1415  N     0.49999   0.49999   0.95240   0.00000  Uiso   1.00
N1416  N     0.50001   0.50001   0.71427   0.00000  Uiso   1.00
O1417  O     0.50000   0.43892   0.87154   0.00000  Uiso   1.00
O1418  O     0.50000   0.56108   0.79513   0.00000  Uiso   1.00
O1419  O     0.50000   0.43893   0.79510   0.00000  Uiso   1.00
O1420  O     0.50000   0.56107   0.87157   0.00000  Uiso   1.00
O1421  O     0.42392   0.50000   0.86261   0.00000  Uiso   1.00
O1422  O     0.57608   0.50000   0.80405   0.00000  Uiso   1.00
O1423  O     0.42392   0.50000   0.78617   0.00000  Uiso   1.00
O1424  O     0.57608   0.50000   0.88050   0.00000  Uiso   1.00
Zn1425 Zn    0.50000   0.49999   0.88437   0.00000  Uiso   1.00
Zn1426 Zn    0.50000   0.50001   0.78229   0.00000  Uiso   1.00
C1427  C     0.83333   0.42013   0.83331   0.00000  Uiso   1.00
C1428  C     0.87784   0.35644   0.85710   0.00000  Uiso   1.00
C1429  C     0.83387   0.62410   0.83394   0.00000  Uiso   1.00
C1430  C     0.83350   0.37596   0.83374   0.00000  Uiso   1.00
C1431  C     0.86386   0.52786   0.69506   0.00000  Uiso   1.00
C1432  C     0.80290   0.47204   0.97161   0.00000  Uiso   1.00
C1433  C     0.86399   0.52769   0.98043   0.00000  Uiso   1.00
C1434  C     0.80284   0.47210   0.68629   0.00000  Uiso   1.00
C1435  C     0.73898   0.37736   0.79490   0.00000  Uiso   1.00
C1436  C     0.70932   0.38668   0.83438   0.00000  Uiso   1.00
C1437  C     0.92647   0.62261   0.87865   0.00000  Uiso   1.00
C1438  C     0.83382   0.57990   0.83356   0.00000  Uiso   1.00
C1439  C     0.93227   0.62381   0.93116   0.00000  Uiso   1.00
C1440  C     0.73956   0.61800   0.79336   0.00000  Uiso   1.00
C1441  C     0.73549   0.61085   0.74150   0.00000  Uiso   1.00
C1442  C     0.92392   0.38267   0.88205   0.00000  Uiso   1.00
C1443  C     0.91720   0.39512   0.93122   0.00000  Uiso   1.00
C1444  C     0.73375   0.49992   0.82146   0.00000  Uiso   1.00
C1445  C     0.93291   0.49974   0.84518   0.00000  Uiso   1.00
C1446  C     0.67923   0.49548   0.81529   0.00000  Uiso   1.00
C1447  C     0.98745   0.50384   0.85130   0.00000  Uiso   1.00
C1448  C     0.78846   0.35401   0.81260   0.00000  Uiso   1.00
C1449  C     0.87858   0.64606   0.85624   0.00000  Uiso   1.00
C1450  C     0.78845   0.64373   0.81295   0.00000  Uiso   1.00
H1451  H     0.88836   0.55006   0.71680   0.00000  Uiso   1.00
H1452  H     0.89372   0.62327   0.94278   0.00000  Uiso   1.00
H1453  H     0.95390   0.59652   0.94582   0.00000  Uiso   1.00
H1454  H     0.95497   0.65175   0.94542   0.00000  Uiso   1.00
H1455  H     0.92526   0.58947   0.86769   0.00000  Uiso   1.00
H1456  H     0.96223   0.63474   0.86679   0.00000  Uiso   1.00
H1457  H     0.76817   0.59209   0.73344   0.00000  Uiso   1.00
H1458  H     0.69865   0.59361   0.72852   0.00000  Uiso   1.00
H1459  H     0.73595   0.64084   0.72301   0.00000  Uiso   1.00
H1460  H     0.73830   0.58728   0.81018   0.00000  Uiso   1.00
H1461  H     0.70392   0.63280   0.80124   0.00000  Uiso   1.00
H1462  H     0.77853   0.44977   0.94986   0.00000  Uiso   1.00
H1463  H     0.95521   0.39426   0.95414   0.00000  Uiso   1.00
H1464  H     0.90367   0.42751   0.93284   0.00000  Uiso   1.00
H1465  H     0.88941   0.37375   0.94506   0.00000  Uiso   1.00
H1466  H     0.96073   0.36623   0.88387   0.00000  Uiso   1.00
H1467  H     0.93064   0.41109   0.86230   0.00000  Uiso   1.00
H1468  H     0.88867   0.54955   0.96576   0.00000  Uiso   1.00
H1469  H     0.77842   0.44988   0.70103   0.00000  Uiso   1.00
H1470  H     0.70378   0.35778   0.85374   0.00000  Uiso   1.00
H1471  H     0.73077   0.41024   0.85832   0.00000  Uiso   1.00
H1472  H     0.67073   0.39895   0.82058   0.00000  Uiso   1.00
H1473  H     0.74729   0.40684   0.77780   0.00000  Uiso   1.00
H1474  H     0.71306   0.35985   0.76771   0.00000  Uiso   1.00
I1475  I     0.98100   0.46870   0.74862   0.00000  Uiso   1.00
I1476  I     0.68602   0.53001   0.91807   0.00000  Uiso   1.00
N1477  N     0.83332   0.49999   0.95240   0.00000  Uiso   1.00
N1478  N     0.83335   0.50001   0.71427   0.00000  Uiso   1.00
O1479  O     0.83333   0.43892   0.87154   0.00000  Uiso   1.00
O1480  O     0.83334   0.56108   0.79513   0.00000  Uiso   1.00
O1481  O     0.83333   0.43893   0.79510   0.00000  Uiso   1.00
O1482  O     0.83334   0.56107   0.87157   0.00000  Uiso   1.00
O1483  O     0.75725   0.50000   0.86261   0.00000  Uiso   1.00
O1484  O     0.90942   0.50000   0.80405   0.00000  Uiso   1.00
O1485  O     0.75725   0.50000   0.78617   0.00000  Uiso   1.00
O1486  O     0.90942   0.50000   0.88050   0.00000  Uiso   1.00
Zn1487 Zn    0.83333   0.49999   0.88437   0.00000  Uiso   1.00
Zn1488 Zn    0.83333   0.50001   0.78229   0.00000  Uiso   1.00
C1489  C     0.16667   0.75347   0.83331   0.00000  Uiso   1.00
C1490  C     0.21117   0.68978   0.85710   0.00000  Uiso   1.00
C1491  C     0.16720   0.95744   0.83394   0.00000  Uiso   1.00
C1492  C     0.16684   0.70930   0.83374   0.00000  Uiso   1.00
C1493  C     0.19719   0.86119   0.69506   0.00000  Uiso   1.00
C1494  C     0.13624   0.80537   0.97161   0.00000  Uiso   1.00
C1495  C     0.19732   0.86103   0.98043   0.00000  Uiso   1.00
C1496  C     0.13617   0.80544   0.68629   0.00000  Uiso   1.00
C1497  C     0.07231   0.71069   0.79490   0.00000  Uiso   1.00
C1498  C     0.04266   0.72001   0.83438   0.00000  Uiso   1.00
C1499  C     0.25980   0.95595   0.87865   0.00000  Uiso   1.00
C1500  C     0.16715   0.91323   0.83356   0.00000  Uiso   1.00
C1501  C     0.26560   0.95714   0.93116   0.00000  Uiso   1.00
C1502  C     0.07290   0.95134   0.79336   0.00000  Uiso   1.00
C1503  C     0.06882   0.94419   0.74150   0.00000  Uiso   1.00
C1504  C     0.25725   0.71600   0.88205   0.00000  Uiso   1.00
C1505  C     0.25053   0.72846   0.93122   0.00000  Uiso   1.00
C1506  C     0.06709   0.83326   0.82146   0.00000  Uiso   1.00
C1507  C     0.26624   0.83307   0.84518   0.00000  Uiso   1.00
C1508  C     0.01256   0.82881   0.81529   0.00000  Uiso   1.00
C1509  C     0.32079   0.83717   0.85130   0.00000  Uiso   1.00
C1510  C     0.12180   0.68734   0.81260   0.00000  Uiso   1.00
C1511  C     0.21191   0.97939   0.85624   0.00000  Uiso   1.00
C1512  C     0.12179   0.97706   0.81295   0.00000  Uiso   1.00
H1513  H     0.22169   0.88339   0.71680   0.00000  Uiso   1.00
H1514  H     0.22705   0.95660   0.94278   0.00000  Uiso   1.00
H1515  H     0.28724   0.92985   0.94582   0.00000  Uiso   1.00
H1516  H     0.28830   0.98508   0.94542   0.00000  Uiso   1.00
H1517  H     0.25860   0.92280   0.86769   0.00000  Uiso   1.00
H1518  H     0.29556   0.96807   0.86679   0.00000  Uiso   1.00
H1519  H     0.10150   0.92543   0.73344   0.00000  Uiso   1.00
H1520  H     0.03198   0.92694   0.72852   0.00000  Uiso   1.00
H1521  H     0.06928   0.97417   0.72301   0.00000  Uiso   1.00
H1522  H     0.07164   0.92062   0.81018   0.00000  Uiso   1.00
H1523  H     0.03725   0.96614   0.80124   0.00000  Uiso   1.00
H1524  H     0.11187   0.78310   0.94986   0.00000  Uiso   1.00
H1525  H     0.28855   0.72759   0.95414   0.00000  Uiso   1.00
H1526  H     0.23700   0.76084   0.93284   0.00000  Uiso   1.00
H1527  H     0.22274   0.70708   0.94506   0.00000  Uiso   1.00
H1528  H     0.29406   0.69956   0.88387   0.00000  Uiso   1.00
H1529  H     0.26397   0.74442   0.86230   0.00000  Uiso   1.00
H1530  H     0.22200   0.88288   0.96576   0.00000  Uiso   1.00
H1531  H     0.11176   0.78321   0.70103   0.00000  Uiso   1.00
H1532  H     0.03712   0.69111   0.85374   0.00000  Uiso   1.00
H1533  H     0.06411   0.74358   0.85832   0.00000  Uiso   1.00
H1534  H     0.00406   0.73229   0.82058   0.00000  Uiso   1.00
H1535  H     0.08062   0.74017   0.77780   0.00000  Uiso   1.00
H1536  H     0.04639   0.69319   0.76771   0.00000  Uiso   1.00
I1537  I     0.31434   0.80204   0.74862   0.00000  Uiso   1.00
I1538  I     0.01935   0.86334   0.91807   0.00000  Uiso   1.00
N1539  N     0.16665   0.83332   0.95240   0.00000  Uiso   1.00
N1540  N     0.16668   0.83334   0.71427   0.00000  Uiso   1.00
O1541  O     0.16666   0.77225   0.87154   0.00000  Uiso   1.00
O1542  O     0.16667   0.89442   0.79513   0.00000  Uiso   1.00
O1543  O     0.16666   0.77226   0.79510   0.00000  Uiso   1.00
O1544  O     0.16667   0.89441   0.87157   0.00000  Uiso   1.00
O1545  O     0.09058   0.83333   0.86261   0.00000  Uiso   1.00
O1546  O     0.24275   0.83334   0.80405   0.00000  Uiso   1.00
O1547  O     0.09058   0.83334   0.78617   0.00000  Uiso   1.00
O1548  O     0.24275   0.83333   0.88050   0.00000  Uiso   1.00
Zn1549 Zn    0.16667   0.83333   0.88437   0.00000  Uiso   1.00
Zn1550 Zn    0.16667   0.83334   0.78229   0.00000  Uiso   1.00
C1551  C     0.50000   0.75347   0.83331   0.00000  Uiso   1.00
C1552  C     0.54451   0.68978   0.85710   0.00000  Uiso   1.00
C1553  C     0.50053   0.95744   0.83394   0.00000  Uiso   1.00
C1554  C     0.50017   0.70930   0.83374   0.00000  Uiso   1.00
C1555  C     0.53053   0.86119   0.69506   0.00000  Uiso   1.00
C1556  C     0.46957   0.80537   0.97161   0.00000  Uiso   1.00
C1557  C     0.53066   0.86103   0.98043   0.00000  Uiso   1.00
C1558  C     0.46950   0.80544   0.68629   0.00000  Uiso   1.00
C1559  C     0.40565   0.71069   0.79490   0.00000  Uiso   1.00
C1560  C     0.37599   0.72001   0.83438   0.00000  Uiso   1.00
C1561  C     0.59313   0.95595   0.87865   0.00000  Uiso   1.00
C1562  C     0.50048   0.91323   0.83356   0.00000  Uiso   1.00
C1563  C     0.59893   0.95714   0.93116   0.00000  Uiso   1.00
C1564  C     0.40623   0.95134   0.79336   0.00000  Uiso   1.00
C1565  C     0.40215   0.94419   0.74150   0.00000  Uiso   1.00
C1566  C     0.59059   0.71600   0.88205   0.00000  Uiso   1.00
C1567  C     0.58386   0.72846   0.93122   0.00000  Uiso   1.00
C1568  C     0.40042   0.83326   0.82146   0.00000  Uiso   1.00
C1569  C     0.59958   0.83307   0.84518   0.00000  Uiso   1.00
C1570  C     0.34590   0.82881   0.81529   0.00000  Uiso   1.00
C1571  C     0.65412   0.83717   0.85130   0.00000  Uiso   1.00
C1572  C     0.45513   0.68734   0.81260   0.00000  Uiso   1.00
C1573  C     0.54524   0.97939   0.85624   0.00000  Uiso   1.00
C1574  C     0.45512   0.97706   0.81295   0.00000  Uiso   1.00
H1575  H     0.55502   0.88339   0.71680   0.00000  Uiso   1.00
H1576  H     0.56039   0.95660   0.94278   0.00000  Uiso   1.00
H1577  H     0.62057   0.92985   0.94582   0.00000  Uiso   1.00
H1578  H     0.62164   0.98508   0.94542   0.00000  Uiso   1.00
H1579  H     0.59193   0.92280   0.86769   0.00000  Uiso   1.00
H1580  H     0.62890   0.96807   0.86679   0.00000  Uiso   1.00
H1581  H     0.43484   0.92543   0.73344   0.00000  Uiso   1.00
H1582  H     0.36531   0.92694   0.72852   0.00000  Uiso   1.00
H1583  H     0.40261   0.97417   0.72301   0.00000  Uiso   1.00
H1584  H     0.40497   0.92062   0.81018   0.00000  Uiso   1.00
H1585  H     0.37059   0.96614   0.80124   0.00000  Uiso   1.00
H1586  H     0.44520   0.78310   0.94986   0.00000  Uiso   1.00
H1587  H     0.62188   0.72759   0.95414   0.00000  Uiso   1.00
H1588  H     0.57033   0.76084   0.93284   0.00000  Uiso   1.00
H1589  H     0.55607   0.70708   0.94506   0.00000  Uiso   1.00
H1590  H     0.62739   0.69956   0.88387   0.00000  Uiso   1.00
H1591  H     0.59731   0.74442   0.86230   0.00000  Uiso   1.00
H1592  H     0.55533   0.88288   0.96576   0.00000  Uiso   1.00
H1593  H     0.44509   0.78321   0.70103   0.00000  Uiso   1.00
H1594  H     0.37045   0.69111   0.85374   0.00000  Uiso   1.00
H1595  H     0.39744   0.74358   0.85832   0.00000  Uiso   1.00
H1596  H     0.33739   0.73229   0.82058   0.00000  Uiso   1.00
H1597  H     0.41396   0.74017   0.77780   0.00000  Uiso   1.00
H1598  H     0.37972   0.69319   0.76771   0.00000  Uiso   1.00
I1599  I     0.64767   0.80204   0.74862   0.00000  Uiso   1.00
I1600  I     0.35268   0.86334   0.91807   0.00000  Uiso   1.00
N1601  N     0.49999   0.83332   0.95240   0.00000  Uiso   1.00
N1602  N     0.50001   0.83334   0.71427   0.00000  Uiso   1.00
O1603  O     0.50000   0.77225   0.87154   0.00000  Uiso   1.00
O1604  O     0.50000   0.89442   0.79513   0.00000  Uiso   1.00
O1605  O     0.50000   0.77226   0.79510   0.00000  Uiso   1.00
O1606  O     0.50000   0.89441   0.87157   0.00000  Uiso   1.00
O1607  O     0.42392   0.83333   0.86261   0.00000  Uiso   1.00
O1608  O     0.57608   0.83334   0.80405   0.00000  Uiso   1.00
O1609  O     0.42392   0.83334   0.78617   0.00000  Uiso   1.00
O1610  O     0.57608   0.83333   0.88050   0.00000  Uiso   1.00
Zn1611 Zn    0.50000   0.83333   0.88437   0.00000  Uiso   1.00
Zn1612 Zn    0.50000   0.83334   0.78229   0.00000  Uiso   1.00
C1613  C     0.83333   0.75347   0.83331   0.00000  Uiso   1.00
C1614  C     0.87784   0.68978   0.85710   0.00000  Uiso   1.00
C1615  C     0.83387   0.95744   0.83394   0.00000  Uiso   1.00
C1616  C     0.83350   0.70930   0.83374   0.00000  Uiso   1.00
C1617  C     0.86386   0.86119   0.69506   0.00000  Uiso   1.00
C1618  C     0.80290   0.80537   0.97161   0.00000  Uiso   1.00
C1619  C     0.86399   0.86103   0.98043   0.00000  Uiso   1.00
C1620  C     0.80284   0.80544   0.68629   0.00000  Uiso   1.00
C1621  C     0.73898   0.71069   0.79490   0.00000  Uiso   1.00
C1622  C     0.70932   0.72001   0.83438   0.00000  Uiso   1.00
C1623  C     0.92647   0.95595   0.87865   0.00000  Uiso   1.00
C1624  C     0.83382   0.91323   0.83356   0.00000  Uiso   1.00
C1625  C     0.93227   0.95714   0.93116   0.00000  Uiso   1.00
C1626  C     0.73956   0.95134   0.79336   0.00000  Uiso   1.00
C1627  C     0.73549   0.94419   0.74150   0.00000  Uiso   1.00
C1628  C     0.92392   0.71600   0.88205   0.00000  Uiso   1.00
C1629  C     0.91720   0.72846   0.93122   0.00000  Uiso   1.00
C1630  C     0.73375   0.83326   0.82146   0.00000  Uiso   1.00
C1631  C     0.93291   0.83307   0.84518   0.00000  Uiso   1.00
C1632  C     0.67923   0.82881   0.81529   0.00000  Uiso   1.00
C1633  C     0.98745   0.83717   0.85130   0.00000  Uiso   1.00
C1634  C     0.78846   0.68734   0.81260   0.00000  Uiso   1.00
C1635  C     0.87858   0.97939   0.85624   0.00000  Uiso   1.00
C1636  C     0.78845   0.97706   0.81295   0.00000  Uiso   1.00
H1637  H     0.88836   0.88339   0.71680   0.00000  Uiso   1.00
H1638  H     0.89372   0.95660   0.94278   0.00000  Uiso   1.00
H1639  H     0.95390   0.92985   0.94582   0.00000  Uiso   1.00
H1640  H     0.95497   0.98508   0.94542   0.00000  Uiso   1.00
H1641  H     0.92526   0.92280   0.86769   0.00000  Uiso   1.00
H1642  H     0.96223   0.96807   0.86679   0.00000  Uiso   1.00
H1643  H     0.76817   0.92543   0.73344   0.00000  Uiso   1.00
H1644  H     0.69865   0.92694   0.72852   0.00000  Uiso   1.00
H1645  H     0.73595   0.97417   0.72301   0.00000  Uiso   1.00
H1646  H     0.73830   0.92062   0.81018   0.00000  Uiso   1.00
H1647  H     0.70392   0.96614   0.80124   0.00000  Uiso   1.00
H1648  H     0.77853   0.78310   0.94986   0.00000  Uiso   1.00
H1649  H     0.95521   0.72759   0.95414   0.00000  Uiso   1.00
H1650  H     0.90367   0.76084   0.93284   0.00000  Uiso   1.00
H1651  H     0.88941   0.70708   0.94506   0.00000  Uiso   1.00
H1652  H     0.96073   0.69956   0.88387   0.00000  Uiso   1.00
H1653  H     0.93064   0.74442   0.86230   0.00000  Uiso   1.00
H1654  H     0.88867   0.88288   0.96576   0.00000  Uiso   1.00
H1655  H     0.77842   0.78321   0.70103   0.00000  Uiso   1.00
H1656  H     0.70378   0.69111   0.85374   0.00000  Uiso   1.00
H1657  H     0.73077   0.74358   0.85832   0.00000  Uiso   1.00
H1658  H     0.67073   0.73229   0.82058   0.00000  Uiso   1.00
H1659  H     0.74729   0.74017   0.77780   0.00000  Uiso   1.00
H1660  H     0.71306   0.69319   0.76771   0.00000  Uiso   1.00
I1661  I     0.98100   0.80204   0.74862   0.00000  Uiso   1.00
I1662  I     0.68602   0.86334   0.91807   0.00000  Uiso   1.00
N1663  N     0.83332   0.83332   0.95240   0.00000  Uiso   1.00
N1664  N     0.83335   0.83334   0.71427   0.00000  Uiso   1.00
O1665  O     0.83333   0.77225   0.87154   0.00000  Uiso   1.00
O1666  O     0.83334   0.89442   0.79513   0.00000  Uiso   1.00
O1667  O     0.83333   0.77226   0.79510   0.00000  Uiso   1.00
O1668  O     0.83334   0.89441   0.87157   0.00000  Uiso   1.00
O1669  O     0.75725   0.83333   0.86261   0.00000  Uiso   1.00
O1670  O     0.90942   0.83334   0.80405   0.00000  Uiso   1.00
O1671  O     0.75725   0.83334   0.78617   0.00000  Uiso   1.00
O1672  O     0.90942   0.83333   0.88050   0.00000  Uiso   1.00
Zn1673 Zn    0.83333   0.83333   0.88437   0.00000  Uiso   1.00
Zn1674 Zn    0.83333   0.83334   0.78229   0.00000  Uiso   1.00
loop_
_geom_bond_atom_site_label_1
_geom_bond_atom_site_label_2
_geom_bond_distance
_geom_bond_site_symmetry_2
_ccdc_geom_bond_type
C1     C4      1.416   .     S
C1     O55     1.281   .     A
C1     O53     1.273   .     A
C2     C4      1.413   .     A
C2     C16     1.537   .     S
C2     C395    1.402   1_545 S
C3     C23     1.416   .     A
C3     C24     1.412   .     A
C3     C12     1.417   .     S
C4     C22     1.411   .     A
C5     N52     1.365   .     A
C5     H25     1.082   .     S
C5     C1123   1.414   1_554 S
C6     H36     1.082   .     S
C6     N51     1.366   .     A
C6     C566    1.415   .     S
C7     N51     1.364   .     A
C7     H42     1.078   .     S
C7     C563    1.414   .     S
C8     N52     1.366   .     A
C8     H43     1.082   .     S
C8     C1122   1.415   1_554 S
C9     C10     1.525   .     S
C9     H47     1.107   .     S
C9     C22     1.530   .     S
C9     H48     1.105   .     S
C10    H46     1.108   .     S
C10    H45     1.109   .     S
C10    H44     1.110   .     S
C11    C13     1.531   .     S
C11    C23     1.535   .     S
C11    H29     1.106   .     S
C11    H30     1.109   .     S
C12    O56     1.278   .     A
C12    O54     1.277   .     A
C13    H28     1.105   .     S
C13    H26     1.111   .     S
C13    H27     1.106   .     S
C14    H34     1.108   .     S
C14    C24     1.535   .     S
C14    H35     1.108   .     S
C14    C15     1.530   .     S
C15    H32     1.111   .     S
C15    H31     1.108   .     S
C15    H33     1.109   .     S
C16    H40     1.100   .     S
C16    C17     1.537   .     S
C16    H41     1.109   .     S
C17    H38     1.107   .     S
C17    H39     1.111   .     S
C17    H37     1.111   .     S
C18    O57     1.271   .     A
C18    C20     1.409   .     S
C18    O59     1.286   .     A
C19    O60     1.287   .     A
C19    C21     1.409   .     S
C19    O58     1.271   .     A
C20    C145    1.358   1_455 S
C20    I173    2.171   1_455 S
C21    C82     1.358   .     S
C21    I112    2.168   .     S
C22    C396    1.398   1_545 S
C23    C188    1.402   .     S
C24    C208    1.398   .     S
I49    C82     2.171   .     S
I50    C145    2.168   1_455 S
N51    Zn61    2.004   .     S
N52    Zn62    2.004   .     S
O53    Zn61    1.991   .     S
O54    Zn62    1.991   .     S
O55    Zn62    1.996   .     S
O56    Zn61    1.996   .     S
O57    Zn61    1.989   .     S
O58    Zn62    1.989   .     S
O59    Zn62    2.005   .     S
O60    Zn61    2.005   .     S
C63    C66     1.416   .     S
C63    O117    1.281   .     A
C63    O115    1.273   .     A
C64    C66     1.413   .     A
C64    C78     1.537   .     S
C64    C457    1.402   1_545 S
C65    C85     1.416   .     A
C65    C86     1.412   .     A
C65    C74     1.417   .     S
C66    C84     1.411   .     A
C67    N114    1.365   .     A
C67    H87     1.082   .     S
C67    C1185   1.414   1_554 S
C68    H98     1.082   .     S
C68    N113    1.366   .     A
C68    C628    1.415   .     S
C69    N113    1.364   .     A
C69    H104    1.078   .     S
C69    C625    1.414   .     S
C70    N114    1.366   .     A
C70    H105    1.082   .     S
C70    C1184   1.415   1_554 S
C71    C72     1.525   .     S
C71    H109    1.107   .     S
C71    C84     1.530   .     S
C71    H110    1.105   .     S
C72    H108    1.108   .     S
C72    H107    1.109   .     S
C72    H106    1.110   .     S
C73    C75     1.531   .     S
C73    C85     1.535   .     S
C73    H91     1.106   .     S
C73    H92     1.109   .     S
C74    O118    1.278   .     A
C74    O116    1.277   .     A
C75    H90     1.105   .     S
C75    H88     1.111   .     S
C75    H89     1.106   .     S
C76    H96     1.108   .     S
C76    C86     1.535   .     S
C76    H97     1.108   .     S
C76    C77     1.530   .     S
C77    H94     1.111   .     S
C77    H93     1.108   .     S
C77    H95     1.109   .     S
C78    H102    1.100   .     S
C78    C79     1.537   .     S
C78    H103    1.109   .     S
C79    H100    1.107   .     S
C79    H101    1.111   .     S
C79    H99     1.111   .     S
C80    O119    1.271   .     A
C80    C82     1.409   .     S
C80    O121    1.286   .     A
C81    O122    1.287   .     A
C81    C83     1.409   .     S
C81    O120    1.271   .     A
C83    C144    1.358   .     S
C83    I174    2.168   .     S
C84    C458    1.398   1_545 S
C85    C250    1.402   .     S
C86    C270    1.398   .     S
I111   C144    2.171   .     S
N113   Zn123   2.004   .     S
N114   Zn124   2.004   .     S
O115   Zn123   1.991   .     S
O116   Zn124   1.991   .     S
O117   Zn124   1.996   .     S
O118   Zn123   1.996   .     S
O119   Zn123   1.989   .     S
O120   Zn124   1.989   .     S
O121   Zn124   2.005   .     S
O122   Zn123   2.005   .     S
C125   C128    1.416   .     S
C125   O179    1.281   .     A
C125   O177    1.273   .     A
C126   C128    1.413   .     A
C126   C140    1.537   .     S
C126   C519    1.402   1_545 S
C127   C147    1.416   .     A
C127   C148    1.412   .     A
C127   C136    1.417   .     S
C128   C146    1.411   .     A
C129   N176    1.365   .     A
C129   H149    1.082   .     S
C129   C1247   1.414   1_554 S
C130   H160    1.082   .     S
C130   N175    1.366   .     A
C130   C690    1.415   .     S
C131   N175    1.364   .     A
C131   H166    1.078   .     S
C131   C687    1.414   .     S
C132   N176    1.366   .     A
C132   H167    1.082   .     S
C132   C1246   1.415   1_554 S
C133   C134    1.525   .     S
C133   H171    1.107   .     S
C133   C146    1.530   .     S
C133   H172    1.105   .     S
C134   H170    1.108   .     S
C134   H169    1.109   .     S
C134   H168    1.110   .     S
C135   C137    1.531   .     S
C135   C147    1.535   .     S
C135   H153    1.106   .     S
C135   H154    1.109   .     S
C136   O180    1.278   .     A
C136   O178    1.277   .     A
C137   H152    1.105   .     S
C137   H150    1.111   .     S
C137   H151    1.106   .     S
C138   H158    1.108   .     S
C138   C148    1.535   .     S
C138   H159    1.108   .     S
C138   C139    1.530   .     S
C139   H156    1.111   .     S
C139   H155    1.108   .     S
C139   H157    1.109   .     S
C140   H164    1.100   .     S
C140   C141    1.537   .     S
C140   H165    1.109   .     S
C141   H162    1.107   .     S
C141   H163    1.111   .     S
C141   H161    1.111   .     S
C142   O181    1.271   .     A
C142   C144    1.409   .     S
C142   O183    1.286   .     A
C143   O184    1.287   .     A
C143   C145    1.409   .     S
C143   O182    1.271   .     A
C145   C20     1.358   1_655 S
C145   I50     2.168   1_655 S
C146   C520    1.398   1_545 S
C147   C312    1.402   .     S
C148   C332    1.398   .     S
I173   C20     2.171   1_655 S
N175   Zn185   2.004   .     S
N176   Zn186   2.004   .     S
O177   Zn185   1.991   .     S
O178   Zn186   1.991   .     S
O179   Zn186   1.996   .     S
O180   Zn185   1.996   .     S
O181   Zn185   1.989   .     S
O182   Zn186   1.989   .     S
O183   Zn186   2.005   .     S
O184   Zn185   2.005   .     S
C187   C190    1.416   .     S
C187   O241    1.281   .     A
C187   O239    1.273   .     A
C188   C190    1.413   .     A
C188   C202    1.537   .     S
C189   C209    1.416   .     A
C189   C210    1.412   .     A
C189   C198    1.417   .     S
C190   C208    1.411   .     A
C191   N238    1.365   .     A
C191   H211    1.082   .     S
C191   C1309   1.414   1_554 S
C192   H222    1.082   .     S
C192   N237    1.366   .     A
C192   C752    1.415   .     S
C193   N237    1.364   .     A
C193   H228    1.078   .     S
C193   C749    1.414   .     S
C194   N238    1.366   .     A
C194   H229    1.082   .     S
C194   C1308   1.415   1_554 S
C195   C196    1.525   .     S
C195   H233    1.107   .     S
C195   C208    1.530   .     S
C195   H234    1.105   .     S
C196   H232    1.108   .     S
C196   H231    1.109   .     S
C196   H230    1.110   .     S
C197   C199    1.531   .     S
C197   C209    1.535   .     S
C197   H215    1.106   .     S
C197   H216    1.109   .     S
C198   O242    1.278   .     A
C198   O240    1.277   .     A
C199   H214    1.105   .     S
C199   H212    1.111   .     S
C199   H213    1.106   .     S
C200   H220    1.108   .     S
C200   C210    1.535   .     S
C200   H221    1.108   .     S
C200   C201    1.530   .     S
C201   H218    1.111   .     S
C201   H217    1.108   .     S
C201   H219    1.109   .     S
C202   H226    1.100   .     S
C202   C203    1.537   .     S
C202   H227    1.109   .     S
C203   H224    1.107   .     S
C203   H225    1.111   .     S
C203   H223    1.111   .     S
C204   O243    1.271   .     A
C204   C206    1.409   .     S
C204   O245    1.286   .     A
C205   O246    1.287   .     A
C205   C207    1.409   .     S
C205   O244    1.271   .     A
C206   C331    1.358   1_455 S
C206   I359    2.171   1_455 S
C207   C268    1.358   .     S
C207   I298    2.168   .     S
C209   C374    1.402   .     S
C210   C394    1.398   .     S
I235   C268    2.171   .     S
I236   C331    2.168   1_455 S
N237   Zn247   2.004   .     S
N238   Zn248   2.004   .     S
O239   Zn247   1.991   .     S
O240   Zn248   1.991   .     S
O241   Zn248   1.996   .     S
O242   Zn247   1.996   .     S
O243   Zn247   1.989   .     S
O244   Zn248   1.989   .     S
O245   Zn248   2.005   .     S
O246   Zn247   2.005   .     S
C249   C252    1.416   .     S
C249   O303    1.281   .     A
C249   O301    1.273   .     A
C250   C252    1.413   .     A
C250   C264    1.537   .     S
C251   C271    1.416   .     A
C251   C272    1.412   .     A
C251   C260    1.417   .     S
C252   C270    1.411   .     A
C253   N300    1.365   .     A
C253   H273    1.082   .     S
C253   C1371   1.414   1_554 S
C254   H284    1.082   .     S
C254   N299    1.366   .     A
C254   C814    1.415   .     S
C255   N299    1.364   .     A
C255   H290    1.078   .     S
C255   C811    1.414   .     S
C256   N300    1.366   .     A
C256   H291    1.082   .     S
C256   C1370   1.415   1_554 S
C257   C258    1.525   .     S
C257   H295    1.107   .     S
C257   C270    1.530   .     S
C257   H296    1.105   .     S
C258   H294    1.108   .     S
C258   H293    1.109   .     S
C258   H292    1.110   .     S
C259   C261    1.531   .     S
C259   C271    1.535   .     S
C259   H277    1.106   .     S
C259   H278    1.109   .     S
C260   O304    1.278   .     A
C260   O302    1.277   .     A
C261   H276    1.105   .     S
C261   H274    1.111   .     S
C261   H275    1.106   .     S
C262   H282    1.108   .     S
C262   C272    1.535   .     S
C262   H283    1.108   .     S
C262   C263    1.530   .     S
C263   H280    1.111   .     S
C263   H279    1.108   .     S
C263   H281    1.109   .     S
C264   H288    1.100   .     S
C264   C265    1.537   .     S
C264   H289    1.109   .     S
C265   H286    1.107   .     S
C265   H287    1.111   .     S
C265   H285    1.111   .     S
C266   O305    1.271   .     A
C266   C268    1.409   .     S
C266   O307    1.286   .     A
C267   O308    1.287   .     A
C267   C269    1.409   .     S
C267   O306    1.271   .     A
C269   C330    1.358   .     S
C269   I360    2.168   .     S
C271   C436    1.402   .     S
C272   C456    1.398   .     S
I297   C330    2.171   .     S
N299   Zn309   2.004   .     S
N300   Zn310   2.004   .     S
O301   Zn309   1.991   .     S
O302   Zn310   1.991   .     S
O303   Zn310   1.996   .     S
O304   Zn309   1.996   .     S
O305   Zn309   1.989   .     S
O306   Zn310   1.989   .     S
O307   Zn310   2.005   .     S
O308   Zn309   2.005   .     S
C311   C314    1.416   .     S
C311   O365    1.281   .     A
C311   O363    1.273   .     A
C312   C314    1.413   .     A
C312   C326    1.537   .     S
C313   C333    1.416   .     A
C313   C334    1.412   .     A
C313   C322    1.417   .     S
C314   C332    1.411   .     A
C315   N362    1.365   .     A
C315   H335    1.082   .     S
C315   C1433   1.414   1_554 S
C316   H346    1.082   .     S
C316   N361    1.366   .     A
C316   C876    1.415   .     S
C317   N361    1.364   .     A
C317   H352    1.078   .     S
C317   C873    1.414   .     S
C318   N362    1.366   .     A
C318   H353    1.082   .     S
C318   C1432   1.415   1_554 S
C319   C320    1.525   .     S
C319   H357    1.107   .     S
C319   C332    1.530   .     S
C319   H358    1.105   .     S
C320   H356    1.108   .     S
C320   H355    1.109   .     S
C320   H354    1.110   .     S
C321   C323    1.531   .     S
C321   C333    1.535   .     S
C321   H339    1.106   .     S
C321   H340    1.109   .     S
C322   O366    1.278   .     A
C322   O364    1.277   .     A
C323   H338    1.105   .     S
C323   H336    1.111   .     S
C323   H337    1.106   .     S
C324   H344    1.108   .     S
C324   C334    1.535   .     S
C324   H345    1.108   .     S
C324   C325    1.530   .     S
C325   H342    1.111   .     S
C325   H341    1.108   .     S
C325   H343    1.109   .     S
C326   H350    1.100   .     S
C326   C327    1.537   .     S
C326   H351    1.109   .     S
C327   H348    1.107   .     S
C327   H349    1.111   .     S
C327   H347    1.111   .     S
C328   O367    1.271   .     A
C328   C330    1.409   .     S
C328   O369    1.286   .     A
C329   O370    1.287   .     A
C329   C331    1.409   .     S
C329   O368    1.271   .     A
C331   C206    1.358   1_655 S
C331   I236    2.168   1_655 S
C333   C498    1.402   .     S
C334   C518    1.398   .     S
I359   C206    2.171   1_655 S
N361   Zn371   2.004   .     S
N362   Zn372   2.004   .     S
O363   Zn371   1.991   .     S
O364   Zn372   1.991   .     S
O365   Zn372   1.996   .     S
O366   Zn371   1.996   .     S
O367   Zn371   1.989   .     S
O368   Zn372   1.989   .     S
O369   Zn372   2.005   .     S
O370   Zn371   2.005   .     S
C373   C376    1.416   .     S
C373   O427    1.281   .     A
C373   O425    1.273   .     A
C374   C376    1.413   .     A
C374   C388    1.537   .     S
C375   C395    1.416   .     A
C375   C396    1.412   .     A
C375   C384    1.417   .     S
C376   C394    1.411   .     A
C377   N424    1.365   .     A
C377   H397    1.082   .     S
C377   C1495   1.414   1_554 S
C378   H408    1.082   .     S
C378   N423    1.366   .     A
C378   C938    1.415   .     S
C379   N423    1.364   .     A
C379   H414    1.078   .     S
C379   C935    1.414   .     S
C380   N424    1.366   .     A
C380   H415    1.082   .     S
C380   C1494   1.415   1_554 S
C381   C382    1.525   .     S
C381   H419    1.107   .     S
C381   C394    1.530   .     S
C381   H420    1.105   .     S
C382   H418    1.108   .     S
C382   H417    1.109   .     S
C382   H416    1.110   .     S
C383   C385    1.531   .     S
C383   C395    1.535   .     S
C383   H401    1.106   .     S
C383   H402    1.109   .     S
C384   O428    1.278   .     A
C384   O426    1.277   .     A
C385   H400    1.105   .     S
C385   H398    1.111   .     S
C385   H399    1.106   .     S
C386   H406    1.108   .     S
C386   C396    1.535   .     S
C386   H407    1.108   .     S
C386   C387    1.530   .     S
C387   H404    1.111   .     S
C387   H403    1.108   .     S
C387   H405    1.109   .     S
C388   H412    1.100   .     S
C388   C389    1.537   .     S
C388   H413    1.109   .     S
C389   H410    1.107   .     S
C389   H411    1.111   .     S
C389   H409    1.111   .     S
C390   O429    1.271   .     A
C390   C392    1.409   .     S
C390   O431    1.286   .     A
C391   O432    1.287   .     A
C391   C393    1.409   .     S
C391   O430    1.271   .     A
C392   C517    1.358   1_455 S
C392   I545    2.171   1_455 S
C393   C454    1.358   .     S
C393   I484    2.168   .     S
C395   C2      1.402   1_565 S
C396   C22     1.398   1_565 S
I421   C454    2.171   .     S
I422   C517    2.168   1_455 S
N423   Zn433   2.004   .     S
N424   Zn434   2.004   .     S
O425   Zn433   1.991   .     S
O426   Zn434   1.991   .     S
O427   Zn434   1.996   .     S
O428   Zn433   1.996   .     S
O429   Zn433   1.989   .     S
O430   Zn434   1.989   .     S
O431   Zn434   2.005   .     S
O432   Zn433   2.005   .     S
C435   C438    1.416   .     S
C435   O489    1.281   .     A
C435   O487    1.273   .     A
C436   C438    1.413   .     A
C436   C450    1.537   .     S
C437   C457    1.416   .     A
C437   C458    1.412   .     A
C437   C446    1.417   .     S
C438   C456    1.411   .     A
C439   N486    1.365   .     A
C439   H459    1.082   .     S
C439   C1557   1.414   1_554 S
C440   H470    1.082   .     S
C440   N485    1.366   .     A
C440   C1000   1.415   .     S
C441   N485    1.364   .     A
C441   H476    1.078   .     S
C441   C997    1.414   .     S
C442   N486    1.366   .     A
C442   H477    1.082   .     S
C442   C1556   1.415   1_554 S
C443   C444    1.525   .     S
C443   H481    1.107   .     S
C443   C456    1.530   .     S
C443   H482    1.105   .     S
C444   H480    1.108   .     S
C444   H479    1.109   .     S
C444   H478    1.110   .     S
C445   C447    1.531   .     S
C445   C457    1.535   .     S
C445   H463    1.106   .     S
C445   H464    1.109   .     S
C446   O490    1.278   .     A
C446   O488    1.277   .     A
C447   H462    1.105   .     S
C447   H460    1.111   .     S
C447   H461    1.106   .     S
C448   H468    1.108   .     S
C448   C458    1.535   .     S
C448   H469    1.108   .     S
C448   C449    1.530   .     S
C449   H466    1.111   .     S
C449   H465    1.108   .     S
C449   H467    1.109   .     S
C450   H474    1.100   .     S
C450   C451    1.537   .     S
C450   H475    1.109   .     S
C451   H472    1.107   .     S
C451   H473    1.111   .     S
C451   H471    1.111   .     S
C452   O491    1.271   .     A
C452   C454    1.409   .     S
C452   O493    1.286   .     A
C453   O494    1.287   .     A
C453   C455    1.409   .     S
C453   O492    1.271   .     A
C455   C516    1.358   .     S
C455   I546    2.168   .     S
C457   C64     1.402   1_565 S
C458   C84     1.398   1_565 S
I483   C516    2.171   .     S
N485   Zn495   2.004   .     S
N486   Zn496   2.004   .     S
O487   Zn495   1.991   .     S
O488   Zn496   1.991   .     S
O489   Zn496   1.996   .     S
O490   Zn495   1.996   .     S
O491   Zn495   1.989   .     S
O492   Zn496   1.989   .     S
O493   Zn496   2.005   .     S
O494   Zn495   2.005   .     S
C497   C500    1.416   .     S
C497   O551    1.281   .     A
C497   O549    1.273   .     A
C498   C500    1.413   .     A
C498   C512    1.537   .     S
C499   C519    1.416   .     A
C499   C520    1.412   .     A
C499   C508    1.417   .     S
C500   C518    1.411   .     A
C501   N548    1.365   .     A
C501   H521    1.082   .     S
C501   C1619   1.414   1_554 S
C502   H532    1.082   .     S
C502   N547    1.366   .     A
C502   C1062   1.415   .     S
C503   N547    1.364   .     A
C503   H538    1.078   .     S
C503   C1059   1.414   .     S
C504   N548    1.366   .     A
C504   H539    1.082   .     S
C504   C1618   1.415   1_554 S
C505   C506    1.525   .     S
C505   H543    1.107   .     S
C505   C518    1.530   .     S
C505   H544    1.105   .     S
C506   H542    1.108   .     S
C506   H541    1.109   .     S
C506   H540    1.110   .     S
C507   C509    1.531   .     S
C507   C519    1.535   .     S
C507   H525    1.106   .     S
C507   H526    1.109   .     S
C508   O552    1.278   .     A
C508   O550    1.277   .     A
C509   H524    1.105   .     S
C509   H522    1.111   .     S
C509   H523    1.106   .     S
C510   H530    1.108   .     S
C510   C520    1.535   .     S
C510   H531    1.108   .     S
C510   C511    1.530   .     S
C511   H528    1.111   .     S
C511   H527    1.108   .     S
C511   H529    1.109   .     S
C512   H536    1.100   .     S
C512   C513    1.537   .     S
C512   H537    1.109   .     S
C513   H534    1.107   .     S
C513   H535    1.111   .     S
C513   H533    1.111   .     S
C514   O553    1.271   .     A
C514   C516    1.409   .     S
C514   O555    1.286   .     A
C515   O556    1.287   .     A
C515   C517    1.409   .     S
C515   O554    1.271   .     A
C517   C392    1.358   1_655 S
C517   I422    2.168   1_655 S
C519   C126    1.402   1_565 S
C520   C146    1.398   1_565 S
I545   C392    2.171   1_655 S
N547   Zn557   2.004   .     S
N548   Zn558   2.004   .     S
O549   Zn557   1.991   .     S
O550   Zn558   1.991   .     S
O551   Zn558   1.996   .     S
O552   Zn557   1.996   .     S
O553   Zn557   1.989   .     S
O554   Zn558   1.989   .     S
O555   Zn558   2.005   .     S
O556   Zn557   2.005   .     S
C559   C562    1.416   .     S
C559   O613    1.281   .     A
C559   O611    1.273   .     A
C560   C562    1.413   .     A
C560   C574    1.537   .     S
C560   C953    1.402   1_545 S
C561   C581    1.416   .     A
C561   C582    1.412   .     A
C561   C570    1.417   .     S
C562   C580    1.411   .     A
C563   N610    1.365   .     A
C563   H583    1.082   .     S
C564   H594    1.082   .     S
C564   N609    1.366   .     A
C564   C1124   1.415   .     S
C565   N609    1.364   .     A
C565   H600    1.078   .     S
C565   C1121   1.414   .     S
C566   N610    1.366   .     A
C566   H601    1.082   .     S
C567   C568    1.525   .     S
C567   H605    1.107   .     S
C567   C580    1.530   .     S
C567   H606    1.105   .     S
C568   H604    1.108   .     S
C568   H603    1.109   .     S
C568   H602    1.110   .     S
C569   C571    1.531   .     S
C569   C581    1.535   .     S
C569   H587    1.106   .     S
C569   H588    1.109   .     S
C570   O614    1.278   .     A
C570   O612    1.277   .     A
C571   H586    1.105   .     S
C571   H584    1.111   .     S
C571   H585    1.106   .     S
C572   H592    1.108   .     S
C572   C582    1.535   .     S
C572   H593    1.108   .     S
C572   C573    1.530   .     S
C573   H590    1.111   .     S
C573   H589    1.108   .     S
C573   H591    1.109   .     S
C574   H598    1.100   .     S
C574   C575    1.537   .     S
C574   H599    1.109   .     S
C575   H596    1.107   .     S
C575   H597    1.111   .     S
C575   H595    1.111   .     S
C576   O615    1.271   .     A
C576   C578    1.409   .     S
C576   O617    1.286   .     A
C577   O618    1.287   .     A
C577   C579    1.409   .     S
C577   O616    1.271   .     A
C578   C703    1.358   1_455 S
C578   I731    2.171   1_455 S
C579   C640    1.358   .     S
C579   I670    2.168   .     S
C580   C954    1.398   1_545 S
C581   C746    1.402   .     S
C582   C766    1.398   .     S
I607   C640    2.171   .     S
I608   C703    2.168   1_455 S
N609   Zn619   2.004   .     S
N610   Zn620   2.004   .     S
O611   Zn619   1.991   .     S
O612   Zn620   1.991   .     S
O613   Zn620   1.996   .     S
O614   Zn619   1.996   .     S
O615   Zn619   1.989   .     S
O616   Zn620   1.989   .     S
O617   Zn620   2.005   .     S
O618   Zn619   2.005   .     S
C621   C624    1.416   .     S
C621   O675    1.281   .     A
C621   O673    1.273   .     A
C622   C624    1.413   .     A
C622   C636    1.537   .     S
C622   C1015   1.402   1_545 S
C623   C643    1.416   .     A
C623   C644    1.412   .     A
C623   C632    1.417   .     S
C624   C642    1.411   .     A
C625   N672    1.365   .     A
C625   H645    1.082   .     S
C626   H656    1.082   .     S
C626   N671    1.366   .     A
C626   C1186   1.415   .     S
C627   N671    1.364   .     A
C627   H662    1.078   .     S
C627   C1183   1.414   .     S
C628   N672    1.366   .     A
C628   H663    1.082   .     S
C629   C630    1.525   .     S
C629   H667    1.107   .     S
C629   C642    1.530   .     S
C629   H668    1.105   .     S
C630   H666    1.108   .     S
C630   H665    1.109   .     S
C630   H664    1.110   .     S
C631   C633    1.531   .     S
C631   C643    1.535   .     S
C631   H649    1.106   .     S
C631   H650    1.109   .     S
C632   O676    1.278   .     A
C632   O674    1.277   .     A
C633   H648    1.105   .     S
C633   H646    1.111   .     S
C633   H647    1.106   .     S
C634   H654    1.108   .     S
C634   C644    1.535   .     S
C634   H655    1.108   .     S
C634   C635    1.530   .     S
C635   H652    1.111   .     S
C635   H651    1.108   .     S
C635   H653    1.109   .     S
C636   H660    1.100   .     S
C636   C637    1.537   .     S
C636   H661    1.109   .     S
C637   H658    1.107   .     S
C637   H659    1.111   .     S
C637   H657    1.111   .     S
C638   O677    1.271   .     A
C638   C640    1.409   .     S
C638   O679    1.286   .     A
C639   O680    1.287   .     A
C639   C641    1.409   .     S
C639   O678    1.271   .     A
C641   C702    1.358   .     S
C641   I732    2.168   .     S
C642   C1016   1.398   1_545 S
C643   C808    1.402   .     S
C644   C828    1.398   .     S
I669   C702    2.171   .     S
N671   Zn681   2.004   .     S
N672   Zn682   2.004   .     S
O673   Zn681   1.991   .     S
O674   Zn682   1.991   .     S
O675   Zn682   1.996   .     S
O676   Zn681   1.996   .     S
O677   Zn681   1.989   .     S
O678   Zn682   1.989   .     S
O679   Zn682   2.005   .     S
O680   Zn681   2.005   .     S
C683   C686    1.416   .     S
C683   O737    1.281   .     A
C683   O735    1.273   .     A
C684   C686    1.413   .     A
C684   C698    1.537   .     S
C684   C1077   1.402   1_545 S
C685   C705    1.416   .     A
C685   C706    1.412   .     A
C685   C694    1.417   .     S
C686   C704    1.411   .     A
C687   N734    1.365   .     A
C687   H707    1.082   .     S
C688   H718    1.082   .     S
C688   N733    1.366   .     A
C688   C1248   1.415   .     S
C689   N733    1.364   .     A
C689   H724    1.078   .     S
C689   C1245   1.414   .     S
C690   N734    1.366   .     A
C690   H725    1.082   .     S
C691   C692    1.525   .     S
C691   H729    1.107   .     S
C691   C704    1.530   .     S
C691   H730    1.105   .     S
C692   H728    1.108   .     S
C692   H727    1.109   .     S
C692   H726    1.110   .     S
C693   C695    1.531   .     S
C693   C705    1.535   .     S
C693   H711    1.106   .     S
C693   H712    1.109   .     S
C694   O738    1.278   .     A
C694   O736    1.277   .     A
C695   H710    1.105   .     S
C695   H708    1.111   .     S
C695   H709    1.106   .     S
C696   H716    1.108   .     S
C696   C706    1.535   .     S
C696   H717    1.108   .     S
C696   C697    1.530   .     S
C697   H714    1.111   .     S
C697   H713    1.108   .     S
C697   H715    1.109   .     S
C698   H722    1.100   .     S
C698   C699    1.537   .     S
C698   H723    1.109   .     S
C699   H720    1.107   .     S
C699   H721    1.111   .     S
C699   H719    1.111   .     S
C700   O739    1.271   .     A
C700   C702    1.409   .     S
C700   O741    1.286   .     A
C701   O742    1.287   .     A
C701   C703    1.409   .     S
C701   O740    1.271   .     A
C703   C578    1.358   1_655 S
C703   I608    2.168   1_655 S
C704   C1078   1.398   1_545 S
C705   C870    1.402   .     S
C706   C890    1.398   .     S
I731   C578    2.171   1_655 S
N733   Zn743   2.004   .     S
N734   Zn744   2.004   .     S
O735   Zn743   1.991   .     S
O736   Zn744   1.991   .     S
O737   Zn744   1.996   .     S
O738   Zn743   1.996   .     S
O739   Zn743   1.989   .     S
O740   Zn744   1.989   .     S
O741   Zn744   2.005   .     S
O742   Zn743   2.005   .     S
C745   C748    1.416   .     S
C745   O799    1.281   .     A
C745   O797    1.273   .     A
C746   C748    1.413   .     A
C746   C760    1.537   .     S
C747   C767    1.416   .     A
C747   C768    1.412   .     A
C747   C756    1.417   .     S
C748   C766    1.411   .     A
C749   N796    1.365   .     A
C749   H769    1.082   .     S
C750   H780    1.082   .     S
C750   N795    1.366   .     A
C750   C1310   1.415   .     S
C751   N795    1.364   .     A
C751   H786    1.078   .     S
C751   C1307   1.414   .     S
C752   N796    1.366   .     A
C752   H787    1.082   .     S
C753   C754    1.525   .     S
C753   H791    1.107   .     S
C753   C766    1.530   .     S
C753   H792    1.105   .     S
C754   H790    1.108   .     S
C754   H789    1.109   .     S
C754   H788    1.110   .     S
C755   C757    1.531   .     S
C755   C767    1.535   .     S
C755   H773    1.106   .     S
C755   H774    1.109   .     S
C756   O800    1.278   .     A
C756   O798    1.277   .     A
C757   H772    1.105   .     S
C757   H770    1.111   .     S
C757   H771    1.106   .     S
C758   H778    1.108   .     S
C758   C768    1.535   .     S
C758   H779    1.108   .     S
C758   C759    1.530   .     S
C759   H776    1.111   .     S
C759   H775    1.108   .     S
C759   H777    1.109   .     S
C760   H784    1.100   .     S
C760   C761    1.537   .     S
C760   H785    1.109   .     S
C761   H782    1.107   .     S
C761   H783    1.111   .     S
C761   H781    1.111   .     S
C762   O801    1.271   .     A
C762   C764    1.409   .     S
C762   O803    1.286   .     A
C763   O804    1.287   .     A
C763   C765    1.409   .     S
C763   O802    1.271   .     A
C764   C889    1.358   1_455 S
C764   I917    2.171   1_455 S
C765   C826    1.358   .     S
C765   I856    2.168   .     S
C767   C932    1.402   .     S
C768   C952    1.398   .     S
I793   C826    2.171   .     S
I794   C889    2.168   1_455 S
N795   Zn805   2.004   .     S
N796   Zn806   2.004   .     S
O797   Zn805   1.991   .     S
O798   Zn806   1.991   .     S
O799   Zn806   1.996   .     S
O800   Zn805   1.996   .     S
O801   Zn805   1.989   .     S
O802   Zn806   1.989   .     S
O803   Zn806   2.005   .     S
O804   Zn805   2.005   .     S
C807   C810    1.416   .     S
C807   O861    1.281   .     A
C807   O859    1.273   .     A
C808   C810    1.413   .     A
C808   C822    1.537   .     S
C809   C829    1.416   .     A
C809   C830    1.412   .     A
C809   C818    1.417   .     S
C810   C828    1.411   .     A
C811   N858    1.365   .     A
C811   H831    1.082   .     S
C812   H842    1.082   .     S
C812   N857    1.366   .     A
C812   C1372   1.415   .     S
C813   N857    1.364   .     A
C813   H848    1.078   .     S
C813   C1369   1.414   .     S
C814   N858    1.366   .     A
C814   H849    1.082   .     S
C815   C816    1.525   .     S
C815   H853    1.107   .     S
C815   C828    1.530   .     S
C815   H854    1.105   .     S
C816   H852    1.108   .     S
C816   H851    1.109   .     S
C816   H850    1.110   .     S
C817   C819    1.531   .     S
C817   C829    1.535   .     S
C817   H835    1.106   .     S
C817   H836    1.109   .     S
C818   O862    1.278   .     A
C818   O860    1.277   .     A
C819   H834    1.105   .     S
C819   H832    1.111   .     S
C819   H833    1.106   .     S
C820   H840    1.108   .     S
C820   C830    1.535   .     S
C820   H841    1.108   .     S
C820   C821    1.530   .     S
C821   H838    1.111   .     S
C821   H837    1.108   .     S
C821   H839    1.109   .     S
C822   H846    1.100   .     S
C822   C823    1.537   .     S
C822   H847    1.109   .     S
C823   H844    1.107   .     S
C823   H845    1.111   .     S
C823   H843    1.111   .     S
C824   O863    1.271   .     A
C824   C826    1.409   .     S
C824   O865    1.286   .     A
C825   O866    1.287   .     A
C825   C827    1.409   .     S
C825   O864    1.271   .     A
C827   C888    1.358   .     S
C827   I918    2.168   .     S
C829   C994    1.402   .     S
C830   C1014   1.398   .     S
I855   C888    2.171   .     S
N857   Zn867   2.004   .     S
N858   Zn868   2.004   .     S
O859   Zn867   1.991   .     S
O860   Zn868   1.991   .     S
O861   Zn868   1.996   .     S
O862   Zn867   1.996   .     S
O863   Zn867   1.989   .     S
O864   Zn868   1.989   .     S
O865   Zn868   2.005   .     S
O866   Zn867   2.005   .     S
C869   C872    1.416   .     S
C869   O923    1.281   .     A
C869   O921    1.273   .     A
C870   C872    1.413   .     A
C870   C884    1.537   .     S
C871   C891    1.416   .     A
C871   C892    1.412   .     A
C871   C880    1.417   .     S
C872   C890    1.411   .     A
C873   N920    1.365   .     A
C873   H893    1.082   .     S
C874   H904    1.082   .     S
C874   N919    1.366   .     A
C874   C1434   1.415   .     S
C875   N919    1.364   .     A
C875   H910    1.078   .     S
C875   C1431   1.414   .     S
C876   N920    1.366   .     A
C876   H911    1.082   .     S
C877   C878    1.525   .     S
C877   H915    1.107   .     S
C877   C890    1.530   .     S
C877   H916    1.105   .     S
C878   H914    1.108   .     S
C878   H913    1.109   .     S
C878   H912    1.110   .     S
C879   C881    1.531   .     S
C879   C891    1.535   .     S
C879   H897    1.106   .     S
C879   H898    1.109   .     S
C880   O924    1.278   .     A
C880   O922    1.277   .     A
C881   H896    1.105   .     S
C881   H894    1.111   .     S
C881   H895    1.106   .     S
C882   H902    1.108   .     S
C882   C892    1.535   .     S
C882   H903    1.108   .     S
C882   C883    1.530   .     S
C883   H900    1.111   .     S
C883   H899    1.108   .     S
C883   H901    1.109   .     S
C884   H908    1.100   .     S
C884   C885    1.537   .     S
C884   H909    1.109   .     S
C885   H906    1.107   .     S
C885   H907    1.111   .     S
C885   H905    1.111   .     S
C886   O925    1.271   .     A
C886   C888    1.409   .     S
C886   O927    1.286   .     A
C887   O928    1.287   .     A
C887   C889    1.409   .     S
C887   O926    1.271   .     A
C889   C764    1.358   1_655 S
C889   I794    2.168   1_655 S
C891   C1056   1.402   .     S
C892   C1076   1.398   .     S
I917   C764    2.171   1_655 S
N919   Zn929   2.004   .     S
N920   Zn930   2.004   .     S
O921   Zn929   1.991   .     S
O922   Zn930   1.991   .     S
O923   Zn930   1.996   .     S
O924   Zn929   1.996   .     S
O925   Zn929   1.989   .     S
O926   Zn930   1.989   .     S
O927   Zn930   2.005   .     S
O928   Zn929   2.005   .     S
C931   C934    1.416   .     S
C931   O985    1.281   .     A
C931   O983    1.273   .     A
C932   C934    1.413   .     A
C932   C946    1.537   .     S
C933   C953    1.416   .     A
C933   C954    1.412   .     A
C933   C942    1.417   .     S
C934   C952    1.411   .     A
C935   N982    1.365   .     A
C935   H955    1.082   .     S
C936   H966    1.082   .     S
C936   N981    1.366   .     A
C936   C1496   1.415   .     S
C937   N981    1.364   .     A
C937   H972    1.078   .     S
C937   C1493   1.414   .     S
C938   N982    1.366   .     A
C938   H973    1.082   .     S
C939   C940    1.525   .     S
C939   H977    1.107   .     S
C939   C952    1.530   .     S
C939   H978    1.105   .     S
C940   H976    1.108   .     S
C940   H975    1.109   .     S
C940   H974    1.110   .     S
C941   C943    1.531   .     S
C941   C953    1.535   .     S
C941   H959    1.106   .     S
C941   H960    1.109   .     S
C942   O986    1.278   .     A
C942   O984    1.277   .     A
C943   H958    1.105   .     S
C943   H956    1.111   .     S
C943   H957    1.106   .     S
C944   H964    1.108   .     S
C944   C954    1.535   .     S
C944   H965    1.108   .     S
C944   C945    1.530   .     S
C945   H962    1.111   .     S
C945   H961    1.108   .     S
C945   H963    1.109   .     S
C946   H970    1.100   .     S
C946   C947    1.537   .     S
C946   H971    1.109   .     S
C947   H968    1.107   .     S
C947   H969    1.111   .     S
C947   H967    1.111   .     S
C948   O987    1.271   .     A
C948   C950    1.409   .     S
C948   O989    1.286   .     A
C949   O990    1.287   .     A
C949   C951    1.409   .     S
C949   O988    1.271   .     A
C950   C1075   1.358   1_455 S
C950   I1103   2.171   1_455 S
C951   C1012   1.358   .     S
C951   I1042   2.168   .     S
C953   C560    1.402   1_565 S
C954   C580    1.398   1_565 S
I979   C1012   2.171   .     S
I980   C1075   2.168   1_455 S
N981   Zn991   2.004   .     S
N982   Zn992   2.004   .     S
O983   Zn991   1.991   .     S
O984   Zn992   1.991   .     S
O985   Zn992   1.996   .     S
O986   Zn991   1.996   .     S
O987   Zn991   1.989   .     S
O988   Zn992   1.989   .     S
O989   Zn992   2.005   .     S
O990   Zn991   2.005   .     S
C993   C996    1.416   .     S
C993   O1047   1.281   .     A
C993   O1045   1.273   .     A
C994   C996    1.413   .     A
C994   C1008   1.537   .     S
C995   C1015   1.416   .     A
C995   C1016   1.412   .     A
C995   C1004   1.417   .     S
C996   C1014   1.411   .     A
C997   N1044   1.365   .     A
C997   H1017   1.082   .     S
C998   H1028   1.082   .     S
C998   N1043   1.366   .     A
C998   C1558   1.415   .     S
C999   N1043   1.364   .     A
C999   H1034   1.078   .     S
C999   C1555   1.414   .     S
C1000  N1044   1.366   .     A
C1000  H1035   1.082   .     S
C1001  C1002   1.525   .     S
C1001  H1039   1.107   .     S
C1001  C1014   1.530   .     S
C1001  H1040   1.105   .     S
C1002  H1038   1.108   .     S
C1002  H1037   1.109   .     S
C1002  H1036   1.110   .     S
C1003  C1005   1.531   .     S
C1003  C1015   1.535   .     S
C1003  H1021   1.106   .     S
C1003  H1022   1.109   .     S
C1004  O1048   1.278   .     A
C1004  O1046   1.277   .     A
C1005  H1020   1.105   .     S
C1005  H1018   1.111   .     S
C1005  H1019   1.106   .     S
C1006  H1026   1.108   .     S
C1006  C1016   1.535   .     S
C1006  H1027   1.108   .     S
C1006  C1007   1.530   .     S
C1007  H1024   1.111   .     S
C1007  H1023   1.108   .     S
C1007  H1025   1.109   .     S
C1008  H1032   1.100   .     S
C1008  C1009   1.537   .     S
C1008  H1033   1.109   .     S
C1009  H1030   1.107   .     S
C1009  H1031   1.111   .     S
C1009  H1029   1.111   .     S
C1010  O1049   1.271   .     A
C1010  C1012   1.409   .     S
C1010  O1051   1.286   .     A
C1011  O1052   1.287   .     A
C1011  C1013   1.409   .     S
C1011  O1050   1.271   .     A
C1013  C1074   1.358   .     S
C1013  I1104   2.168   .     S
C1015  C622    1.402   1_565 S
C1016  C642    1.398   1_565 S
I1041  C1074   2.171   .     S
N1043  Zn1053  2.004   .     S
N1044  Zn1054  2.004   .     S
O1045  Zn1053  1.991   .     S
O1046  Zn1054  1.991   .     S
O1047  Zn1054  1.996   .     S
O1048  Zn1053  1.996   .     S
O1049  Zn1053  1.989   .     S
O1050  Zn1054  1.989   .     S
O1051  Zn1054  2.005   .     S
O1052  Zn1053  2.005   .     S
C1055  C1058   1.416   .     S
C1055  O1109   1.281   .     A
C1055  O1107   1.273   .     A
C1056  C1058   1.413   .     A
C1056  C1070   1.537   .     S
C1057  C1077   1.416   .     A
C1057  C1078   1.412   .     A
C1057  C1066   1.417   .     S
C1058  C1076   1.411   .     A
C1059  N1106   1.365   .     A
C1059  H1079   1.082   .     S
C1060  H1090   1.082   .     S
C1060  N1105   1.366   .     A
C1060  C1620   1.415   .     S
C1061  N1105   1.364   .     A
C1061  H1096   1.078   .     S
C1061  C1617   1.414   .     S
C1062  N1106   1.366   .     A
C1062  H1097   1.082   .     S
C1063  C1064   1.525   .     S
C1063  H1101   1.107   .     S
C1063  C1076   1.530   .     S
C1063  H1102   1.105   .     S
C1064  H1100   1.108   .     S
C1064  H1099   1.109   .     S
C1064  H1098   1.110   .     S
C1065  C1067   1.531   .     S
C1065  C1077   1.535   .     S
C1065  H1083   1.106   .     S
C1065  H1084   1.109   .     S
C1066  O1110   1.278   .     A
C1066  O1108   1.277   .     A
C1067  H1082   1.105   .     S
C1067  H1080   1.111   .     S
C1067  H1081   1.106   .     S
C1068  H1088   1.108   .     S
C1068  C1078   1.535   .     S
C1068  H1089   1.108   .     S
C1068  C1069   1.530   .     S
C1069  H1086   1.111   .     S
C1069  H1085   1.108   .     S
C1069  H1087   1.109   .     S
C1070  H1094   1.100   .     S
C1070  C1071   1.537   .     S
C1070  H1095   1.109   .     S
C1071  H1092   1.107   .     S
C1071  H1093   1.111   .     S
C1071  H1091   1.111   .     S
C1072  O1111   1.271   .     A
C1072  C1074   1.409   .     S
C1072  O1113   1.286   .     A
C1073  O1114   1.287   .     A
C1073  C1075   1.409   .     S
C1073  O1112   1.271   .     A
C1075  C950    1.358   1_655 S
C1075  I980    2.168   1_655 S
C1077  C684    1.402   1_565 S
C1078  C704    1.398   1_565 S
I1103  C950    2.171   1_655 S
N1105  Zn1115  2.004   .     S
N1106  Zn1116  2.004   .     S
O1107  Zn1115  1.991   .     S
O1108  Zn1116  1.991   .     S
O1109  Zn1116  1.996   .     S
O1110  Zn1115  1.996   .     S
O1111  Zn1115  1.989   .     S
O1112  Zn1116  1.989   .     S
O1113  Zn1116  2.005   .     S
O1114  Zn1115  2.005   .     S
C1117  C1120   1.416   .     S
C1117  O1171   1.281   .     A
C1117  O1169   1.273   .     A
C1118  C1120   1.413   .     A
C1118  C1132   1.537   .     S
C1118  C1511   1.402   1_545 S
C1119  C1139   1.416   .     A
C1119  C1140   1.412   .     A
C1119  C1128   1.417   .     S
C1120  C1138   1.411   .     A
C1121  N1168   1.365   .     A
C1121  H1141   1.082   .     S
C1122  H1152   1.082   .     S
C1122  N1167   1.366   .     A
C1122  C8      1.415   1_556 S
C1123  N1167   1.364   .     A
C1123  H1158   1.078   .     S
C1123  C5      1.414   1_556 S
C1124  N1168   1.366   .     A
C1124  H1159   1.082   .     S
C1125  C1126   1.525   .     S
C1125  H1163   1.107   .     S
C1125  C1138   1.530   .     S
C1125  H1164   1.105   .     S
C1126  H1162   1.108   .     S
C1126  H1161   1.109   .     S
C1126  H1160   1.110   .     S
C1127  C1129   1.531   .     S
C1127  C1139   1.535   .     S
C1127  H1145   1.106   .     S
C1127  H1146   1.109   .     S
C1128  O1172   1.278   .     A
C1128  O1170   1.277   .     A
C1129  H1144   1.105   .     S
C1129  H1142   1.111   .     S
C1129  H1143   1.106   .     S
C1130  H1150   1.108   .     S
C1130  C1140   1.535   .     S
C1130  H1151   1.108   .     S
C1130  C1131   1.530   .     S
C1131  H1148   1.111   .     S
C1131  H1147   1.108   .     S
C1131  H1149   1.109   .     S
C1132  H1156   1.100   .     S
C1132  C1133   1.537   .     S
C1132  H1157   1.109   .     S
C1133  H1154   1.107   .     S
C1133  H1155   1.111   .     S
C1133  H1153   1.111   .     S
C1134  O1173   1.271   .     A
C1134  C1136   1.409   .     S
C1134  O1175   1.286   .     A
C1135  O1176   1.287   .     A
C1135  C1137   1.409   .     S
C1135  O1174   1.271   .     A
C1136  C1261   1.358   1_455 S
C1136  I1289   2.171   1_455 S
C1137  C1198   1.358   .     S
C1137  I1228   2.168   .     S
C1138  C1512   1.398   1_545 S
C1139  C1304   1.402   .     S
C1140  C1324   1.398   .     S
I1165  C1198   2.171   .     S
I1166  C1261   2.168   1_455 S
N1167  Zn1177  2.004   .     S
N1168  Zn1178  2.004   .     S
O1169  Zn1177  1.991   .     S
O1170  Zn1178  1.991   .     S
O1171  Zn1178  1.996   .     S
O1172  Zn1177  1.996   .     S
O1173  Zn1177  1.989   .     S
O1174  Zn1178  1.989   .     S
O1175  Zn1178  2.005   .     S
O1176  Zn1177  2.005   .     S
C1179  C1182   1.416   .     S
C1179  O1233   1.281   .     A
C1179  O1231   1.273   .     A
C1180  C1182   1.413   .     A
C1180  C1194   1.537   .     S
C1180  C1573   1.402   1_545 S
C1181  C1201   1.416   .     A
C1181  C1202   1.412   .     A
C1181  C1190   1.417   .     S
C1182  C1200   1.411   .     A
C1183  N1230   1.365   .     A
C1183  H1203   1.082   .     S
C1184  H1214   1.082   .     S
C1184  N1229   1.366   .     A
C1184  C70     1.415   1_556 S
C1185  N1229   1.364   .     A
C1185  H1220   1.078   .     S
C1185  C67     1.414   1_556 S
C1186  N1230   1.366   .     A
C1186  H1221   1.082   .     S
C1187  C1188   1.525   .     S
C1187  H1225   1.107   .     S
C1187  C1200   1.530   .     S
C1187  H1226   1.105   .     S
C1188  H1224   1.108   .     S
C1188  H1223   1.109   .     S
C1188  H1222   1.110   .     S
C1189  C1191   1.531   .     S
C1189  C1201   1.535   .     S
C1189  H1207   1.106   .     S
C1189  H1208   1.109   .     S
C1190  O1234   1.278   .     A
C1190  O1232   1.277   .     A
C1191  H1206   1.105   .     S
C1191  H1204   1.111   .     S
C1191  H1205   1.106   .     S
C1192  H1212   1.108   .     S
C1192  C1202   1.535   .     S
C1192  H1213   1.108   .     S
C1192  C1193   1.530   .     S
C1193  H1210   1.111   .     S
C1193  H1209   1.108   .     S
C1193  H1211   1.109   .     S
C1194  H1218   1.100   .     S
C1194  C1195   1.537   .     S
C1194  H1219   1.109   .     S
C1195  H1216   1.107   .     S
C1195  H1217   1.111   .     S
C1195  H1215   1.111   .     S
C1196  O1235   1.271   .     A
C1196  C1198   1.409   .     S
C1196  O1237   1.286   .     A
C1197  O1238   1.287   .     A
C1197  C1199   1.409   .     S
C1197  O1236   1.271   .     A
C1199  C1260   1.358   .     S
C1199  I1290   2.168   .     S
C1200  C1574   1.398   1_545 S
C1201  C1366   1.402   .     S
C1202  C1386   1.398   .     S
I1227  C1260   2.171   .     S
N1229  Zn1239  2.004   .     S
N1230  Zn1240  2.004   .     S
O1231  Zn1239  1.991   .     S
O1232  Zn1240  1.991   .     S
O1233  Zn1240  1.996   .     S
O1234  Zn1239  1.996   .     S
O1235  Zn1239  1.989   .     S
O1236  Zn1240  1.989   .     S
O1237  Zn1240  2.005   .     S
O1238  Zn1239  2.005   .     S
C1241  C1244   1.416   .     S
C1241  O1295   1.281   .     A
C1241  O1293   1.273   .     A
C1242  C1244   1.413   .     A
C1242  C1256   1.537   .     S
C1242  C1635   1.402   1_545 S
C1243  C1263   1.416   .     A
C1243  C1264   1.412   .     A
C1243  C1252   1.417   .     S
C1244  C1262   1.411   .     A
C1245  N1292   1.365   .     A
C1245  H1265   1.082   .     S
C1246  H1276   1.082   .     S
C1246  N1291   1.366   .     A
C1246  C132    1.415   1_556 S
C1247  N1291   1.364   .     A
C1247  H1282   1.078   .     S
C1247  C129    1.414   1_556 S
C1248  N1292   1.366   .     A
C1248  H1283   1.082   .     S
C1249  C1250   1.525   .     S
C1249  H1287   1.107   .     S
C1249  C1262   1.530   .     S
C1249  H1288   1.105   .     S
C1250  H1286   1.108   .     S
C1250  H1285   1.109   .     S
C1250  H1284   1.110   .     S
C1251  C1253   1.531   .     S
C1251  C1263   1.535   .     S
C1251  H1269   1.106   .     S
C1251  H1270   1.109   .     S
C1252  O1296   1.278   .     A
C1252  O1294   1.277   .     A
C1253  H1268   1.105   .     S
C1253  H1266   1.111   .     S
C1253  H1267   1.106   .     S
C1254  H1274   1.108   .     S
C1254  C1264   1.535   .     S
C1254  H1275   1.108   .     S
C1254  C1255   1.530   .     S
C1255  H1272   1.111   .     S
C1255  H1271   1.108   .     S
C1255  H1273   1.109   .     S
C1256  H1280   1.100   .     S
C1256  C1257   1.537   .     S
C1256  H1281   1.109   .     S
C1257  H1278   1.107   .     S
C1257  H1279   1.111   .     S
C1257  H1277   1.111   .     S
C1258  O1297   1.271   .     A
C1258  C1260   1.409   .     S
C1258  O1299   1.286   .     A
C1259  O1300   1.287   .     A
C1259  C1261   1.409   .     S
C1259  O1298   1.271   .     A
C1261  C1136   1.358   1_655 S
C1261  I1166   2.168   1_655 S
C1262  C1636   1.398   1_545 S
C1263  C1428   1.402   .     S
C1264  C1448   1.398   .     S
I1289  C1136   2.171   1_655 S
N1291  Zn1301  2.004   .     S
N1292  Zn1302  2.004   .     S
O1293  Zn1301  1.991   .     S
O1294  Zn1302  1.991   .     S
O1295  Zn1302  1.996   .     S
O1296  Zn1301  1.996   .     S
O1297  Zn1301  1.989   .     S
O1298  Zn1302  1.989   .     S
O1299  Zn1302  2.005   .     S
O1300  Zn1301  2.005   .     S
C1303  C1306   1.416   .     S
C1303  O1357   1.281   .     A
C1303  O1355   1.273   .     A
C1304  C1306   1.413   .     A
C1304  C1318   1.537   .     S
C1305  C1325   1.416   .     A
C1305  C1326   1.412   .     A
C1305  C1314   1.417   .     S
C1306  C1324   1.411   .     A
C1307  N1354   1.365   .     A
C1307  H1327   1.082   .     S
C1308  H1338   1.082   .     S
C1308  N1353   1.366   .     A
C1308  C194    1.415   1_556 S
C1309  N1353   1.364   .     A
C1309  H1344   1.078   .     S
C1309  C191    1.414   1_556 S
C1310  N1354   1.366   .     A
C1310  H1345   1.082   .     S
C1311  C1312   1.525   .     S
C1311  H1349   1.107   .     S
C1311  C1324   1.530   .     S
C1311  H1350   1.105   .     S
C1312  H1348   1.108   .     S
C1312  H1347   1.109   .     S
C1312  H1346   1.110   .     S
C1313  C1315   1.531   .     S
C1313  C1325   1.535   .     S
C1313  H1331   1.106   .     S
C1313  H1332   1.109   .     S
C1314  O1358   1.278   .     A
C1314  O1356   1.277   .     A
C1315  H1330   1.105   .     S
C1315  H1328   1.111   .     S
C1315  H1329   1.106   .     S
C1316  H1336   1.108   .     S
C1316  C1326   1.535   .     S
C1316  H1337   1.108   .     S
C1316  C1317   1.530   .     S
C1317  H1334   1.111   .     S
C1317  H1333   1.108   .     S
C1317  H1335   1.109   .     S
C1318  H1342   1.100   .     S
C1318  C1319   1.537   .     S
C1318  H1343   1.109   .     S
C1319  H1340   1.107   .     S
C1319  H1341   1.111   .     S
C1319  H1339   1.111   .     S
C1320  O1359   1.271   .     A
C1320  C1322   1.409   .     S
C1320  O1361   1.286   .     A
C1321  O1362   1.287   .     A
C1321  C1323   1.409   .     S
C1321  O1360   1.271   .     A
C1322  C1447   1.358   1_455 S
C1322  I1475   2.171   1_455 S
C1323  C1384   1.358   .     S
C1323  I1414   2.168   .     S
C1325  C1490   1.402   .     S
C1326  C1510   1.398   .     S
I1351  C1384   2.171   .     S
I1352  C1447   2.168   1_455 S
N1353  Zn1363  2.004   .     S
N1354  Zn1364  2.004   .     S
O1355  Zn1363  1.991   .     S
O1356  Zn1364  1.991   .     S
O1357  Zn1364  1.996   .     S
O1358  Zn1363  1.996   .     S
O1359  Zn1363  1.989   .     S
O1360  Zn1364  1.989   .     S
O1361  Zn1364  2.005   .     S
O1362  Zn1363  2.005   .     S
C1365  C1368   1.416   .     S
C1365  O1419   1.281   .     A
C1365  O1417   1.273   .     A
C1366  C1368   1.413   .     A
C1366  C1380   1.537   .     S
C1367  C1387   1.416   .     A
C1367  C1388   1.412   .     A
C1367  C1376   1.417   .     S
C1368  C1386   1.411   .     A
C1369  N1416   1.365   .     A
C1369  H1389   1.082   .     S
C1370  H1400   1.082   .     S
C1370  N1415   1.366   .     A
C1370  C256    1.415   1_556 S
C1371  N1415   1.364   .     A
C1371  H1406   1.078   .     S
C1371  C253    1.414   1_556 S
C1372  N1416   1.366   .     A
C1372  H1407   1.082   .     S
C1373  C1374   1.525   .     S
C1373  H1411   1.107   .     S
C1373  C1386   1.530   .     S
C1373  H1412   1.105   .     S
C1374  H1410   1.108   .     S
C1374  H1409   1.109   .     S
C1374  H1408   1.110   .     S
C1375  C1377   1.531   .     S
C1375  C1387   1.535   .     S
C1375  H1393   1.106   .     S
C1375  H1394   1.109   .     S
C1376  O1420   1.278   .     A
C1376  O1418   1.277   .     A
C1377  H1392   1.105   .     S
C1377  H1390   1.111   .     S
C1377  H1391   1.106   .     S
C1378  H1398   1.108   .     S
C1378  C1388   1.535   .     S
C1378  H1399   1.108   .     S
C1378  C1379   1.530   .     S
C1379  H1396   1.111   .     S
C1379  H1395   1.108   .     S
C1379  H1397   1.109   .     S
C1380  H1404   1.100   .     S
C1380  C1381   1.537   .     S
C1380  H1405   1.109   .     S
C1381  H1402   1.107   .     S
C1381  H1403   1.111   .     S
C1381  H1401   1.111   .     S
C1382  O1421   1.271   .     A
C1382  C1384   1.409   .     S
C1382  O1423   1.286   .     A
C1383  O1424   1.287   .     A
C1383  C1385   1.409   .     S
C1383  O1422   1.271   .     A
C1385  C1446   1.358   .     S
C1385  I1476   2.168   .     S
C1387  C1552   1.402   .     S
C1388  C1572   1.398   .     S
I1413  C1446   2.171   .     S
N1415  Zn1425  2.004   .     S
N1416  Zn1426  2.004   .     S
O1417  Zn1425  1.991   .     S
O1418  Zn1426  1.991   .     S
O1419  Zn1426  1.996   .     S
O1420  Zn1425  1.996   .     S
O1421  Zn1425  1.989   .     S
O1422  Zn1426  1.989   .     S
O1423  Zn1426  2.005   .     S
O1424  Zn1425  2.005   .     S
C1427  C1430   1.416   .     S
C1427  O1481   1.281   .     A
C1427  O1479   1.273   .     A
C1428  C1430   1.413   .     A
C1428  C1442   1.537   .     S
C1429  C1449   1.416   .     A
C1429  C1450   1.412   .     A
C1429  C1438   1.417   .     S
C1430  C1448   1.411   .     A
C1431  N1478   1.365   .     A
C1431  H1451   1.082   .     S
C1432  H1462   1.082   .     S
C1432  N1477   1.366   .     A
C1432  C318    1.415   1_556 S
C1433  N1477   1.364   .     A
C1433  H1468   1.078   .     S
C1433  C315    1.414   1_556 S
C1434  N1478   1.366   .     A
C1434  H1469   1.082   .     S
C1435  C1436   1.525   .     S
C1435  H1473   1.107   .     S
C1435  C1448   1.530   .     S
C1435  H1474   1.105   .     S
C1436  H1472   1.108   .     S
C1436  H1471   1.109   .     S
C1436  H1470   1.110   .     S
C1437  C1439   1.531   .     S
C1437  C1449   1.535   .     S
C1437  H1455   1.106   .     S
C1437  H1456   1.109   .     S
C1438  O1482   1.278   .     A
C1438  O1480   1.277   .     A
C1439  H1454   1.105   .     S
C1439  H1452   1.111   .     S
C1439  H1453   1.106   .     S
C1440  H1460   1.108   .     S
C1440  C1450   1.535   .     S
C1440  H1461   1.108   .     S
C1440  C1441   1.530   .     S
C1441  H1458   1.111   .     S
C1441  H1457   1.108   .     S
C1441  H1459   1.109   .     S
C1442  H1466   1.100   .     S
C1442  C1443   1.537   .     S
C1442  H1467   1.109   .     S
C1443  H1464   1.107   .     S
C1443  H1465   1.111   .     S
C1443  H1463   1.111   .     S
C1444  O1483   1.271   .     A
C1444  C1446   1.409   .     S
C1444  O1485   1.286   .     A
C1445  O1486   1.287   .     A
C1445  C1447   1.409   .     S
C1445  O1484   1.271   .     A
C1447  C1322   1.358   1_655 S
C1447  I1352   2.168   1_655 S
C1449  C1614   1.402   .     S
C1450  C1634   1.398   .     S
I1475  C1322   2.171   1_655 S
N1477  Zn1487  2.004   .     S
N1478  Zn1488  2.004   .     S
O1479  Zn1487  1.991   .     S
O1480  Zn1488  1.991   .     S
O1481  Zn1488  1.996   .     S
O1482  Zn1487  1.996   .     S
O1483  Zn1487  1.989   .     S
O1484  Zn1488  1.989   .     S
O1485  Zn1488  2.005   .     S
O1486  Zn1487  2.005   .     S
C1489  C1492   1.416   .     S
C1489  O1543   1.281   .     A
C1489  O1541   1.273   .     A
C1490  C1492   1.413   .     A
C1490  C1504   1.537   .     S
C1491  C1511   1.416   .     A
C1491  C1512   1.412   .     A
C1491  C1500   1.417   .     S
C1492  C1510   1.411   .     A
C1493  N1540   1.365   .     A
C1493  H1513   1.082   .     S
C1494  H1524   1.082   .     S
C1494  N1539   1.366   .     A
C1494  C380    1.415   1_556 S
C1495  N1539   1.364   .     A
C1495  H1530   1.078   .     S
C1495  C377    1.414   1_556 S
C1496  N1540   1.366   .     A
C1496  H1531   1.082   .     S
C1497  C1498   1.525   .     S
C1497  H1535   1.107   .     S
C1497  C1510   1.530   .     S
C1497  H1536   1.105   .     S
C1498  H1534   1.108   .     S
C1498  H1533   1.109   .     S
C1498  H1532   1.110   .     S
C1499  C1501   1.531   .     S
C1499  C1511   1.535   .     S
C1499  H1517   1.106   .     S
C1499  H1518   1.109   .     S
C1500  O1544   1.278   .     A
C1500  O1542   1.277   .     A
C1501  H1516   1.105   .     S
C1501  H1514   1.111   .     S
C1501  H1515   1.106   .     S
C1502  H1522   1.108   .     S
C1502  C1512   1.535   .     S
C1502  H1523   1.108   .     S
C1502  C1503   1.530   .     S
C1503  H1520   1.111   .     S
C1503  H1519   1.108   .     S
C1503  H1521   1.109   .     S
C1504  H1528   1.100   .     S
C1504  C1505   1.537   .     S
C1504  H1529   1.109   .     S
C1505  H1526   1.107   .     S
C1505  H1527   1.111   .     S
C1505  H1525   1.111   .     S
C1506  O1545   1.271   .     A
C1506  C1508   1.409   .     S
C1506  O1547   1.286   .     A
C1507  O1548   1.287   .     A
C1507  C1509   1.409   .     S
C1507  O1546   1.271   .     A
C1508  C1633   1.358   1_455 S
C1508  I1661   2.171   1_455 S
C1509  C1570   1.358   .     S
C1509  I1600   2.168   .     S
C1511  C1118   1.402   1_565 S
C1512  C1138   1.398   1_565 S
I1537  C1570   2.171   .     S
I1538  C1633   2.168   1_455 S
N1539  Zn1549  2.004   .     S
N1540  Zn1550  2.004   .     S
O1541  Zn1549  1.991   .     S
O1542  Zn1550  1.991   .     S
O1543  Zn1550  1.996   .     S
O1544  Zn1549  1.996   .     S
O1545  Zn1549  1.989   .     S
O1546  Zn1550  1.989   .     S
O1547  Zn1550  2.005   .     S
O1548  Zn1549  2.005   .     S
C1551  C1554   1.416   .     S
C1551  O1605   1.281   .     A
C1551  O1603   1.273   .     A
C1552  C1554   1.413   .     A
C1552  C1566   1.537   .     S
C1553  C1573   1.416   .     A
C1553  C1574   1.412   .     A
C1553  C1562   1.417   .     S
C1554  C1572   1.411   .     A
C1555  N1602   1.365   .     A
C1555  H1575   1.082   .     S
C1556  H1586   1.082   .     S
C1556  N1601   1.366   .     A
C1556  C442    1.415   1_556 S
C1557  N1601   1.364   .     A
C1557  H1592   1.078   .     S
C1557  C439    1.414   1_556 S
C1558  N1602   1.366   .     A
C1558  H1593   1.082   .     S
C1559  C1560   1.525   .     S
C1559  H1597   1.107   .     S
C1559  C1572   1.530   .     S
C1559  H1598   1.105   .     S
C1560  H1596   1.108   .     S
C1560  H1595   1.109   .     S
C1560  H1594   1.110   .     S
C1561  C1563   1.531   .     S
C1561  C1573   1.535   .     S
C1561  H1579   1.106   .     S
C1561  H1580   1.109   .     S
C1562  O1606   1.278   .     A
C1562  O1604   1.277   .     A
C1563  H1578   1.105   .     S
C1563  H1576   1.111   .     S
C1563  H1577   1.106   .     S
C1564  H1584   1.108   .     S
C1564  C1574   1.535   .     S
C1564  H1585   1.108   .     S
C1564  C1565   1.530   .     S
C1565  H1582   1.111   .     S
C1565  H1581   1.108   .     S
C1565  H1583   1.109   .     S
C1566  H1590   1.100   .     S
C1566  C1567   1.537   .     S
C1566  H1591   1.109   .     S
C1567  H1588   1.107   .     S
C1567  H1589   1.111   .     S
C1567  H1587   1.111   .     S
C1568  O1607   1.271   .     A
C1568  C1570   1.409   .     S
C1568  O1609   1.286   .     A
C1569  O1610   1.287   .     A
C1569  C1571   1.409   .     S
C1569  O1608   1.271   .     A
C1571  C1632   1.358   .     S
C1571  I1662   2.168   .     S
C1573  C1180   1.402   1_565 S
C1574  C1200   1.398   1_565 S
I1599  C1632   2.171   .     S
N1601  Zn1611  2.004   .     S
N1602  Zn1612  2.004   .     S
O1603  Zn1611  1.991   .     S
O1604  Zn1612  1.991   .     S
O1605  Zn1612  1.996   .     S
O1606  Zn1611  1.996   .     S
O1607  Zn1611  1.989   .     S
O1608  Zn1612  1.989   .     S
O1609  Zn1612  2.005   .     S
O1610  Zn1611  2.005   .     S
C1613  C1616   1.416   .     S
C1613  O1667   1.281   .     A
C1613  O1665   1.273   .     A
C1614  C1616   1.413   .     A
C1614  C1628   1.537   .     S
C1615  C1635   1.416   .     A
C1615  C1636   1.412   .     A
C1615  C1624   1.417   .     S
C1616  C1634   1.411   .     A
C1617  N1664   1.365   .     A
C1617  H1637   1.082   .     S
C1618  H1648   1.082   .     S
C1618  N1663   1.366   .     A
C1618  C504    1.415   1_556 S
C1619  N1663   1.364   .     A
C1619  H1654   1.078   .     S
C1619  C501    1.414   1_556 S
C1620  N1664   1.366   .     A
C1620  H1655   1.082   .     S
C1621  C1622   1.525   .     S
C1621  H1659   1.107   .     S
C1621  C1634   1.530   .     S
C1621  H1660   1.105   .     S
C1622  H1658   1.108   .     S
C1622  H1657   1.109   .     S
C1622  H1656   1.110   .     S
C1623  C1625   1.531   .     S
C1623  C1635   1.535   .     S
C1623  H1641   1.106   .     S
C1623  H1642   1.109   .     S
C1624  O1668   1.278   .     A
C1624  O1666   1.277   .     A
C1625  H1640   1.105   .     S
C1625  H1638   1.111   .     S
C1625  H1639   1.106   .     S
C1626  H1646   1.108   .     S
C1626  C1636   1.535   .     S
C1626  H1647   1.108   .     S
C1626  C1627   1.530   .     S
C1627  H1644   1.111   .     S
C1627  H1643   1.108   .     S
C1627  H1645   1.109   .     S
C1628  H1652   1.100   .     S
C1628  C1629   1.537   .     S
C1628  H1653   1.109   .     S
C1629  H1650   1.107   .     S
C1629  H1651   1.111   .     S
C1629  H1649   1.111   .     S
C1630  O1669   1.271   .     A
C1630  C1632   1.409   .     S
C1630  O1671   1.286   .     A
C1631  O1672   1.287   .     A
C1631  C1633   1.409   .     S
C1631  O1670   1.271   .     A
C1633  C1508   1.358   1_655 S
C1633  I1538   2.168   1_655 S
C1635  C1242   1.402   1_565 S
C1636  C1262   1.398   1_565 S
I1661  C1508   2.171   1_655 S
N1663  Zn1673  2.004   .     S
N1664  Zn1674  2.004   .     S
O1665  Zn1673  1.991   .     S
O1666  Zn1674  1.991   .     S
O1667  Zn1674  1.996   .     S
O1668  Zn1673  1.996   .     S
O1669  Zn1673  1.989   .     S
O1670  Zn1674  1.989   .     S
O1671  Zn1674  2.005   .     S
O1672  Zn1673  2.005   .     S
