data_str_m3_o2_o5_pcu_sym.107
_audit_creation_date              2020-01-03
_audit_creation_method            'Materials Studio'
_symmetry_space_group_name_H-M    'P1'
_symmetry_Int_Tables_number       1
_symmetry_cell_setting            triclinic
loop_
_symmetry_equiv_pos_as_xyz
  x,y,z
_cell_length_a                    29.7935
_cell_length_b                    28.6538
_cell_length_c                    26.8077
_cell_angle_alpha                 90.0939
_cell_angle_beta                  92.3646
_cell_angle_gamma                 90.1505
loop_
_atom_site_label
_atom_site_type_symbol
_atom_site_fract_x
_atom_site_fract_y
_atom_site_fract_z
_atom_site_U_iso_or_equiv
_atom_site_adp_type
_atom_site_occupancy
O1     O     0.18453   0.28974   0.16667   0.00000  Uiso   1.00
O2     O     0.31547   0.21026   0.16666   0.00000  Uiso   1.00
O3     O     0.31547   0.28974   0.16666   0.00000  Uiso   1.00
O4     O     0.18453   0.21026   0.16667   0.00000  Uiso   1.00
C5     C     0.16387   0.24980   0.16865   0.00000  Uiso   1.00
C6     C     0.33600   0.24988   0.16758   0.00000  Uiso   1.00
O7     O     0.25000   0.28973   0.09511   0.00000  Uiso   1.00
O8     O     0.25000   0.21027   0.23822   0.00000  Uiso   1.00
O9     O     0.25000   0.28973   0.23822   0.00000  Uiso   1.00
O10    O     0.25000   0.21027   0.09511   0.00000  Uiso   1.00
C11    C     0.22290   0.05246   0.13208   0.00000  Uiso   1.00
C12    C     0.29039   0.44767   0.17112   0.00000  Uiso   1.00
C13    C     0.27741   0.05298   0.20166   0.00000  Uiso   1.00
C14    C     0.20981   0.44751   0.16283   0.00000  Uiso   1.00
C15    C     0.24987   0.24997   0.07294   0.00000  Uiso   1.00
C16    C     0.25017   0.25002   0.26039   0.00000  Uiso   1.00
Zn17   Zn    0.25000   0.30307   0.16667   0.00000  Uiso   1.00
Zn18   Zn    0.25000   0.19693   0.16667   0.00000  Uiso   1.00
N19    N     0.25000   0.12624   0.16667   0.00000  Uiso   1.00
N20    N     0.25000   0.37377   0.16667   0.00000  Uiso   1.00
C21    C     0.25007   0.02684   0.16709   0.00000  Uiso   1.00
C22    C     0.25011   0.47356   0.16723   0.00000  Uiso   1.00
C23    C     0.24997   0.24996   0.02179   0.00000  Uiso   1.00
C24    C     0.25008   0.25003   0.31154   0.00000  Uiso   1.00
C25    C     0.04554   0.28874   0.18224   0.00000  Uiso   1.00
C26    C     0.45427   0.21501   0.15325   0.00000  Uiso   1.00
C27    C     0.45067   0.27188   0.22156   0.00000  Uiso   1.00
C28    C     0.05025   0.20461   0.19753   0.00000  Uiso   1.00
C29    C     0.09152   0.28997   0.17654   0.00000  Uiso   1.00
C30    C     0.40811   0.21775   0.14574   0.00000  Uiso   1.00
C31    C     0.40466   0.27444   0.21274   0.00000  Uiso   1.00
C32    C     0.09570   0.20633   0.18898   0.00000  Uiso   1.00
H33    H     0.10757   0.32315   0.17085   0.00000  Uiso   1.00
H34    H     0.39133   0.19626   0.11731   0.00000  Uiso   1.00
H35    H     0.38510   0.29601   0.23669   0.00000  Uiso   1.00
H36    H     0.11470   0.17421   0.19156   0.00000  Uiso   1.00
C37    C     0.11621   0.24872   0.17727   0.00000  Uiso   1.00
C38    C     0.38385   0.24864   0.17423   0.00000  Uiso   1.00
C39    C     0.02462   0.24567   0.19188   0.00000  Uiso   1.00
C40    C     0.47587   0.24285   0.19057   0.00000  Uiso   1.00
C41    C     0.22264   0.10185   0.13347   0.00000  Uiso   1.00
C42    C     0.28849   0.39878   0.17894   0.00000  Uiso   1.00
C43    C     0.27773   0.10235   0.19972   0.00000  Uiso   1.00
C44    C     0.21171   0.39873   0.15350   0.00000  Uiso   1.00
C45    C     0.19251   0.12658   0.09771   0.00000  Uiso   1.00
O46    O     0.20515   0.13562   0.05601   0.00000  Uiso   1.00
O47    O     0.14840   0.13596   0.11013   0.00000  Uiso   1.00
H48    H     0.13058   0.15202   0.08211   0.00000  Uiso   1.00
C49    C     0.32737   0.37694   0.20493   0.00000  Uiso   1.00
O50    O     0.32177   0.35377   0.24238   0.00000  Uiso   1.00
O51    O     0.37074   0.38585   0.18921   0.00000  Uiso   1.00
H52    H     0.39501   0.37343   0.21315   0.00000  Uiso   1.00
C53    C     0.30937   0.12757   0.23367   0.00000  Uiso   1.00
O54    O     0.29847   0.13751   0.27583   0.00000  Uiso   1.00
O55    O     0.35298   0.13647   0.21889   0.00000  Uiso   1.00
H56    H     0.37202   0.15312   0.24566   0.00000  Uiso   1.00
C57    C     0.17440   0.37777   0.12276   0.00000  Uiso   1.00
O58    O     0.18247   0.34879   0.09097   0.00000  Uiso   1.00
O59    O     0.13058   0.39452   0.12606   0.00000  Uiso   1.00
H60    H     0.10904   0.38010   0.10013   0.00000  Uiso   1.00
O61    O     0.02181   0.33018   0.18113   0.00000  Uiso   1.00
C62    C     0.00916   0.34107   0.13127   0.00000  Uiso   1.00
H63    H     0.48336   0.31597   0.11653   0.00000  Uiso   1.00
H64    H     0.03856   0.34084   0.10698   0.00000  Uiso   1.00
C65    C     0.48888   0.38970   0.12941   0.00000  Uiso   1.00
H66    H     0.01408   0.41577   0.14335   0.00000  Uiso   1.00
H67    H     0.47827   0.39855   0.09038   0.00000  Uiso   1.00
H68    H     0.45912   0.39112   0.15294   0.00000  Uiso   1.00
O69    O     0.47841   0.18443   0.12480   0.00000  Uiso   1.00
C70    C     0.48437   0.20356   0.07704   0.00000  Uiso   1.00
H71    H     0.48512   0.24242   0.07695   0.00000  Uiso   1.00
H72    H     0.45675   0.19150   0.05096   0.00000  Uiso   1.00
C73    C     0.02897   0.18664   0.05827   0.00000  Uiso   1.00
H74    H     0.02899   0.14798   0.05544   0.00000  Uiso   1.00
H75    H     0.03468   0.20172   0.02107   0.00000  Uiso   1.00
H76    H     0.05681   0.19801   0.08433   0.00000  Uiso   1.00
O77    O     0.47046   0.30324   0.25515   0.00000  Uiso   1.00
C78    C     0.48825   0.27942   0.29737   0.00000  Uiso   1.00
H79    H     0.01537   0.25521   0.28731   0.00000  Uiso   1.00
H80    H     0.46143   0.25985   0.31623   0.00000  Uiso   1.00
C81    C     0.00908   0.31490   0.00033   0.00000  Uiso   1.00
H82    H     0.48249   0.33713   0.01573   0.00000  Uiso   1.00
H83    H     0.02746   0.29655   0.03126   0.00000  Uiso   1.00
H84    H     0.03333   0.33734   0.31431   0.00000  Uiso   1.00
O85    O     0.03052   0.16157   0.20501   0.00000  Uiso   1.00
C86    C     0.02637   0.15444   0.25661   0.00000  Uiso   1.00
H87    H     0.49940   0.17699   0.27079   0.00000  Uiso   1.00
H88    H     0.05865   0.16140   0.27794   0.00000  Uiso   1.00
C89    C     0.01324   0.10391   0.26546   0.00000  Uiso   1.00
H90    H     0.03960   0.08023   0.25193   0.00000  Uiso   1.00
H91    H     0.00949   0.09790   0.30599   0.00000  Uiso   1.00
H92    H     0.48082   0.09589   0.24527   0.00000  Uiso   1.00
O93    O     0.19335   0.03010   0.09869   0.00000  Uiso   1.00
C94    C     0.21665   0.01425   0.05731   0.00000  Uiso   1.00
H95    H     0.24300   0.48864   0.06876   0.00000  Uiso   1.00
H96    H     0.23222   0.04403   0.03779   0.00000  Uiso   1.00
C97    C     0.18352   0.48984   0.02124   0.00000  Uiso   1.00
H98    H     0.15842   0.01522   0.00601   0.00000  Uiso   1.00
H99    H     0.20154   0.47423   0.32332   0.00000  Uiso   1.00
H100   H     0.16585   0.46150   0.04083   0.00000  Uiso   1.00
O101   O     0.33168   0.46988   0.17198   0.00000  Uiso   1.00
C102   C     0.34351   0.47820   0.12233   0.00000  Uiso   1.00
H103   H     0.31991   0.00335   0.10368   0.00000  Uiso   1.00
H104   H     0.34378   0.44511   0.10039   0.00000  Uiso   1.00
C105   C     0.39037   0.49933   0.12267   0.00000  Uiso   1.00
H106   H     0.41499   0.47491   0.14062   0.00000  Uiso   1.00
H107   H     0.40007   0.00609   0.08378   0.00000  Uiso   1.00
H108   H     0.39102   0.03280   0.14368   0.00000  Uiso   1.00
O109   O     0.30727   0.03113   0.23487   0.00000  Uiso   1.00
C110   C     0.28443   0.01599   0.27686   0.00000  Uiso   1.00
H111   H     0.25771   0.49037   0.26612   0.00000  Uiso   1.00
H112   H     0.26945   0.04614   0.29629   0.00000  Uiso   1.00
C113   C     0.31782   0.49190   0.31265   0.00000  Uiso   1.00
H114   H     0.34358   0.01727   0.32682   0.00000  Uiso   1.00
H115   H     0.30018   0.47718   0.01132   0.00000  Uiso   1.00
H116   H     0.33465   0.46295   0.29318   0.00000  Uiso   1.00
O117   O     0.16868   0.46975   0.16254   0.00000  Uiso   1.00
C118   C     0.15676   0.47684   0.21237   0.00000  Uiso   1.00
H119   H     0.18080   0.00103   0.23210   0.00000  Uiso   1.00
H120   H     0.15562   0.44312   0.23299   0.00000  Uiso   1.00
C121   C     0.11037   0.49882   0.21254   0.00000  Uiso   1.00
H122   H     0.08529   0.47538   0.19354   0.00000  Uiso   1.00
H123   H     0.10062   0.00465   0.25160   0.00000  Uiso   1.00
H124   H     0.11060   0.03289   0.19282   0.00000  Uiso   1.00
O125   O     0.68453   0.28974   0.16667   0.00000  Uiso   1.00
O126   O     0.81547   0.21026   0.16666   0.00000  Uiso   1.00
O127   O     0.81547   0.28974   0.16666   0.00000  Uiso   1.00
O128   O     0.68453   0.21026   0.16667   0.00000  Uiso   1.00
C129   C     0.66387   0.24980   0.16865   0.00000  Uiso   1.00
C130   C     0.83600   0.24988   0.16758   0.00000  Uiso   1.00
O131   O     0.75000   0.28973   0.09511   0.00000  Uiso   1.00
O132   O     0.75000   0.21027   0.23822   0.00000  Uiso   1.00
O133   O     0.75000   0.28973   0.23822   0.00000  Uiso   1.00
O134   O     0.75000   0.21027   0.09511   0.00000  Uiso   1.00
C135   C     0.72290   0.05246   0.13208   0.00000  Uiso   1.00
C136   C     0.79039   0.44767   0.17112   0.00000  Uiso   1.00
C137   C     0.77741   0.05298   0.20166   0.00000  Uiso   1.00
C138   C     0.70981   0.44751   0.16283   0.00000  Uiso   1.00
C139   C     0.74987   0.24997   0.07294   0.00000  Uiso   1.00
C140   C     0.75017   0.25002   0.26039   0.00000  Uiso   1.00
Zn141  Zn    0.75000   0.30307   0.16667   0.00000  Uiso   1.00
Zn142  Zn    0.75000   0.19693   0.16667   0.00000  Uiso   1.00
N143   N     0.75000   0.12624   0.16667   0.00000  Uiso   1.00
N144   N     0.75000   0.37377   0.16667   0.00000  Uiso   1.00
C145   C     0.75007   0.02684   0.16709   0.00000  Uiso   1.00
C146   C     0.75011   0.47356   0.16723   0.00000  Uiso   1.00
C147   C     0.74997   0.24996   0.02179   0.00000  Uiso   1.00
C148   C     0.75008   0.25003   0.31154   0.00000  Uiso   1.00
C149   C     0.54554   0.28874   0.18224   0.00000  Uiso   1.00
C150   C     0.95427   0.21501   0.15325   0.00000  Uiso   1.00
C151   C     0.95067   0.27188   0.22156   0.00000  Uiso   1.00
C152   C     0.55025   0.20461   0.19753   0.00000  Uiso   1.00
C153   C     0.59152   0.28997   0.17654   0.00000  Uiso   1.00
C154   C     0.90811   0.21775   0.14574   0.00000  Uiso   1.00
C155   C     0.90466   0.27444   0.21274   0.00000  Uiso   1.00
C156   C     0.59570   0.20633   0.18898   0.00000  Uiso   1.00
H157   H     0.60757   0.32315   0.17085   0.00000  Uiso   1.00
H158   H     0.89133   0.19626   0.11731   0.00000  Uiso   1.00
H159   H     0.88510   0.29601   0.23669   0.00000  Uiso   1.00
H160   H     0.61470   0.17421   0.19156   0.00000  Uiso   1.00
C161   C     0.61621   0.24872   0.17727   0.00000  Uiso   1.00
C162   C     0.88385   0.24864   0.17423   0.00000  Uiso   1.00
C163   C     0.52462   0.24567   0.19188   0.00000  Uiso   1.00
C164   C     0.97587   0.24285   0.19057   0.00000  Uiso   1.00
C165   C     0.72264   0.10185   0.13347   0.00000  Uiso   1.00
C166   C     0.78849   0.39878   0.17894   0.00000  Uiso   1.00
C167   C     0.77773   0.10235   0.19972   0.00000  Uiso   1.00
C168   C     0.71171   0.39873   0.15350   0.00000  Uiso   1.00
C169   C     0.69251   0.12658   0.09771   0.00000  Uiso   1.00
O170   O     0.70515   0.13562   0.05601   0.00000  Uiso   1.00
O171   O     0.64840   0.13596   0.11013   0.00000  Uiso   1.00
H172   H     0.63058   0.15202   0.08211   0.00000  Uiso   1.00
C173   C     0.82737   0.37694   0.20493   0.00000  Uiso   1.00
O174   O     0.82177   0.35377   0.24238   0.00000  Uiso   1.00
O175   O     0.87074   0.38585   0.18921   0.00000  Uiso   1.00
H176   H     0.89501   0.37343   0.21315   0.00000  Uiso   1.00
C177   C     0.80937   0.12757   0.23367   0.00000  Uiso   1.00
O178   O     0.79847   0.13751   0.27583   0.00000  Uiso   1.00
O179   O     0.85298   0.13647   0.21889   0.00000  Uiso   1.00
H180   H     0.87202   0.15312   0.24566   0.00000  Uiso   1.00
C181   C     0.67440   0.37777   0.12276   0.00000  Uiso   1.00
O182   O     0.68247   0.34879   0.09097   0.00000  Uiso   1.00
O183   O     0.63058   0.39452   0.12606   0.00000  Uiso   1.00
H184   H     0.60904   0.38010   0.10013   0.00000  Uiso   1.00
O185   O     0.52181   0.33018   0.18113   0.00000  Uiso   1.00
C186   C     0.50916   0.34107   0.13127   0.00000  Uiso   1.00
H187   H     0.98336   0.31597   0.11653   0.00000  Uiso   1.00
H188   H     0.53856   0.34084   0.10698   0.00000  Uiso   1.00
C189   C     0.98888   0.38970   0.12941   0.00000  Uiso   1.00
H190   H     0.51408   0.41577   0.14335   0.00000  Uiso   1.00
H191   H     0.97827   0.39855   0.09038   0.00000  Uiso   1.00
H192   H     0.95912   0.39112   0.15294   0.00000  Uiso   1.00
O193   O     0.97841   0.18443   0.12480   0.00000  Uiso   1.00
C194   C     0.98437   0.20356   0.07704   0.00000  Uiso   1.00
H195   H     0.98512   0.24242   0.07695   0.00000  Uiso   1.00
H196   H     0.95675   0.19150   0.05096   0.00000  Uiso   1.00
C197   C     0.52897   0.18664   0.05827   0.00000  Uiso   1.00
H198   H     0.52899   0.14798   0.05544   0.00000  Uiso   1.00
H199   H     0.53468   0.20172   0.02107   0.00000  Uiso   1.00
H200   H     0.55681   0.19801   0.08433   0.00000  Uiso   1.00
O201   O     0.97046   0.30324   0.25515   0.00000  Uiso   1.00
C202   C     0.98825   0.27942   0.29737   0.00000  Uiso   1.00
H203   H     0.51537   0.25521   0.28731   0.00000  Uiso   1.00
H204   H     0.96143   0.25985   0.31623   0.00000  Uiso   1.00
C205   C     0.50908   0.31490   0.00033   0.00000  Uiso   1.00
H206   H     0.98249   0.33713   0.01573   0.00000  Uiso   1.00
H207   H     0.52746   0.29655   0.03126   0.00000  Uiso   1.00
H208   H     0.53333   0.33734   0.31431   0.00000  Uiso   1.00
O209   O     0.53052   0.16157   0.20501   0.00000  Uiso   1.00
C210   C     0.52637   0.15444   0.25661   0.00000  Uiso   1.00
H211   H     0.99940   0.17699   0.27079   0.00000  Uiso   1.00
H212   H     0.55865   0.16140   0.27794   0.00000  Uiso   1.00
C213   C     0.51324   0.10391   0.26546   0.00000  Uiso   1.00
H214   H     0.53960   0.08023   0.25193   0.00000  Uiso   1.00
H215   H     0.50949   0.09790   0.30599   0.00000  Uiso   1.00
H216   H     0.98082   0.09589   0.24527   0.00000  Uiso   1.00
O217   O     0.69335   0.03010   0.09869   0.00000  Uiso   1.00
C218   C     0.71665   0.01425   0.05731   0.00000  Uiso   1.00
H219   H     0.74300   0.48864   0.06876   0.00000  Uiso   1.00
H220   H     0.73222   0.04403   0.03779   0.00000  Uiso   1.00
C221   C     0.68352   0.48984   0.02124   0.00000  Uiso   1.00
H222   H     0.65842   0.01522   0.00601   0.00000  Uiso   1.00
H223   H     0.70154   0.47423   0.32332   0.00000  Uiso   1.00
H224   H     0.66585   0.46150   0.04083   0.00000  Uiso   1.00
O225   O     0.83168   0.46988   0.17198   0.00000  Uiso   1.00
C226   C     0.84351   0.47820   0.12233   0.00000  Uiso   1.00
H227   H     0.81991   0.00335   0.10368   0.00000  Uiso   1.00
H228   H     0.84378   0.44511   0.10039   0.00000  Uiso   1.00
C229   C     0.89037   0.49933   0.12267   0.00000  Uiso   1.00
H230   H     0.91499   0.47491   0.14062   0.00000  Uiso   1.00
H231   H     0.90007   0.00609   0.08378   0.00000  Uiso   1.00
H232   H     0.89102   0.03280   0.14368   0.00000  Uiso   1.00
O233   O     0.80727   0.03113   0.23487   0.00000  Uiso   1.00
C234   C     0.78443   0.01599   0.27686   0.00000  Uiso   1.00
H235   H     0.75771   0.49037   0.26612   0.00000  Uiso   1.00
H236   H     0.76945   0.04614   0.29629   0.00000  Uiso   1.00
C237   C     0.81782   0.49190   0.31265   0.00000  Uiso   1.00
H238   H     0.84358   0.01727   0.32682   0.00000  Uiso   1.00
H239   H     0.80018   0.47718   0.01132   0.00000  Uiso   1.00
H240   H     0.83465   0.46295   0.29318   0.00000  Uiso   1.00
O241   O     0.66868   0.46975   0.16254   0.00000  Uiso   1.00
C242   C     0.65676   0.47684   0.21237   0.00000  Uiso   1.00
H243   H     0.68080   0.00103   0.23210   0.00000  Uiso   1.00
H244   H     0.65562   0.44312   0.23299   0.00000  Uiso   1.00
C245   C     0.61037   0.49882   0.21254   0.00000  Uiso   1.00
H246   H     0.58529   0.47538   0.19354   0.00000  Uiso   1.00
H247   H     0.60062   0.00465   0.25160   0.00000  Uiso   1.00
H248   H     0.61060   0.03289   0.19282   0.00000  Uiso   1.00
O249   O     0.18453   0.78974   0.16667   0.00000  Uiso   1.00
O250   O     0.31547   0.71026   0.16666   0.00000  Uiso   1.00
O251   O     0.31547   0.78974   0.16666   0.00000  Uiso   1.00
O252   O     0.18453   0.71026   0.16667   0.00000  Uiso   1.00
C253   C     0.16387   0.74980   0.16865   0.00000  Uiso   1.00
C254   C     0.33600   0.74988   0.16758   0.00000  Uiso   1.00
O255   O     0.25000   0.78973   0.09511   0.00000  Uiso   1.00
O256   O     0.25000   0.71027   0.23822   0.00000  Uiso   1.00
O257   O     0.25000   0.78973   0.23822   0.00000  Uiso   1.00
O258   O     0.25000   0.71027   0.09511   0.00000  Uiso   1.00
C259   C     0.22290   0.55246   0.13208   0.00000  Uiso   1.00
C260   C     0.29039   0.94767   0.17112   0.00000  Uiso   1.00
C261   C     0.27741   0.55298   0.20166   0.00000  Uiso   1.00
C262   C     0.20981   0.94751   0.16283   0.00000  Uiso   1.00
C263   C     0.24987   0.74997   0.07294   0.00000  Uiso   1.00
C264   C     0.25017   0.75002   0.26039   0.00000  Uiso   1.00
Zn265  Zn    0.25000   0.80307   0.16667   0.00000  Uiso   1.00
Zn266  Zn    0.25000   0.69693   0.16667   0.00000  Uiso   1.00
N267   N     0.25000   0.62624   0.16667   0.00000  Uiso   1.00
N268   N     0.25000   0.87377   0.16667   0.00000  Uiso   1.00
C269   C     0.25007   0.52684   0.16709   0.00000  Uiso   1.00
C270   C     0.25011   0.97356   0.16723   0.00000  Uiso   1.00
C271   C     0.24997   0.74996   0.02179   0.00000  Uiso   1.00
C272   C     0.25008   0.75003   0.31154   0.00000  Uiso   1.00
C273   C     0.04554   0.78874   0.18224   0.00000  Uiso   1.00
C274   C     0.45427   0.71501   0.15325   0.00000  Uiso   1.00
C275   C     0.45067   0.77188   0.22156   0.00000  Uiso   1.00
C276   C     0.05025   0.70461   0.19753   0.00000  Uiso   1.00
C277   C     0.09152   0.78997   0.17654   0.00000  Uiso   1.00
C278   C     0.40811   0.71775   0.14574   0.00000  Uiso   1.00
C279   C     0.40466   0.77444   0.21274   0.00000  Uiso   1.00
C280   C     0.09570   0.70633   0.18898   0.00000  Uiso   1.00
H281   H     0.10757   0.82315   0.17085   0.00000  Uiso   1.00
H282   H     0.39133   0.69626   0.11731   0.00000  Uiso   1.00
H283   H     0.38510   0.79601   0.23669   0.00000  Uiso   1.00
H284   H     0.11470   0.67421   0.19156   0.00000  Uiso   1.00
C285   C     0.11621   0.74872   0.17727   0.00000  Uiso   1.00
C286   C     0.38385   0.74864   0.17423   0.00000  Uiso   1.00
C287   C     0.02462   0.74567   0.19188   0.00000  Uiso   1.00
C288   C     0.47587   0.74285   0.19057   0.00000  Uiso   1.00
C289   C     0.22264   0.60185   0.13347   0.00000  Uiso   1.00
C290   C     0.28849   0.89878   0.17894   0.00000  Uiso   1.00
C291   C     0.27773   0.60235   0.19972   0.00000  Uiso   1.00
C292   C     0.21171   0.89873   0.15350   0.00000  Uiso   1.00
C293   C     0.19251   0.62658   0.09771   0.00000  Uiso   1.00
O294   O     0.20515   0.63562   0.05601   0.00000  Uiso   1.00
O295   O     0.14840   0.63596   0.11013   0.00000  Uiso   1.00
H296   H     0.13058   0.65202   0.08211   0.00000  Uiso   1.00
C297   C     0.32737   0.87694   0.20493   0.00000  Uiso   1.00
O298   O     0.32177   0.85377   0.24238   0.00000  Uiso   1.00
O299   O     0.37074   0.88585   0.18921   0.00000  Uiso   1.00
H300   H     0.39501   0.87343   0.21315   0.00000  Uiso   1.00
C301   C     0.30937   0.62757   0.23367   0.00000  Uiso   1.00
O302   O     0.29847   0.63751   0.27583   0.00000  Uiso   1.00
O303   O     0.35298   0.63647   0.21889   0.00000  Uiso   1.00
H304   H     0.37202   0.65312   0.24566   0.00000  Uiso   1.00
C305   C     0.17440   0.87777   0.12276   0.00000  Uiso   1.00
O306   O     0.18247   0.84879   0.09097   0.00000  Uiso   1.00
O307   O     0.13058   0.89452   0.12606   0.00000  Uiso   1.00
H308   H     0.10904   0.88010   0.10013   0.00000  Uiso   1.00
O309   O     0.02181   0.83018   0.18113   0.00000  Uiso   1.00
C310   C     0.00916   0.84107   0.13127   0.00000  Uiso   1.00
H311   H     0.48336   0.81597   0.11653   0.00000  Uiso   1.00
H312   H     0.03856   0.84084   0.10698   0.00000  Uiso   1.00
C313   C     0.48888   0.88970   0.12941   0.00000  Uiso   1.00
H314   H     0.01408   0.91577   0.14335   0.00000  Uiso   1.00
H315   H     0.47827   0.89855   0.09038   0.00000  Uiso   1.00
H316   H     0.45912   0.89112   0.15294   0.00000  Uiso   1.00
O317   O     0.47841   0.68443   0.12480   0.00000  Uiso   1.00
C318   C     0.48437   0.70356   0.07704   0.00000  Uiso   1.00
H319   H     0.48512   0.74242   0.07695   0.00000  Uiso   1.00
H320   H     0.45675   0.69150   0.05096   0.00000  Uiso   1.00
C321   C     0.02897   0.68664   0.05827   0.00000  Uiso   1.00
H322   H     0.02899   0.64798   0.05544   0.00000  Uiso   1.00
H323   H     0.03468   0.70172   0.02107   0.00000  Uiso   1.00
H324   H     0.05681   0.69801   0.08433   0.00000  Uiso   1.00
O325   O     0.47046   0.80324   0.25515   0.00000  Uiso   1.00
C326   C     0.48825   0.77942   0.29737   0.00000  Uiso   1.00
H327   H     0.01537   0.75521   0.28731   0.00000  Uiso   1.00
H328   H     0.46143   0.75985   0.31623   0.00000  Uiso   1.00
C329   C     0.00908   0.81490   0.00033   0.00000  Uiso   1.00
H330   H     0.48249   0.83713   0.01573   0.00000  Uiso   1.00
H331   H     0.02746   0.79655   0.03126   0.00000  Uiso   1.00
H332   H     0.03333   0.83734   0.31431   0.00000  Uiso   1.00
O333   O     0.03052   0.66157   0.20501   0.00000  Uiso   1.00
C334   C     0.02637   0.65444   0.25661   0.00000  Uiso   1.00
H335   H     0.49940   0.67699   0.27079   0.00000  Uiso   1.00
H336   H     0.05865   0.66140   0.27794   0.00000  Uiso   1.00
C337   C     0.01324   0.60391   0.26546   0.00000  Uiso   1.00
H338   H     0.03960   0.58023   0.25193   0.00000  Uiso   1.00
H339   H     0.00949   0.59790   0.30599   0.00000  Uiso   1.00
H340   H     0.48082   0.59589   0.24527   0.00000  Uiso   1.00
O341   O     0.19335   0.53010   0.09869   0.00000  Uiso   1.00
C342   C     0.21665   0.51425   0.05731   0.00000  Uiso   1.00
H343   H     0.24300   0.98864   0.06876   0.00000  Uiso   1.00
H344   H     0.23222   0.54403   0.03779   0.00000  Uiso   1.00
C345   C     0.18352   0.98984   0.02124   0.00000  Uiso   1.00
H346   H     0.15842   0.51522   0.00601   0.00000  Uiso   1.00
H347   H     0.20154   0.97423   0.32332   0.00000  Uiso   1.00
H348   H     0.16585   0.96150   0.04083   0.00000  Uiso   1.00
O349   O     0.33168   0.96988   0.17198   0.00000  Uiso   1.00
C350   C     0.34351   0.97820   0.12233   0.00000  Uiso   1.00
H351   H     0.31991   0.50335   0.10368   0.00000  Uiso   1.00
H352   H     0.34378   0.94511   0.10039   0.00000  Uiso   1.00
C353   C     0.39037   0.99933   0.12267   0.00000  Uiso   1.00
H354   H     0.41499   0.97491   0.14062   0.00000  Uiso   1.00
H355   H     0.40007   0.50609   0.08378   0.00000  Uiso   1.00
H356   H     0.39102   0.53280   0.14368   0.00000  Uiso   1.00
O357   O     0.30727   0.53113   0.23487   0.00000  Uiso   1.00
C358   C     0.28443   0.51599   0.27686   0.00000  Uiso   1.00
H359   H     0.25771   0.99037   0.26612   0.00000  Uiso   1.00
H360   H     0.26945   0.54614   0.29629   0.00000  Uiso   1.00
C361   C     0.31782   0.99190   0.31265   0.00000  Uiso   1.00
H362   H     0.34358   0.51727   0.32682   0.00000  Uiso   1.00
H363   H     0.30018   0.97718   0.01132   0.00000  Uiso   1.00
H364   H     0.33465   0.96295   0.29318   0.00000  Uiso   1.00
O365   O     0.16868   0.96975   0.16254   0.00000  Uiso   1.00
C366   C     0.15676   0.97684   0.21237   0.00000  Uiso   1.00
H367   H     0.18080   0.50103   0.23210   0.00000  Uiso   1.00
H368   H     0.15562   0.94312   0.23299   0.00000  Uiso   1.00
C369   C     0.11037   0.99882   0.21254   0.00000  Uiso   1.00
H370   H     0.08529   0.97538   0.19354   0.00000  Uiso   1.00
H371   H     0.10062   0.50465   0.25160   0.00000  Uiso   1.00
H372   H     0.11060   0.53289   0.19282   0.00000  Uiso   1.00
O373   O     0.68453   0.78974   0.16667   0.00000  Uiso   1.00
O374   O     0.81547   0.71026   0.16666   0.00000  Uiso   1.00
O375   O     0.81547   0.78974   0.16666   0.00000  Uiso   1.00
O376   O     0.68453   0.71026   0.16667   0.00000  Uiso   1.00
C377   C     0.66387   0.74980   0.16865   0.00000  Uiso   1.00
C378   C     0.83600   0.74988   0.16758   0.00000  Uiso   1.00
O379   O     0.75000   0.78973   0.09511   0.00000  Uiso   1.00
O380   O     0.75000   0.71027   0.23822   0.00000  Uiso   1.00
O381   O     0.75000   0.78973   0.23822   0.00000  Uiso   1.00
O382   O     0.75000   0.71027   0.09511   0.00000  Uiso   1.00
C383   C     0.72290   0.55246   0.13208   0.00000  Uiso   1.00
C384   C     0.79039   0.94767   0.17112   0.00000  Uiso   1.00
C385   C     0.77741   0.55298   0.20166   0.00000  Uiso   1.00
C386   C     0.70981   0.94751   0.16283   0.00000  Uiso   1.00
C387   C     0.74987   0.74997   0.07294   0.00000  Uiso   1.00
C388   C     0.75017   0.75002   0.26039   0.00000  Uiso   1.00
Zn389  Zn    0.75000   0.80307   0.16667   0.00000  Uiso   1.00
Zn390  Zn    0.75000   0.69693   0.16667   0.00000  Uiso   1.00
N391   N     0.75000   0.62624   0.16667   0.00000  Uiso   1.00
N392   N     0.75000   0.87377   0.16667   0.00000  Uiso   1.00
C393   C     0.75007   0.52684   0.16709   0.00000  Uiso   1.00
C394   C     0.75011   0.97356   0.16723   0.00000  Uiso   1.00
C395   C     0.74997   0.74996   0.02179   0.00000  Uiso   1.00
C396   C     0.75008   0.75003   0.31154   0.00000  Uiso   1.00
C397   C     0.54554   0.78874   0.18224   0.00000  Uiso   1.00
C398   C     0.95427   0.71501   0.15325   0.00000  Uiso   1.00
C399   C     0.95067   0.77188   0.22156   0.00000  Uiso   1.00
C400   C     0.55025   0.70461   0.19753   0.00000  Uiso   1.00
C401   C     0.59152   0.78997   0.17654   0.00000  Uiso   1.00
C402   C     0.90811   0.71775   0.14574   0.00000  Uiso   1.00
C403   C     0.90466   0.77444   0.21274   0.00000  Uiso   1.00
C404   C     0.59570   0.70633   0.18898   0.00000  Uiso   1.00
H405   H     0.60757   0.82315   0.17085   0.00000  Uiso   1.00
H406   H     0.89133   0.69626   0.11731   0.00000  Uiso   1.00
H407   H     0.88510   0.79601   0.23669   0.00000  Uiso   1.00
H408   H     0.61470   0.67421   0.19156   0.00000  Uiso   1.00
C409   C     0.61621   0.74872   0.17727   0.00000  Uiso   1.00
C410   C     0.88385   0.74864   0.17423   0.00000  Uiso   1.00
C411   C     0.52462   0.74567   0.19188   0.00000  Uiso   1.00
C412   C     0.97587   0.74285   0.19057   0.00000  Uiso   1.00
C413   C     0.72264   0.60185   0.13347   0.00000  Uiso   1.00
C414   C     0.78849   0.89878   0.17894   0.00000  Uiso   1.00
C415   C     0.77773   0.60235   0.19972   0.00000  Uiso   1.00
C416   C     0.71171   0.89873   0.15350   0.00000  Uiso   1.00
C417   C     0.69251   0.62658   0.09771   0.00000  Uiso   1.00
O418   O     0.70515   0.63562   0.05601   0.00000  Uiso   1.00
O419   O     0.64840   0.63596   0.11013   0.00000  Uiso   1.00
H420   H     0.63058   0.65202   0.08211   0.00000  Uiso   1.00
C421   C     0.82737   0.87694   0.20493   0.00000  Uiso   1.00
O422   O     0.82177   0.85377   0.24238   0.00000  Uiso   1.00
O423   O     0.87074   0.88585   0.18921   0.00000  Uiso   1.00
H424   H     0.89501   0.87343   0.21315   0.00000  Uiso   1.00
C425   C     0.80937   0.62757   0.23367   0.00000  Uiso   1.00
O426   O     0.79847   0.63751   0.27583   0.00000  Uiso   1.00
O427   O     0.85298   0.63647   0.21889   0.00000  Uiso   1.00
H428   H     0.87202   0.65312   0.24566   0.00000  Uiso   1.00
C429   C     0.67440   0.87777   0.12276   0.00000  Uiso   1.00
O430   O     0.68247   0.84879   0.09097   0.00000  Uiso   1.00
O431   O     0.63058   0.89452   0.12606   0.00000  Uiso   1.00
H432   H     0.60904   0.88010   0.10013   0.00000  Uiso   1.00
O433   O     0.52181   0.83018   0.18113   0.00000  Uiso   1.00
C434   C     0.50916   0.84107   0.13127   0.00000  Uiso   1.00
H435   H     0.98336   0.81597   0.11653   0.00000  Uiso   1.00
H436   H     0.53856   0.84084   0.10698   0.00000  Uiso   1.00
C437   C     0.98888   0.88970   0.12941   0.00000  Uiso   1.00
H438   H     0.51408   0.91577   0.14335   0.00000  Uiso   1.00
H439   H     0.97827   0.89855   0.09038   0.00000  Uiso   1.00
H440   H     0.95912   0.89112   0.15294   0.00000  Uiso   1.00
O441   O     0.97841   0.68443   0.12480   0.00000  Uiso   1.00
C442   C     0.98437   0.70356   0.07704   0.00000  Uiso   1.00
H443   H     0.98512   0.74242   0.07695   0.00000  Uiso   1.00
H444   H     0.95675   0.69150   0.05096   0.00000  Uiso   1.00
C445   C     0.52897   0.68664   0.05827   0.00000  Uiso   1.00
H446   H     0.52899   0.64798   0.05544   0.00000  Uiso   1.00
H447   H     0.53468   0.70172   0.02107   0.00000  Uiso   1.00
H448   H     0.55681   0.69801   0.08433   0.00000  Uiso   1.00
O449   O     0.97046   0.80324   0.25515   0.00000  Uiso   1.00
C450   C     0.98825   0.77942   0.29737   0.00000  Uiso   1.00
H451   H     0.51537   0.75521   0.28731   0.00000  Uiso   1.00
H452   H     0.96143   0.75985   0.31623   0.00000  Uiso   1.00
C453   C     0.50908   0.81490   0.00033   0.00000  Uiso   1.00
H454   H     0.98249   0.83713   0.01573   0.00000  Uiso   1.00
H455   H     0.52746   0.79655   0.03126   0.00000  Uiso   1.00
H456   H     0.53333   0.83734   0.31431   0.00000  Uiso   1.00
O457   O     0.53052   0.66157   0.20501   0.00000  Uiso   1.00
C458   C     0.52637   0.65444   0.25661   0.00000  Uiso   1.00
H459   H     0.99940   0.67699   0.27079   0.00000  Uiso   1.00
H460   H     0.55865   0.66140   0.27794   0.00000  Uiso   1.00
C461   C     0.51324   0.60391   0.26546   0.00000  Uiso   1.00
H462   H     0.53960   0.58023   0.25193   0.00000  Uiso   1.00
H463   H     0.50949   0.59790   0.30599   0.00000  Uiso   1.00
H464   H     0.98082   0.59589   0.24527   0.00000  Uiso   1.00
O465   O     0.69335   0.53010   0.09869   0.00000  Uiso   1.00
C466   C     0.71665   0.51425   0.05731   0.00000  Uiso   1.00
H467   H     0.74300   0.98864   0.06876   0.00000  Uiso   1.00
H468   H     0.73222   0.54403   0.03779   0.00000  Uiso   1.00
C469   C     0.68352   0.98984   0.02124   0.00000  Uiso   1.00
H470   H     0.65842   0.51522   0.00601   0.00000  Uiso   1.00
H471   H     0.70154   0.97423   0.32332   0.00000  Uiso   1.00
H472   H     0.66585   0.96150   0.04083   0.00000  Uiso   1.00
O473   O     0.83168   0.96988   0.17198   0.00000  Uiso   1.00
C474   C     0.84351   0.97820   0.12233   0.00000  Uiso   1.00
H475   H     0.81991   0.50335   0.10368   0.00000  Uiso   1.00
H476   H     0.84378   0.94511   0.10039   0.00000  Uiso   1.00
C477   C     0.89037   0.99933   0.12267   0.00000  Uiso   1.00
H478   H     0.91499   0.97491   0.14062   0.00000  Uiso   1.00
H479   H     0.90007   0.50609   0.08378   0.00000  Uiso   1.00
H480   H     0.89102   0.53280   0.14368   0.00000  Uiso   1.00
O481   O     0.80727   0.53113   0.23487   0.00000  Uiso   1.00
C482   C     0.78443   0.51599   0.27686   0.00000  Uiso   1.00
H483   H     0.75771   0.99037   0.26612   0.00000  Uiso   1.00
H484   H     0.76945   0.54614   0.29629   0.00000  Uiso   1.00
C485   C     0.81782   0.99190   0.31265   0.00000  Uiso   1.00
H486   H     0.84358   0.51727   0.32682   0.00000  Uiso   1.00
H487   H     0.80018   0.97718   0.01132   0.00000  Uiso   1.00
H488   H     0.83465   0.96295   0.29318   0.00000  Uiso   1.00
O489   O     0.66868   0.96975   0.16254   0.00000  Uiso   1.00
C490   C     0.65676   0.97684   0.21237   0.00000  Uiso   1.00
H491   H     0.68080   0.50103   0.23210   0.00000  Uiso   1.00
H492   H     0.65562   0.94312   0.23299   0.00000  Uiso   1.00
C493   C     0.61037   0.99882   0.21254   0.00000  Uiso   1.00
H494   H     0.58529   0.97538   0.19354   0.00000  Uiso   1.00
H495   H     0.60062   0.50465   0.25160   0.00000  Uiso   1.00
H496   H     0.61060   0.53289   0.19282   0.00000  Uiso   1.00
O497   O     0.18453   0.28974   0.50000   0.00000  Uiso   1.00
O498   O     0.31547   0.21026   0.50000   0.00000  Uiso   1.00
O499   O     0.31547   0.28974   0.50000   0.00000  Uiso   1.00
O500   O     0.18453   0.21026   0.50000   0.00000  Uiso   1.00
C501   C     0.16387   0.24980   0.50199   0.00000  Uiso   1.00
C502   C     0.33600   0.24988   0.50091   0.00000  Uiso   1.00
O503   O     0.25000   0.28973   0.42845   0.00000  Uiso   1.00
O504   O     0.25000   0.21027   0.57155   0.00000  Uiso   1.00
O505   O     0.25000   0.28973   0.57155   0.00000  Uiso   1.00
O506   O     0.25000   0.21027   0.42845   0.00000  Uiso   1.00
C507   C     0.22290   0.05246   0.46541   0.00000  Uiso   1.00
C508   C     0.29039   0.44767   0.50446   0.00000  Uiso   1.00
C509   C     0.27741   0.05298   0.53499   0.00000  Uiso   1.00
C510   C     0.20981   0.44751   0.49616   0.00000  Uiso   1.00
C511   C     0.24987   0.24997   0.40628   0.00000  Uiso   1.00
C512   C     0.25017   0.25002   0.59373   0.00000  Uiso   1.00
Zn513  Zn    0.25000   0.30307   0.50000   0.00000  Uiso   1.00
Zn514  Zn    0.25000   0.19693   0.50000   0.00000  Uiso   1.00
N515   N     0.25000   0.12624   0.50000   0.00000  Uiso   1.00
N516   N     0.25000   0.37377   0.50000   0.00000  Uiso   1.00
C517   C     0.25007   0.02684   0.50042   0.00000  Uiso   1.00
C518   C     0.25011   0.47356   0.50056   0.00000  Uiso   1.00
C519   C     0.24997   0.24996   0.35512   0.00000  Uiso   1.00
C520   C     0.25008   0.25003   0.64488   0.00000  Uiso   1.00
C521   C     0.04554   0.28874   0.51557   0.00000  Uiso   1.00
C522   C     0.45427   0.21501   0.48658   0.00000  Uiso   1.00
C523   C     0.45067   0.27188   0.55490   0.00000  Uiso   1.00
C524   C     0.05025   0.20461   0.53086   0.00000  Uiso   1.00
C525   C     0.09152   0.28997   0.50988   0.00000  Uiso   1.00
C526   C     0.40811   0.21775   0.47908   0.00000  Uiso   1.00
C527   C     0.40466   0.27444   0.54608   0.00000  Uiso   1.00
C528   C     0.09570   0.20633   0.52232   0.00000  Uiso   1.00
H529   H     0.10757   0.32315   0.50418   0.00000  Uiso   1.00
H530   H     0.39133   0.19626   0.45064   0.00000  Uiso   1.00
H531   H     0.38510   0.29601   0.57003   0.00000  Uiso   1.00
H532   H     0.11470   0.17421   0.52489   0.00000  Uiso   1.00
C533   C     0.11621   0.24872   0.51060   0.00000  Uiso   1.00
C534   C     0.38385   0.24864   0.50756   0.00000  Uiso   1.00
C535   C     0.02462   0.24567   0.52521   0.00000  Uiso   1.00
C536   C     0.47587   0.24285   0.52390   0.00000  Uiso   1.00
C537   C     0.22264   0.10185   0.46681   0.00000  Uiso   1.00
C538   C     0.28849   0.39878   0.51228   0.00000  Uiso   1.00
C539   C     0.27773   0.10235   0.53305   0.00000  Uiso   1.00
C540   C     0.21171   0.39873   0.48683   0.00000  Uiso   1.00
C541   C     0.19251   0.12658   0.43105   0.00000  Uiso   1.00
O542   O     0.20515   0.13562   0.38935   0.00000  Uiso   1.00
O543   O     0.14840   0.13596   0.44347   0.00000  Uiso   1.00
H544   H     0.13058   0.15202   0.41544   0.00000  Uiso   1.00
C545   C     0.32737   0.37694   0.53826   0.00000  Uiso   1.00
O546   O     0.32177   0.35377   0.57572   0.00000  Uiso   1.00
O547   O     0.37074   0.38585   0.52254   0.00000  Uiso   1.00
H548   H     0.39501   0.37343   0.54648   0.00000  Uiso   1.00
C549   C     0.30937   0.12757   0.56701   0.00000  Uiso   1.00
O550   O     0.29847   0.13751   0.60917   0.00000  Uiso   1.00
O551   O     0.35298   0.13647   0.55222   0.00000  Uiso   1.00
H552   H     0.37202   0.15312   0.57900   0.00000  Uiso   1.00
C553   C     0.17440   0.37777   0.45609   0.00000  Uiso   1.00
O554   O     0.18247   0.34879   0.42431   0.00000  Uiso   1.00
O555   O     0.13058   0.39452   0.45939   0.00000  Uiso   1.00
H556   H     0.10904   0.38010   0.43346   0.00000  Uiso   1.00
O557   O     0.02181   0.33018   0.51446   0.00000  Uiso   1.00
C558   C     0.00916   0.34107   0.46460   0.00000  Uiso   1.00
H559   H     0.48336   0.31597   0.44986   0.00000  Uiso   1.00
H560   H     0.03856   0.34084   0.44031   0.00000  Uiso   1.00
C561   C     0.48888   0.38970   0.46274   0.00000  Uiso   1.00
H562   H     0.01408   0.41577   0.47668   0.00000  Uiso   1.00
H563   H     0.47827   0.39855   0.42371   0.00000  Uiso   1.00
H564   H     0.45912   0.39112   0.48628   0.00000  Uiso   1.00
O565   O     0.47841   0.18443   0.45813   0.00000  Uiso   1.00
C566   C     0.48437   0.20356   0.41037   0.00000  Uiso   1.00
H567   H     0.48512   0.24242   0.41029   0.00000  Uiso   1.00
H568   H     0.45675   0.19150   0.38430   0.00000  Uiso   1.00
C569   C     0.02897   0.18664   0.39161   0.00000  Uiso   1.00
H570   H     0.02899   0.14798   0.38878   0.00000  Uiso   1.00
H571   H     0.03468   0.20172   0.35440   0.00000  Uiso   1.00
H572   H     0.05681   0.19801   0.41766   0.00000  Uiso   1.00
O573   O     0.47046   0.30324   0.58848   0.00000  Uiso   1.00
C574   C     0.48825   0.27942   0.63071   0.00000  Uiso   1.00
H575   H     0.01537   0.25521   0.62064   0.00000  Uiso   1.00
H576   H     0.46143   0.25985   0.64957   0.00000  Uiso   1.00
C577   C     0.00908   0.31490   0.33366   0.00000  Uiso   1.00
H578   H     0.48249   0.33713   0.34906   0.00000  Uiso   1.00
H579   H     0.02746   0.29655   0.36459   0.00000  Uiso   1.00
H580   H     0.03333   0.33734   0.64764   0.00000  Uiso   1.00
O581   O     0.03052   0.16157   0.53834   0.00000  Uiso   1.00
C582   C     0.02637   0.15444   0.58995   0.00000  Uiso   1.00
H583   H     0.49940   0.17699   0.60412   0.00000  Uiso   1.00
H584   H     0.05865   0.16140   0.61127   0.00000  Uiso   1.00
C585   C     0.01324   0.10391   0.59879   0.00000  Uiso   1.00
H586   H     0.03960   0.08023   0.58527   0.00000  Uiso   1.00
H587   H     0.00949   0.09790   0.63932   0.00000  Uiso   1.00
H588   H     0.48082   0.09589   0.57861   0.00000  Uiso   1.00
O589   O     0.19335   0.03010   0.43203   0.00000  Uiso   1.00
C590   C     0.21665   0.01425   0.39064   0.00000  Uiso   1.00
H591   H     0.24300   0.48864   0.40209   0.00000  Uiso   1.00
H592   H     0.23222   0.04403   0.37113   0.00000  Uiso   1.00
C593   C     0.18352   0.48984   0.35458   0.00000  Uiso   1.00
H594   H     0.15842   0.01522   0.33934   0.00000  Uiso   1.00
H595   H     0.20154   0.47423   0.65665   0.00000  Uiso   1.00
H596   H     0.16585   0.46150   0.37416   0.00000  Uiso   1.00
O597   O     0.33168   0.46988   0.50531   0.00000  Uiso   1.00
C598   C     0.34351   0.47820   0.45566   0.00000  Uiso   1.00
H599   H     0.31991   0.00335   0.43701   0.00000  Uiso   1.00
H600   H     0.34378   0.44511   0.43372   0.00000  Uiso   1.00
C601   C     0.39037   0.49933   0.45600   0.00000  Uiso   1.00
H602   H     0.41499   0.47491   0.47395   0.00000  Uiso   1.00
H603   H     0.40007   0.00609   0.41711   0.00000  Uiso   1.00
H604   H     0.39102   0.03280   0.47701   0.00000  Uiso   1.00
O605   O     0.30727   0.03113   0.56820   0.00000  Uiso   1.00
C606   C     0.28443   0.01599   0.61019   0.00000  Uiso   1.00
H607   H     0.25771   0.49037   0.59945   0.00000  Uiso   1.00
H608   H     0.26945   0.04614   0.62962   0.00000  Uiso   1.00
C609   C     0.31782   0.49190   0.64598   0.00000  Uiso   1.00
H610   H     0.34358   0.01727   0.66015   0.00000  Uiso   1.00
H611   H     0.30018   0.47718   0.34465   0.00000  Uiso   1.00
H612   H     0.33465   0.46295   0.62651   0.00000  Uiso   1.00
O613   O     0.16868   0.46975   0.49587   0.00000  Uiso   1.00
C614   C     0.15676   0.47684   0.54570   0.00000  Uiso   1.00
H615   H     0.18080   0.00103   0.56544   0.00000  Uiso   1.00
H616   H     0.15562   0.44312   0.56632   0.00000  Uiso   1.00
C617   C     0.11037   0.49882   0.54587   0.00000  Uiso   1.00
H618   H     0.08529   0.47538   0.52687   0.00000  Uiso   1.00
H619   H     0.10062   0.00465   0.58493   0.00000  Uiso   1.00
H620   H     0.11060   0.03289   0.52615   0.00000  Uiso   1.00
O621   O     0.68453   0.28974   0.50000   0.00000  Uiso   1.00
O622   O     0.81547   0.21026   0.50000   0.00000  Uiso   1.00
O623   O     0.81547   0.28974   0.50000   0.00000  Uiso   1.00
O624   O     0.68453   0.21026   0.50000   0.00000  Uiso   1.00
C625   C     0.66387   0.24980   0.50199   0.00000  Uiso   1.00
C626   C     0.83600   0.24988   0.50091   0.00000  Uiso   1.00
O627   O     0.75000   0.28973   0.42845   0.00000  Uiso   1.00
O628   O     0.75000   0.21027   0.57155   0.00000  Uiso   1.00
O629   O     0.75000   0.28973   0.57155   0.00000  Uiso   1.00
O630   O     0.75000   0.21027   0.42845   0.00000  Uiso   1.00
C631   C     0.72290   0.05246   0.46541   0.00000  Uiso   1.00
C632   C     0.79039   0.44767   0.50446   0.00000  Uiso   1.00
C633   C     0.77741   0.05298   0.53499   0.00000  Uiso   1.00
C634   C     0.70981   0.44751   0.49616   0.00000  Uiso   1.00
C635   C     0.74987   0.24997   0.40628   0.00000  Uiso   1.00
C636   C     0.75017   0.25002   0.59373   0.00000  Uiso   1.00
Zn637  Zn    0.75000   0.30307   0.50000   0.00000  Uiso   1.00
Zn638  Zn    0.75000   0.19693   0.50000   0.00000  Uiso   1.00
N639   N     0.75000   0.12624   0.50000   0.00000  Uiso   1.00
N640   N     0.75000   0.37377   0.50000   0.00000  Uiso   1.00
C641   C     0.75007   0.02684   0.50042   0.00000  Uiso   1.00
C642   C     0.75011   0.47356   0.50056   0.00000  Uiso   1.00
C643   C     0.74997   0.24996   0.35512   0.00000  Uiso   1.00
C644   C     0.75008   0.25003   0.64488   0.00000  Uiso   1.00
C645   C     0.54554   0.28874   0.51557   0.00000  Uiso   1.00
C646   C     0.95427   0.21501   0.48658   0.00000  Uiso   1.00
C647   C     0.95067   0.27188   0.55490   0.00000  Uiso   1.00
C648   C     0.55025   0.20461   0.53086   0.00000  Uiso   1.00
C649   C     0.59152   0.28997   0.50988   0.00000  Uiso   1.00
C650   C     0.90811   0.21775   0.47908   0.00000  Uiso   1.00
C651   C     0.90466   0.27444   0.54608   0.00000  Uiso   1.00
C652   C     0.59570   0.20633   0.52232   0.00000  Uiso   1.00
H653   H     0.60757   0.32315   0.50418   0.00000  Uiso   1.00
H654   H     0.89133   0.19626   0.45064   0.00000  Uiso   1.00
H655   H     0.88510   0.29601   0.57003   0.00000  Uiso   1.00
H656   H     0.61470   0.17421   0.52489   0.00000  Uiso   1.00
C657   C     0.61621   0.24872   0.51060   0.00000  Uiso   1.00
C658   C     0.88385   0.24864   0.50756   0.00000  Uiso   1.00
C659   C     0.52462   0.24567   0.52521   0.00000  Uiso   1.00
C660   C     0.97587   0.24285   0.52390   0.00000  Uiso   1.00
C661   C     0.72264   0.10185   0.46681   0.00000  Uiso   1.00
C662   C     0.78849   0.39878   0.51228   0.00000  Uiso   1.00
C663   C     0.77773   0.10235   0.53305   0.00000  Uiso   1.00
C664   C     0.71171   0.39873   0.48683   0.00000  Uiso   1.00
C665   C     0.69251   0.12658   0.43105   0.00000  Uiso   1.00
O666   O     0.70515   0.13562   0.38935   0.00000  Uiso   1.00
O667   O     0.64840   0.13596   0.44347   0.00000  Uiso   1.00
H668   H     0.63058   0.15202   0.41544   0.00000  Uiso   1.00
C669   C     0.82737   0.37694   0.53826   0.00000  Uiso   1.00
O670   O     0.82177   0.35377   0.57572   0.00000  Uiso   1.00
O671   O     0.87074   0.38585   0.52254   0.00000  Uiso   1.00
H672   H     0.89501   0.37343   0.54648   0.00000  Uiso   1.00
C673   C     0.80937   0.12757   0.56701   0.00000  Uiso   1.00
O674   O     0.79847   0.13751   0.60917   0.00000  Uiso   1.00
O675   O     0.85298   0.13647   0.55222   0.00000  Uiso   1.00
H676   H     0.87202   0.15312   0.57900   0.00000  Uiso   1.00
C677   C     0.67440   0.37777   0.45609   0.00000  Uiso   1.00
O678   O     0.68247   0.34879   0.42431   0.00000  Uiso   1.00
O679   O     0.63058   0.39452   0.45939   0.00000  Uiso   1.00
H680   H     0.60904   0.38010   0.43346   0.00000  Uiso   1.00
O681   O     0.52181   0.33018   0.51446   0.00000  Uiso   1.00
C682   C     0.50916   0.34107   0.46460   0.00000  Uiso   1.00
H683   H     0.98336   0.31597   0.44986   0.00000  Uiso   1.00
H684   H     0.53856   0.34084   0.44031   0.00000  Uiso   1.00
C685   C     0.98888   0.38970   0.46274   0.00000  Uiso   1.00
H686   H     0.51408   0.41577   0.47668   0.00000  Uiso   1.00
H687   H     0.97827   0.39855   0.42371   0.00000  Uiso   1.00
H688   H     0.95912   0.39112   0.48628   0.00000  Uiso   1.00
O689   O     0.97841   0.18443   0.45813   0.00000  Uiso   1.00
C690   C     0.98437   0.20356   0.41037   0.00000  Uiso   1.00
H691   H     0.98512   0.24242   0.41029   0.00000  Uiso   1.00
H692   H     0.95675   0.19150   0.38430   0.00000  Uiso   1.00
C693   C     0.52897   0.18664   0.39161   0.00000  Uiso   1.00
H694   H     0.52899   0.14798   0.38878   0.00000  Uiso   1.00
H695   H     0.53468   0.20172   0.35440   0.00000  Uiso   1.00
H696   H     0.55681   0.19801   0.41766   0.00000  Uiso   1.00
O697   O     0.97046   0.30324   0.58848   0.00000  Uiso   1.00
C698   C     0.98825   0.27942   0.63071   0.00000  Uiso   1.00
H699   H     0.51537   0.25521   0.62064   0.00000  Uiso   1.00
H700   H     0.96143   0.25985   0.64957   0.00000  Uiso   1.00
C701   C     0.50908   0.31490   0.33366   0.00000  Uiso   1.00
H702   H     0.98249   0.33713   0.34906   0.00000  Uiso   1.00
H703   H     0.52746   0.29655   0.36459   0.00000  Uiso   1.00
H704   H     0.53333   0.33734   0.64764   0.00000  Uiso   1.00
O705   O     0.53052   0.16157   0.53834   0.00000  Uiso   1.00
C706   C     0.52637   0.15444   0.58995   0.00000  Uiso   1.00
H707   H     0.99940   0.17699   0.60412   0.00000  Uiso   1.00
H708   H     0.55865   0.16140   0.61127   0.00000  Uiso   1.00
C709   C     0.51324   0.10391   0.59879   0.00000  Uiso   1.00
H710   H     0.53960   0.08023   0.58527   0.00000  Uiso   1.00
H711   H     0.50949   0.09790   0.63932   0.00000  Uiso   1.00
H712   H     0.98082   0.09589   0.57861   0.00000  Uiso   1.00
O713   O     0.69335   0.03010   0.43203   0.00000  Uiso   1.00
C714   C     0.71665   0.01425   0.39064   0.00000  Uiso   1.00
H715   H     0.74300   0.48864   0.40209   0.00000  Uiso   1.00
H716   H     0.73222   0.04403   0.37113   0.00000  Uiso   1.00
C717   C     0.68352   0.48984   0.35458   0.00000  Uiso   1.00
H718   H     0.65842   0.01522   0.33934   0.00000  Uiso   1.00
H719   H     0.70154   0.47423   0.65665   0.00000  Uiso   1.00
H720   H     0.66585   0.46150   0.37416   0.00000  Uiso   1.00
O721   O     0.83168   0.46988   0.50531   0.00000  Uiso   1.00
C722   C     0.84351   0.47820   0.45566   0.00000  Uiso   1.00
H723   H     0.81991   0.00335   0.43701   0.00000  Uiso   1.00
H724   H     0.84378   0.44511   0.43372   0.00000  Uiso   1.00
C725   C     0.89037   0.49933   0.45600   0.00000  Uiso   1.00
H726   H     0.91499   0.47491   0.47395   0.00000  Uiso   1.00
H727   H     0.90007   0.00609   0.41711   0.00000  Uiso   1.00
H728   H     0.89102   0.03280   0.47701   0.00000  Uiso   1.00
O729   O     0.80727   0.03113   0.56820   0.00000  Uiso   1.00
C730   C     0.78443   0.01599   0.61019   0.00000  Uiso   1.00
H731   H     0.75771   0.49037   0.59945   0.00000  Uiso   1.00
H732   H     0.76945   0.04614   0.62962   0.00000  Uiso   1.00
C733   C     0.81782   0.49190   0.64598   0.00000  Uiso   1.00
H734   H     0.84358   0.01727   0.66015   0.00000  Uiso   1.00
H735   H     0.80018   0.47718   0.34465   0.00000  Uiso   1.00
H736   H     0.83465   0.46295   0.62651   0.00000  Uiso   1.00
O737   O     0.66868   0.46975   0.49587   0.00000  Uiso   1.00
C738   C     0.65676   0.47684   0.54570   0.00000  Uiso   1.00
H739   H     0.68080   0.00103   0.56544   0.00000  Uiso   1.00
H740   H     0.65562   0.44312   0.56632   0.00000  Uiso   1.00
C741   C     0.61037   0.49882   0.54587   0.00000  Uiso   1.00
H742   H     0.58529   0.47538   0.52687   0.00000  Uiso   1.00
H743   H     0.60062   0.00465   0.58493   0.00000  Uiso   1.00
H744   H     0.61060   0.03289   0.52615   0.00000  Uiso   1.00
O745   O     0.18453   0.78974   0.50000   0.00000  Uiso   1.00
O746   O     0.31547   0.71026   0.50000   0.00000  Uiso   1.00
O747   O     0.31547   0.78974   0.50000   0.00000  Uiso   1.00
O748   O     0.18453   0.71026   0.50000   0.00000  Uiso   1.00
C749   C     0.16387   0.74980   0.50199   0.00000  Uiso   1.00
C750   C     0.33600   0.74988   0.50091   0.00000  Uiso   1.00
O751   O     0.25000   0.78973   0.42845   0.00000  Uiso   1.00
O752   O     0.25000   0.71027   0.57155   0.00000  Uiso   1.00
O753   O     0.25000   0.78973   0.57155   0.00000  Uiso   1.00
O754   O     0.25000   0.71027   0.42845   0.00000  Uiso   1.00
C755   C     0.22290   0.55246   0.46541   0.00000  Uiso   1.00
C756   C     0.29039   0.94767   0.50446   0.00000  Uiso   1.00
C757   C     0.27741   0.55298   0.53499   0.00000  Uiso   1.00
C758   C     0.20981   0.94751   0.49616   0.00000  Uiso   1.00
C759   C     0.24987   0.74997   0.40628   0.00000  Uiso   1.00
C760   C     0.25017   0.75002   0.59373   0.00000  Uiso   1.00
Zn761  Zn    0.25000   0.80307   0.50000   0.00000  Uiso   1.00
Zn762  Zn    0.25000   0.69693   0.50000   0.00000  Uiso   1.00
N763   N     0.25000   0.62624   0.50000   0.00000  Uiso   1.00
N764   N     0.25000   0.87377   0.50000   0.00000  Uiso   1.00
C765   C     0.25007   0.52684   0.50042   0.00000  Uiso   1.00
C766   C     0.25011   0.97356   0.50056   0.00000  Uiso   1.00
C767   C     0.24997   0.74996   0.35512   0.00000  Uiso   1.00
C768   C     0.25008   0.75003   0.64488   0.00000  Uiso   1.00
C769   C     0.04554   0.78874   0.51557   0.00000  Uiso   1.00
C770   C     0.45427   0.71501   0.48658   0.00000  Uiso   1.00
C771   C     0.45067   0.77188   0.55490   0.00000  Uiso   1.00
C772   C     0.05025   0.70461   0.53086   0.00000  Uiso   1.00
C773   C     0.09152   0.78997   0.50988   0.00000  Uiso   1.00
C774   C     0.40811   0.71775   0.47908   0.00000  Uiso   1.00
C775   C     0.40466   0.77444   0.54608   0.00000  Uiso   1.00
C776   C     0.09570   0.70633   0.52232   0.00000  Uiso   1.00
H777   H     0.10757   0.82315   0.50418   0.00000  Uiso   1.00
H778   H     0.39133   0.69626   0.45064   0.00000  Uiso   1.00
H779   H     0.38510   0.79601   0.57003   0.00000  Uiso   1.00
H780   H     0.11470   0.67421   0.52489   0.00000  Uiso   1.00
C781   C     0.11621   0.74872   0.51060   0.00000  Uiso   1.00
C782   C     0.38385   0.74864   0.50756   0.00000  Uiso   1.00
C783   C     0.02462   0.74567   0.52521   0.00000  Uiso   1.00
C784   C     0.47587   0.74285   0.52390   0.00000  Uiso   1.00
C785   C     0.22264   0.60185   0.46681   0.00000  Uiso   1.00
C786   C     0.28849   0.89878   0.51228   0.00000  Uiso   1.00
C787   C     0.27773   0.60235   0.53305   0.00000  Uiso   1.00
C788   C     0.21171   0.89873   0.48683   0.00000  Uiso   1.00
C789   C     0.19251   0.62658   0.43105   0.00000  Uiso   1.00
O790   O     0.20515   0.63562   0.38935   0.00000  Uiso   1.00
O791   O     0.14840   0.63596   0.44347   0.00000  Uiso   1.00
H792   H     0.13058   0.65202   0.41544   0.00000  Uiso   1.00
C793   C     0.32737   0.87694   0.53826   0.00000  Uiso   1.00
O794   O     0.32177   0.85377   0.57572   0.00000  Uiso   1.00
O795   O     0.37074   0.88585   0.52254   0.00000  Uiso   1.00
H796   H     0.39501   0.87343   0.54648   0.00000  Uiso   1.00
C797   C     0.30937   0.62757   0.56701   0.00000  Uiso   1.00
O798   O     0.29847   0.63751   0.60917   0.00000  Uiso   1.00
O799   O     0.35298   0.63647   0.55222   0.00000  Uiso   1.00
H800   H     0.37202   0.65312   0.57900   0.00000  Uiso   1.00
C801   C     0.17440   0.87777   0.45609   0.00000  Uiso   1.00
O802   O     0.18247   0.84879   0.42431   0.00000  Uiso   1.00
O803   O     0.13058   0.89452   0.45939   0.00000  Uiso   1.00
H804   H     0.10904   0.88010   0.43346   0.00000  Uiso   1.00
O805   O     0.02181   0.83018   0.51446   0.00000  Uiso   1.00
C806   C     0.00916   0.84107   0.46460   0.00000  Uiso   1.00
H807   H     0.48336   0.81597   0.44986   0.00000  Uiso   1.00
H808   H     0.03856   0.84084   0.44031   0.00000  Uiso   1.00
C809   C     0.48888   0.88970   0.46274   0.00000  Uiso   1.00
H810   H     0.01408   0.91577   0.47668   0.00000  Uiso   1.00
H811   H     0.47827   0.89855   0.42371   0.00000  Uiso   1.00
H812   H     0.45912   0.89112   0.48628   0.00000  Uiso   1.00
O813   O     0.47841   0.68443   0.45813   0.00000  Uiso   1.00
C814   C     0.48437   0.70356   0.41037   0.00000  Uiso   1.00
H815   H     0.48512   0.74242   0.41029   0.00000  Uiso   1.00
H816   H     0.45675   0.69150   0.38430   0.00000  Uiso   1.00
C817   C     0.02897   0.68664   0.39161   0.00000  Uiso   1.00
H818   H     0.02899   0.64798   0.38878   0.00000  Uiso   1.00
H819   H     0.03468   0.70172   0.35440   0.00000  Uiso   1.00
H820   H     0.05681   0.69801   0.41766   0.00000  Uiso   1.00
O821   O     0.47046   0.80324   0.58848   0.00000  Uiso   1.00
C822   C     0.48825   0.77942   0.63071   0.00000  Uiso   1.00
H823   H     0.01537   0.75521   0.62064   0.00000  Uiso   1.00
H824   H     0.46143   0.75985   0.64957   0.00000  Uiso   1.00
C825   C     0.00908   0.81490   0.33366   0.00000  Uiso   1.00
H826   H     0.48249   0.83713   0.34906   0.00000  Uiso   1.00
H827   H     0.02746   0.79655   0.36459   0.00000  Uiso   1.00
H828   H     0.03333   0.83734   0.64764   0.00000  Uiso   1.00
O829   O     0.03052   0.66157   0.53834   0.00000  Uiso   1.00
C830   C     0.02637   0.65444   0.58995   0.00000  Uiso   1.00
H831   H     0.49940   0.67699   0.60412   0.00000  Uiso   1.00
H832   H     0.05865   0.66140   0.61127   0.00000  Uiso   1.00
C833   C     0.01324   0.60391   0.59879   0.00000  Uiso   1.00
H834   H     0.03960   0.58023   0.58527   0.00000  Uiso   1.00
H835   H     0.00949   0.59790   0.63932   0.00000  Uiso   1.00
H836   H     0.48082   0.59589   0.57861   0.00000  Uiso   1.00
O837   O     0.19335   0.53010   0.43203   0.00000  Uiso   1.00
C838   C     0.21665   0.51425   0.39064   0.00000  Uiso   1.00
H839   H     0.24300   0.98864   0.40209   0.00000  Uiso   1.00
H840   H     0.23222   0.54403   0.37113   0.00000  Uiso   1.00
C841   C     0.18352   0.98984   0.35458   0.00000  Uiso   1.00
H842   H     0.15842   0.51522   0.33934   0.00000  Uiso   1.00
H843   H     0.20154   0.97423   0.65665   0.00000  Uiso   1.00
H844   H     0.16585   0.96150   0.37416   0.00000  Uiso   1.00
O845   O     0.33168   0.96988   0.50531   0.00000  Uiso   1.00
C846   C     0.34351   0.97820   0.45566   0.00000  Uiso   1.00
H847   H     0.31991   0.50335   0.43701   0.00000  Uiso   1.00
H848   H     0.34378   0.94511   0.43372   0.00000  Uiso   1.00
C849   C     0.39037   0.99933   0.45600   0.00000  Uiso   1.00
H850   H     0.41499   0.97491   0.47395   0.00000  Uiso   1.00
H851   H     0.40007   0.50609   0.41711   0.00000  Uiso   1.00
H852   H     0.39102   0.53280   0.47701   0.00000  Uiso   1.00
O853   O     0.30727   0.53113   0.56820   0.00000  Uiso   1.00
C854   C     0.28443   0.51599   0.61019   0.00000  Uiso   1.00
H855   H     0.25771   0.99037   0.59945   0.00000  Uiso   1.00
H856   H     0.26945   0.54614   0.62962   0.00000  Uiso   1.00
C857   C     0.31782   0.99190   0.64598   0.00000  Uiso   1.00
H858   H     0.34358   0.51727   0.66015   0.00000  Uiso   1.00
H859   H     0.30018   0.97718   0.34465   0.00000  Uiso   1.00
H860   H     0.33465   0.96295   0.62651   0.00000  Uiso   1.00
O861   O     0.16868   0.96975   0.49587   0.00000  Uiso   1.00
C862   C     0.15676   0.97684   0.54570   0.00000  Uiso   1.00
H863   H     0.18080   0.50103   0.56544   0.00000  Uiso   1.00
H864   H     0.15562   0.94312   0.56632   0.00000  Uiso   1.00
C865   C     0.11037   0.99882   0.54587   0.00000  Uiso   1.00
H866   H     0.08529   0.97538   0.52687   0.00000  Uiso   1.00
H867   H     0.10062   0.50465   0.58493   0.00000  Uiso   1.00
H868   H     0.11060   0.53289   0.52615   0.00000  Uiso   1.00
O869   O     0.68453   0.78974   0.50000   0.00000  Uiso   1.00
O870   O     0.81547   0.71026   0.50000   0.00000  Uiso   1.00
O871   O     0.81547   0.78974   0.50000   0.00000  Uiso   1.00
O872   O     0.68453   0.71026   0.50000   0.00000  Uiso   1.00
C873   C     0.66387   0.74980   0.50199   0.00000  Uiso   1.00
C874   C     0.83600   0.74988   0.50091   0.00000  Uiso   1.00
O875   O     0.75000   0.78973   0.42845   0.00000  Uiso   1.00
O876   O     0.75000   0.71027   0.57155   0.00000  Uiso   1.00
O877   O     0.75000   0.78973   0.57155   0.00000  Uiso   1.00
O878   O     0.75000   0.71027   0.42845   0.00000  Uiso   1.00
C879   C     0.72290   0.55246   0.46541   0.00000  Uiso   1.00
C880   C     0.79039   0.94767   0.50446   0.00000  Uiso   1.00
C881   C     0.77741   0.55298   0.53499   0.00000  Uiso   1.00
C882   C     0.70981   0.94751   0.49616   0.00000  Uiso   1.00
C883   C     0.74987   0.74997   0.40628   0.00000  Uiso   1.00
C884   C     0.75017   0.75002   0.59373   0.00000  Uiso   1.00
Zn885  Zn    0.75000   0.80307   0.50000   0.00000  Uiso   1.00
Zn886  Zn    0.75000   0.69693   0.50000   0.00000  Uiso   1.00
N887   N     0.75000   0.62624   0.50000   0.00000  Uiso   1.00
N888   N     0.75000   0.87377   0.50000   0.00000  Uiso   1.00
C889   C     0.75007   0.52684   0.50042   0.00000  Uiso   1.00
C890   C     0.75011   0.97356   0.50056   0.00000  Uiso   1.00
C891   C     0.74997   0.74996   0.35512   0.00000  Uiso   1.00
C892   C     0.75008   0.75003   0.64488   0.00000  Uiso   1.00
C893   C     0.54554   0.78874   0.51557   0.00000  Uiso   1.00
C894   C     0.95427   0.71501   0.48658   0.00000  Uiso   1.00
C895   C     0.95067   0.77188   0.55490   0.00000  Uiso   1.00
C896   C     0.55025   0.70461   0.53086   0.00000  Uiso   1.00
C897   C     0.59152   0.78997   0.50988   0.00000  Uiso   1.00
C898   C     0.90811   0.71775   0.47908   0.00000  Uiso   1.00
C899   C     0.90466   0.77444   0.54608   0.00000  Uiso   1.00
C900   C     0.59570   0.70633   0.52232   0.00000  Uiso   1.00
H901   H     0.60757   0.82315   0.50418   0.00000  Uiso   1.00
H902   H     0.89133   0.69626   0.45064   0.00000  Uiso   1.00
H903   H     0.88510   0.79601   0.57003   0.00000  Uiso   1.00
H904   H     0.61470   0.67421   0.52489   0.00000  Uiso   1.00
C905   C     0.61621   0.74872   0.51060   0.00000  Uiso   1.00
C906   C     0.88385   0.74864   0.50756   0.00000  Uiso   1.00
C907   C     0.52462   0.74567   0.52521   0.00000  Uiso   1.00
C908   C     0.97587   0.74285   0.52390   0.00000  Uiso   1.00
C909   C     0.72264   0.60185   0.46681   0.00000  Uiso   1.00
C910   C     0.78849   0.89878   0.51228   0.00000  Uiso   1.00
C911   C     0.77773   0.60235   0.53305   0.00000  Uiso   1.00
C912   C     0.71171   0.89873   0.48683   0.00000  Uiso   1.00
C913   C     0.69251   0.62658   0.43105   0.00000  Uiso   1.00
O914   O     0.70515   0.63562   0.38935   0.00000  Uiso   1.00
O915   O     0.64840   0.63596   0.44347   0.00000  Uiso   1.00
H916   H     0.63058   0.65202   0.41544   0.00000  Uiso   1.00
C917   C     0.82737   0.87694   0.53826   0.00000  Uiso   1.00
O918   O     0.82177   0.85377   0.57572   0.00000  Uiso   1.00
O919   O     0.87074   0.88585   0.52254   0.00000  Uiso   1.00
H920   H     0.89501   0.87343   0.54648   0.00000  Uiso   1.00
C921   C     0.80937   0.62757   0.56701   0.00000  Uiso   1.00
O922   O     0.79847   0.63751   0.60917   0.00000  Uiso   1.00
O923   O     0.85298   0.63647   0.55222   0.00000  Uiso   1.00
H924   H     0.87202   0.65312   0.57900   0.00000  Uiso   1.00
C925   C     0.67440   0.87777   0.45609   0.00000  Uiso   1.00
O926   O     0.68247   0.84879   0.42431   0.00000  Uiso   1.00
O927   O     0.63058   0.89452   0.45939   0.00000  Uiso   1.00
H928   H     0.60904   0.88010   0.43346   0.00000  Uiso   1.00
O929   O     0.52181   0.83018   0.51446   0.00000  Uiso   1.00
C930   C     0.50916   0.84107   0.46460   0.00000  Uiso   1.00
H931   H     0.98336   0.81597   0.44986   0.00000  Uiso   1.00
H932   H     0.53856   0.84084   0.44031   0.00000  Uiso   1.00
C933   C     0.98888   0.88970   0.46274   0.00000  Uiso   1.00
H934   H     0.51408   0.91577   0.47668   0.00000  Uiso   1.00
H935   H     0.97827   0.89855   0.42371   0.00000  Uiso   1.00
H936   H     0.95912   0.89112   0.48628   0.00000  Uiso   1.00
O937   O     0.97841   0.68443   0.45813   0.00000  Uiso   1.00
C938   C     0.98437   0.70356   0.41037   0.00000  Uiso   1.00
H939   H     0.98512   0.74242   0.41029   0.00000  Uiso   1.00
H940   H     0.95675   0.69150   0.38430   0.00000  Uiso   1.00
C941   C     0.52897   0.68664   0.39161   0.00000  Uiso   1.00
H942   H     0.52899   0.64798   0.38878   0.00000  Uiso   1.00
H943   H     0.53468   0.70172   0.35440   0.00000  Uiso   1.00
H944   H     0.55681   0.69801   0.41766   0.00000  Uiso   1.00
O945   O     0.97046   0.80324   0.58848   0.00000  Uiso   1.00
C946   C     0.98825   0.77942   0.63071   0.00000  Uiso   1.00
H947   H     0.51537   0.75521   0.62064   0.00000  Uiso   1.00
H948   H     0.96143   0.75985   0.64957   0.00000  Uiso   1.00
C949   C     0.50908   0.81490   0.33366   0.00000  Uiso   1.00
H950   H     0.98249   0.83713   0.34906   0.00000  Uiso   1.00
H951   H     0.52746   0.79655   0.36459   0.00000  Uiso   1.00
H952   H     0.53333   0.83734   0.64764   0.00000  Uiso   1.00
O953   O     0.53052   0.66157   0.53834   0.00000  Uiso   1.00
C954   C     0.52637   0.65444   0.58995   0.00000  Uiso   1.00
H955   H     0.99940   0.67699   0.60412   0.00000  Uiso   1.00
H956   H     0.55865   0.66140   0.61127   0.00000  Uiso   1.00
C957   C     0.51324   0.60391   0.59879   0.00000  Uiso   1.00
H958   H     0.53960   0.58023   0.58527   0.00000  Uiso   1.00
H959   H     0.50949   0.59790   0.63932   0.00000  Uiso   1.00
H960   H     0.98082   0.59589   0.57861   0.00000  Uiso   1.00
O961   O     0.69335   0.53010   0.43203   0.00000  Uiso   1.00
C962   C     0.71665   0.51425   0.39064   0.00000  Uiso   1.00
H963   H     0.74300   0.98864   0.40209   0.00000  Uiso   1.00
H964   H     0.73222   0.54403   0.37113   0.00000  Uiso   1.00
C965   C     0.68352   0.98984   0.35458   0.00000  Uiso   1.00
H966   H     0.65842   0.51522   0.33934   0.00000  Uiso   1.00
H967   H     0.70154   0.97423   0.65665   0.00000  Uiso   1.00
H968   H     0.66585   0.96150   0.37416   0.00000  Uiso   1.00
O969   O     0.83168   0.96988   0.50531   0.00000  Uiso   1.00
C970   C     0.84351   0.97820   0.45566   0.00000  Uiso   1.00
H971   H     0.81991   0.50335   0.43701   0.00000  Uiso   1.00
H972   H     0.84378   0.94511   0.43372   0.00000  Uiso   1.00
C973   C     0.89037   0.99933   0.45600   0.00000  Uiso   1.00
H974   H     0.91499   0.97491   0.47395   0.00000  Uiso   1.00
H975   H     0.90007   0.50609   0.41711   0.00000  Uiso   1.00
H976   H     0.89102   0.53280   0.47701   0.00000  Uiso   1.00
O977   O     0.80727   0.53113   0.56820   0.00000  Uiso   1.00
C978   C     0.78443   0.51599   0.61019   0.00000  Uiso   1.00
H979   H     0.75771   0.99037   0.59945   0.00000  Uiso   1.00
H980   H     0.76945   0.54614   0.62962   0.00000  Uiso   1.00
C981   C     0.81782   0.99190   0.64598   0.00000  Uiso   1.00
H982   H     0.84358   0.51727   0.66015   0.00000  Uiso   1.00
H983   H     0.80018   0.97718   0.34465   0.00000  Uiso   1.00
H984   H     0.83465   0.96295   0.62651   0.00000  Uiso   1.00
O985   O     0.66868   0.96975   0.49587   0.00000  Uiso   1.00
C986   C     0.65676   0.97684   0.54570   0.00000  Uiso   1.00
H987   H     0.68080   0.50103   0.56544   0.00000  Uiso   1.00
H988   H     0.65562   0.94312   0.56632   0.00000  Uiso   1.00
C989   C     0.61037   0.99882   0.54587   0.00000  Uiso   1.00
H990   H     0.58529   0.97538   0.52687   0.00000  Uiso   1.00
H991   H     0.60062   0.50465   0.58493   0.00000  Uiso   1.00
H992   H     0.61060   0.53289   0.52615   0.00000  Uiso   1.00
O993   O     0.18453   0.28974   0.83334   0.00000  Uiso   1.00
O994   O     0.31547   0.21026   0.83333   0.00000  Uiso   1.00
O995   O     0.31547   0.28974   0.83333   0.00000  Uiso   1.00
O996   O     0.18453   0.21026   0.83334   0.00000  Uiso   1.00
C997   C     0.16387   0.24980   0.83532   0.00000  Uiso   1.00
C998   C     0.33600   0.24988   0.83424   0.00000  Uiso   1.00
O999   O     0.25000   0.28973   0.76178   0.00000  Uiso   1.00
O1000  O     0.25000   0.21027   0.90489   0.00000  Uiso   1.00
O1001  O     0.25000   0.28973   0.90489   0.00000  Uiso   1.00
O1002  O     0.25000   0.21027   0.76178   0.00000  Uiso   1.00
C1003  C     0.22290   0.05246   0.79874   0.00000  Uiso   1.00
C1004  C     0.29039   0.44767   0.83779   0.00000  Uiso   1.00
C1005  C     0.27741   0.05298   0.86832   0.00000  Uiso   1.00
C1006  C     0.20981   0.44751   0.82950   0.00000  Uiso   1.00
C1007  C     0.24987   0.24997   0.73961   0.00000  Uiso   1.00
C1008  C     0.25017   0.25002   0.92706   0.00000  Uiso   1.00
Zn1009 Zn    0.25000   0.30307   0.83333   0.00000  Uiso   1.00
Zn1010 Zn    0.25000   0.19693   0.83333   0.00000  Uiso   1.00
N1011  N     0.25000   0.12624   0.83333   0.00000  Uiso   1.00
N1012  N     0.25000   0.37377   0.83333   0.00000  Uiso   1.00
C1013  C     0.25007   0.02684   0.83376   0.00000  Uiso   1.00
C1014  C     0.25011   0.47356   0.83389   0.00000  Uiso   1.00
C1015  C     0.24997   0.24996   0.68846   0.00000  Uiso   1.00
C1016  C     0.25008   0.25003   0.97821   0.00000  Uiso   1.00
C1017  C     0.04554   0.28874   0.84891   0.00000  Uiso   1.00
C1018  C     0.45427   0.21501   0.81991   0.00000  Uiso   1.00
C1019  C     0.45067   0.27188   0.88823   0.00000  Uiso   1.00
C1020  C     0.05025   0.20461   0.86420   0.00000  Uiso   1.00
C1021  C     0.09152   0.28997   0.84321   0.00000  Uiso   1.00
C1022  C     0.40811   0.21775   0.81241   0.00000  Uiso   1.00
C1023  C     0.40466   0.27444   0.87941   0.00000  Uiso   1.00
C1024  C     0.09570   0.20633   0.85565   0.00000  Uiso   1.00
H1025  H     0.10757   0.32315   0.83752   0.00000  Uiso   1.00
H1026  H     0.39133   0.19626   0.78397   0.00000  Uiso   1.00
H1027  H     0.38510   0.29601   0.90336   0.00000  Uiso   1.00
H1028  H     0.11470   0.17421   0.85822   0.00000  Uiso   1.00
C1029  C     0.11621   0.24872   0.84394   0.00000  Uiso   1.00
C1030  C     0.38385   0.24864   0.84090   0.00000  Uiso   1.00
C1031  C     0.02462   0.24567   0.85855   0.00000  Uiso   1.00
C1032  C     0.47587   0.24285   0.85724   0.00000  Uiso   1.00
C1033  C     0.22264   0.10185   0.80014   0.00000  Uiso   1.00
C1034  C     0.28849   0.39878   0.84561   0.00000  Uiso   1.00
C1035  C     0.27773   0.10235   0.86638   0.00000  Uiso   1.00
C1036  C     0.21171   0.39873   0.82016   0.00000  Uiso   1.00
C1037  C     0.19251   0.12658   0.76438   0.00000  Uiso   1.00
O1038  O     0.20515   0.13562   0.72268   0.00000  Uiso   1.00
O1039  O     0.14840   0.13596   0.77680   0.00000  Uiso   1.00
H1040  H     0.13058   0.15202   0.74877   0.00000  Uiso   1.00
C1041  C     0.32737   0.37694   0.87160   0.00000  Uiso   1.00
O1042  O     0.32177   0.35377   0.90905   0.00000  Uiso   1.00
O1043  O     0.37074   0.38585   0.85587   0.00000  Uiso   1.00
H1044  H     0.39501   0.37343   0.87982   0.00000  Uiso   1.00
C1045  C     0.30937   0.12757   0.90034   0.00000  Uiso   1.00
O1046  O     0.29847   0.13751   0.94250   0.00000  Uiso   1.00
O1047  O     0.35298   0.13647   0.88556   0.00000  Uiso   1.00
H1048  H     0.37202   0.15312   0.91233   0.00000  Uiso   1.00
C1049  C     0.17440   0.37777   0.78943   0.00000  Uiso   1.00
O1050  O     0.18247   0.34879   0.75764   0.00000  Uiso   1.00
O1051  O     0.13058   0.39452   0.79273   0.00000  Uiso   1.00
H1052  H     0.10904   0.38010   0.76680   0.00000  Uiso   1.00
O1053  O     0.02181   0.33018   0.84780   0.00000  Uiso   1.00
C1054  C     0.00916   0.34107   0.79793   0.00000  Uiso   1.00
H1055  H     0.48336   0.31597   0.78319   0.00000  Uiso   1.00
H1056  H     0.03856   0.34084   0.77365   0.00000  Uiso   1.00
C1057  C     0.48888   0.38970   0.79608   0.00000  Uiso   1.00
H1058  H     0.01408   0.41577   0.81001   0.00000  Uiso   1.00
H1059  H     0.47827   0.39855   0.75705   0.00000  Uiso   1.00
H1060  H     0.45912   0.39112   0.81961   0.00000  Uiso   1.00
O1061  O     0.47841   0.18443   0.79146   0.00000  Uiso   1.00
C1062  C     0.48437   0.20356   0.74371   0.00000  Uiso   1.00
H1063  H     0.48512   0.24242   0.74362   0.00000  Uiso   1.00
H1064  H     0.45675   0.19150   0.71763   0.00000  Uiso   1.00
C1065  C     0.02897   0.18664   0.72494   0.00000  Uiso   1.00
H1066  H     0.02899   0.14798   0.72211   0.00000  Uiso   1.00
H1067  H     0.03468   0.20172   0.68774   0.00000  Uiso   1.00
H1068  H     0.05681   0.19801   0.75100   0.00000  Uiso   1.00
O1069  O     0.47046   0.30324   0.92181   0.00000  Uiso   1.00
C1070  C     0.48825   0.27942   0.96404   0.00000  Uiso   1.00
H1071  H     0.01537   0.25521   0.95398   0.00000  Uiso   1.00
H1072  H     0.46143   0.25985   0.98290   0.00000  Uiso   1.00
C1073  C     0.00908   0.31490   0.66699   0.00000  Uiso   1.00
H1074  H     0.48249   0.33713   0.68240   0.00000  Uiso   1.00
H1075  H     0.02746   0.29655   0.69792   0.00000  Uiso   1.00
H1076  H     0.03333   0.33734   0.98097   0.00000  Uiso   1.00
O1077  O     0.03052   0.16157   0.87168   0.00000  Uiso   1.00
C1078  C     0.02637   0.15444   0.92328   0.00000  Uiso   1.00
H1079  H     0.49940   0.17699   0.93745   0.00000  Uiso   1.00
H1080  H     0.05865   0.16140   0.94461   0.00000  Uiso   1.00
C1081  C     0.01324   0.10391   0.93213   0.00000  Uiso   1.00
H1082  H     0.03960   0.08023   0.91860   0.00000  Uiso   1.00
H1083  H     0.00949   0.09790   0.97266   0.00000  Uiso   1.00
H1084  H     0.48082   0.09589   0.91194   0.00000  Uiso   1.00
O1085  O     0.19335   0.03010   0.76536   0.00000  Uiso   1.00
C1086  C     0.21665   0.01425   0.72397   0.00000  Uiso   1.00
H1087  H     0.24300   0.48864   0.73543   0.00000  Uiso   1.00
H1088  H     0.23222   0.04403   0.70446   0.00000  Uiso   1.00
C1089  C     0.18352   0.48984   0.68791   0.00000  Uiso   1.00
H1090  H     0.15842   0.01522   0.67267   0.00000  Uiso   1.00
H1091  H     0.20154   0.47423   0.98998   0.00000  Uiso   1.00
H1092  H     0.16585   0.46150   0.70750   0.00000  Uiso   1.00
O1093  O     0.33168   0.46988   0.83864   0.00000  Uiso   1.00
C1094  C     0.34351   0.47820   0.78900   0.00000  Uiso   1.00
H1095  H     0.31991   0.00335   0.77035   0.00000  Uiso   1.00
H1096  H     0.34378   0.44511   0.76705   0.00000  Uiso   1.00
C1097  C     0.39037   0.49933   0.78934   0.00000  Uiso   1.00
H1098  H     0.41499   0.47491   0.80728   0.00000  Uiso   1.00
H1099  H     0.40007   0.00609   0.75044   0.00000  Uiso   1.00
H1100  H     0.39102   0.03280   0.81034   0.00000  Uiso   1.00
O1101  O     0.30727   0.03113   0.90153   0.00000  Uiso   1.00
C1102  C     0.28443   0.01599   0.94352   0.00000  Uiso   1.00
H1103  H     0.25771   0.49037   0.93279   0.00000  Uiso   1.00
H1104  H     0.26945   0.04614   0.96296   0.00000  Uiso   1.00
C1105  C     0.31782   0.49190   0.97931   0.00000  Uiso   1.00
H1106  H     0.34358   0.01727   0.99349   0.00000  Uiso   1.00
H1107  H     0.30018   0.47718   0.67798   0.00000  Uiso   1.00
H1108  H     0.33465   0.46295   0.95985   0.00000  Uiso   1.00
O1109  O     0.16868   0.46975   0.82921   0.00000  Uiso   1.00
C1110  C     0.15676   0.47684   0.87904   0.00000  Uiso   1.00
H1111  H     0.18080   0.00103   0.89877   0.00000  Uiso   1.00
H1112  H     0.15562   0.44312   0.89965   0.00000  Uiso   1.00
C1113  C     0.11037   0.49882   0.87920   0.00000  Uiso   1.00
H1114  H     0.08529   0.47538   0.86020   0.00000  Uiso   1.00
H1115  H     0.10062   0.00465   0.91826   0.00000  Uiso   1.00
H1116  H     0.11060   0.03289   0.85949   0.00000  Uiso   1.00
O1117  O     0.68453   0.28974   0.83334   0.00000  Uiso   1.00
O1118  O     0.81547   0.21026   0.83333   0.00000  Uiso   1.00
O1119  O     0.81547   0.28974   0.83333   0.00000  Uiso   1.00
O1120  O     0.68453   0.21026   0.83334   0.00000  Uiso   1.00
C1121  C     0.66387   0.24980   0.83532   0.00000  Uiso   1.00
C1122  C     0.83600   0.24988   0.83424   0.00000  Uiso   1.00
O1123  O     0.75000   0.28973   0.76178   0.00000  Uiso   1.00
O1124  O     0.75000   0.21027   0.90489   0.00000  Uiso   1.00
O1125  O     0.75000   0.28973   0.90489   0.00000  Uiso   1.00
O1126  O     0.75000   0.21027   0.76178   0.00000  Uiso   1.00
C1127  C     0.72290   0.05246   0.79874   0.00000  Uiso   1.00
C1128  C     0.79039   0.44767   0.83779   0.00000  Uiso   1.00
C1129  C     0.77741   0.05298   0.86832   0.00000  Uiso   1.00
C1130  C     0.70981   0.44751   0.82950   0.00000  Uiso   1.00
C1131  C     0.74987   0.24997   0.73961   0.00000  Uiso   1.00
C1132  C     0.75017   0.25002   0.92706   0.00000  Uiso   1.00
Zn1133 Zn    0.75000   0.30307   0.83333   0.00000  Uiso   1.00
Zn1134 Zn    0.75000   0.19693   0.83333   0.00000  Uiso   1.00
N1135  N     0.75000   0.12624   0.83333   0.00000  Uiso   1.00
N1136  N     0.75000   0.37377   0.83333   0.00000  Uiso   1.00
C1137  C     0.75007   0.02684   0.83376   0.00000  Uiso   1.00
C1138  C     0.75011   0.47356   0.83389   0.00000  Uiso   1.00
C1139  C     0.74997   0.24996   0.68846   0.00000  Uiso   1.00
C1140  C     0.75008   0.25003   0.97821   0.00000  Uiso   1.00
C1141  C     0.54554   0.28874   0.84891   0.00000  Uiso   1.00
C1142  C     0.95427   0.21501   0.81991   0.00000  Uiso   1.00
C1143  C     0.95067   0.27188   0.88823   0.00000  Uiso   1.00
C1144  C     0.55025   0.20461   0.86420   0.00000  Uiso   1.00
C1145  C     0.59152   0.28997   0.84321   0.00000  Uiso   1.00
C1146  C     0.90811   0.21775   0.81241   0.00000  Uiso   1.00
C1147  C     0.90466   0.27444   0.87941   0.00000  Uiso   1.00
C1148  C     0.59570   0.20633   0.85565   0.00000  Uiso   1.00
H1149  H     0.60757   0.32315   0.83752   0.00000  Uiso   1.00
H1150  H     0.89133   0.19626   0.78397   0.00000  Uiso   1.00
H1151  H     0.88510   0.29601   0.90336   0.00000  Uiso   1.00
H1152  H     0.61470   0.17421   0.85822   0.00000  Uiso   1.00
C1153  C     0.61621   0.24872   0.84394   0.00000  Uiso   1.00
C1154  C     0.88385   0.24864   0.84090   0.00000  Uiso   1.00
C1155  C     0.52462   0.24567   0.85855   0.00000  Uiso   1.00
C1156  C     0.97587   0.24285   0.85724   0.00000  Uiso   1.00
C1157  C     0.72264   0.10185   0.80014   0.00000  Uiso   1.00
C1158  C     0.78849   0.39878   0.84561   0.00000  Uiso   1.00
C1159  C     0.77773   0.10235   0.86638   0.00000  Uiso   1.00
C1160  C     0.71171   0.39873   0.82016   0.00000  Uiso   1.00
C1161  C     0.69251   0.12658   0.76438   0.00000  Uiso   1.00
O1162  O     0.70515   0.13562   0.72268   0.00000  Uiso   1.00
O1163  O     0.64840   0.13596   0.77680   0.00000  Uiso   1.00
H1164  H     0.63058   0.15202   0.74877   0.00000  Uiso   1.00
C1165  C     0.82737   0.37694   0.87160   0.00000  Uiso   1.00
O1166  O     0.82177   0.35377   0.90905   0.00000  Uiso   1.00
O1167  O     0.87074   0.38585   0.85587   0.00000  Uiso   1.00
H1168  H     0.89501   0.37343   0.87982   0.00000  Uiso   1.00
C1169  C     0.80937   0.12757   0.90034   0.00000  Uiso   1.00
O1170  O     0.79847   0.13751   0.94250   0.00000  Uiso   1.00
O1171  O     0.85298   0.13647   0.88556   0.00000  Uiso   1.00
H1172  H     0.87202   0.15312   0.91233   0.00000  Uiso   1.00
C1173  C     0.67440   0.37777   0.78943   0.00000  Uiso   1.00
O1174  O     0.68247   0.34879   0.75764   0.00000  Uiso   1.00
O1175  O     0.63058   0.39452   0.79273   0.00000  Uiso   1.00
H1176  H     0.60904   0.38010   0.76680   0.00000  Uiso   1.00
O1177  O     0.52181   0.33018   0.84780   0.00000  Uiso   1.00
C1178  C     0.50916   0.34107   0.79793   0.00000  Uiso   1.00
H1179  H     0.98336   0.31597   0.78319   0.00000  Uiso   1.00
H1180  H     0.53856   0.34084   0.77365   0.00000  Uiso   1.00
C1181  C     0.98888   0.38970   0.79608   0.00000  Uiso   1.00
H1182  H     0.51408   0.41577   0.81001   0.00000  Uiso   1.00
H1183  H     0.97827   0.39855   0.75705   0.00000  Uiso   1.00
H1184  H     0.95912   0.39112   0.81961   0.00000  Uiso   1.00
O1185  O     0.97841   0.18443   0.79146   0.00000  Uiso   1.00
C1186  C     0.98437   0.20356   0.74371   0.00000  Uiso   1.00
H1187  H     0.98512   0.24242   0.74362   0.00000  Uiso   1.00
H1188  H     0.95675   0.19150   0.71763   0.00000  Uiso   1.00
C1189  C     0.52897   0.18664   0.72494   0.00000  Uiso   1.00
H1190  H     0.52899   0.14798   0.72211   0.00000  Uiso   1.00
H1191  H     0.53468   0.20172   0.68774   0.00000  Uiso   1.00
H1192  H     0.55681   0.19801   0.75100   0.00000  Uiso   1.00
O1193  O     0.97046   0.30324   0.92181   0.00000  Uiso   1.00
C1194  C     0.98825   0.27942   0.96404   0.00000  Uiso   1.00
H1195  H     0.51537   0.25521   0.95398   0.00000  Uiso   1.00
H1196  H     0.96143   0.25985   0.98290   0.00000  Uiso   1.00
C1197  C     0.50908   0.31490   0.66699   0.00000  Uiso   1.00
H1198  H     0.98249   0.33713   0.68240   0.00000  Uiso   1.00
H1199  H     0.52746   0.29655   0.69792   0.00000  Uiso   1.00
H1200  H     0.53333   0.33734   0.98097   0.00000  Uiso   1.00
O1201  O     0.53052   0.16157   0.87168   0.00000  Uiso   1.00
C1202  C     0.52637   0.15444   0.92328   0.00000  Uiso   1.00
H1203  H     0.99940   0.17699   0.93745   0.00000  Uiso   1.00
H1204  H     0.55865   0.16140   0.94461   0.00000  Uiso   1.00
C1205  C     0.51324   0.10391   0.93213   0.00000  Uiso   1.00
H1206  H     0.53960   0.08023   0.91860   0.00000  Uiso   1.00
H1207  H     0.50949   0.09790   0.97266   0.00000  Uiso   1.00
H1208  H     0.98082   0.09589   0.91194   0.00000  Uiso   1.00
O1209  O     0.69335   0.03010   0.76536   0.00000  Uiso   1.00
C1210  C     0.71665   0.01425   0.72397   0.00000  Uiso   1.00
H1211  H     0.74300   0.48864   0.73543   0.00000  Uiso   1.00
H1212  H     0.73222   0.04403   0.70446   0.00000  Uiso   1.00
C1213  C     0.68352   0.48984   0.68791   0.00000  Uiso   1.00
H1214  H     0.65842   0.01522   0.67267   0.00000  Uiso   1.00
H1215  H     0.70154   0.47423   0.98998   0.00000  Uiso   1.00
H1216  H     0.66585   0.46150   0.70750   0.00000  Uiso   1.00
O1217  O     0.83168   0.46988   0.83864   0.00000  Uiso   1.00
C1218  C     0.84351   0.47820   0.78900   0.00000  Uiso   1.00
H1219  H     0.81991   0.00335   0.77035   0.00000  Uiso   1.00
H1220  H     0.84378   0.44511   0.76705   0.00000  Uiso   1.00
C1221  C     0.89037   0.49933   0.78934   0.00000  Uiso   1.00
H1222  H     0.91499   0.47491   0.80728   0.00000  Uiso   1.00
H1223  H     0.90007   0.00609   0.75044   0.00000  Uiso   1.00
H1224  H     0.89102   0.03280   0.81034   0.00000  Uiso   1.00
O1225  O     0.80727   0.03113   0.90153   0.00000  Uiso   1.00
C1226  C     0.78443   0.01599   0.94352   0.00000  Uiso   1.00
H1227  H     0.75771   0.49037   0.93279   0.00000  Uiso   1.00
H1228  H     0.76945   0.04614   0.96296   0.00000  Uiso   1.00
C1229  C     0.81782   0.49190   0.97931   0.00000  Uiso   1.00
H1230  H     0.84358   0.01727   0.99349   0.00000  Uiso   1.00
H1231  H     0.80018   0.47718   0.67798   0.00000  Uiso   1.00
H1232  H     0.83465   0.46295   0.95985   0.00000  Uiso   1.00
O1233  O     0.66868   0.46975   0.82921   0.00000  Uiso   1.00
C1234  C     0.65676   0.47684   0.87904   0.00000  Uiso   1.00
H1235  H     0.68080   0.00103   0.89877   0.00000  Uiso   1.00
H1236  H     0.65562   0.44312   0.89965   0.00000  Uiso   1.00
C1237  C     0.61037   0.49882   0.87920   0.00000  Uiso   1.00
H1238  H     0.58529   0.47538   0.86020   0.00000  Uiso   1.00
H1239  H     0.60062   0.00465   0.91826   0.00000  Uiso   1.00
H1240  H     0.61060   0.03289   0.85949   0.00000  Uiso   1.00
O1241  O     0.18453   0.78974   0.83334   0.00000  Uiso   1.00
O1242  O     0.31547   0.71026   0.83333   0.00000  Uiso   1.00
O1243  O     0.31547   0.78974   0.83333   0.00000  Uiso   1.00
O1244  O     0.18453   0.71026   0.83334   0.00000  Uiso   1.00
C1245  C     0.16387   0.74980   0.83532   0.00000  Uiso   1.00
C1246  C     0.33600   0.74988   0.83424   0.00000  Uiso   1.00
O1247  O     0.25000   0.78973   0.76178   0.00000  Uiso   1.00
O1248  O     0.25000   0.71027   0.90489   0.00000  Uiso   1.00
O1249  O     0.25000   0.78973   0.90489   0.00000  Uiso   1.00
O1250  O     0.25000   0.71027   0.76178   0.00000  Uiso   1.00
C1251  C     0.22290   0.55246   0.79874   0.00000  Uiso   1.00
C1252  C     0.29039   0.94767   0.83779   0.00000  Uiso   1.00
C1253  C     0.27741   0.55298   0.86832   0.00000  Uiso   1.00
C1254  C     0.20981   0.94751   0.82950   0.00000  Uiso   1.00
C1255  C     0.24987   0.74997   0.73961   0.00000  Uiso   1.00
C1256  C     0.25017   0.75002   0.92706   0.00000  Uiso   1.00
Zn1257 Zn    0.25000   0.80307   0.83333   0.00000  Uiso   1.00
Zn1258 Zn    0.25000   0.69693   0.83333   0.00000  Uiso   1.00
N1259  N     0.25000   0.62624   0.83333   0.00000  Uiso   1.00
N1260  N     0.25000   0.87377   0.83333   0.00000  Uiso   1.00
C1261  C     0.25007   0.52684   0.83376   0.00000  Uiso   1.00
C1262  C     0.25011   0.97356   0.83389   0.00000  Uiso   1.00
C1263  C     0.24997   0.74996   0.68846   0.00000  Uiso   1.00
C1264  C     0.25008   0.75003   0.97821   0.00000  Uiso   1.00
C1265  C     0.04554   0.78874   0.84891   0.00000  Uiso   1.00
C1266  C     0.45427   0.71501   0.81991   0.00000  Uiso   1.00
C1267  C     0.45067   0.77188   0.88823   0.00000  Uiso   1.00
C1268  C     0.05025   0.70461   0.86420   0.00000  Uiso   1.00
C1269  C     0.09152   0.78997   0.84321   0.00000  Uiso   1.00
C1270  C     0.40811   0.71775   0.81241   0.00000  Uiso   1.00
C1271  C     0.40466   0.77444   0.87941   0.00000  Uiso   1.00
C1272  C     0.09570   0.70633   0.85565   0.00000  Uiso   1.00
H1273  H     0.10757   0.82315   0.83752   0.00000  Uiso   1.00
H1274  H     0.39133   0.69626   0.78397   0.00000  Uiso   1.00
H1275  H     0.38510   0.79601   0.90336   0.00000  Uiso   1.00
H1276  H     0.11470   0.67421   0.85822   0.00000  Uiso   1.00
C1277  C     0.11621   0.74872   0.84394   0.00000  Uiso   1.00
C1278  C     0.38385   0.74864   0.84090   0.00000  Uiso   1.00
C1279  C     0.02462   0.74567   0.85855   0.00000  Uiso   1.00
C1280  C     0.47587   0.74285   0.85724   0.00000  Uiso   1.00
C1281  C     0.22264   0.60185   0.80014   0.00000  Uiso   1.00
C1282  C     0.28849   0.89878   0.84561   0.00000  Uiso   1.00
C1283  C     0.27773   0.60235   0.86638   0.00000  Uiso   1.00
C1284  C     0.21171   0.89873   0.82016   0.00000  Uiso   1.00
C1285  C     0.19251   0.62658   0.76438   0.00000  Uiso   1.00
O1286  O     0.20515   0.63562   0.72268   0.00000  Uiso   1.00
O1287  O     0.14840   0.63596   0.77680   0.00000  Uiso   1.00
H1288  H     0.13058   0.65202   0.74877   0.00000  Uiso   1.00
C1289  C     0.32737   0.87694   0.87160   0.00000  Uiso   1.00
O1290  O     0.32177   0.85377   0.90905   0.00000  Uiso   1.00
O1291  O     0.37074   0.88585   0.85587   0.00000  Uiso   1.00
H1292  H     0.39501   0.87343   0.87982   0.00000  Uiso   1.00
C1293  C     0.30937   0.62757   0.90034   0.00000  Uiso   1.00
O1294  O     0.29847   0.63751   0.94250   0.00000  Uiso   1.00
O1295  O     0.35298   0.63647   0.88556   0.00000  Uiso   1.00
H1296  H     0.37202   0.65312   0.91233   0.00000  Uiso   1.00
C1297  C     0.17440   0.87777   0.78943   0.00000  Uiso   1.00
O1298  O     0.18247   0.84879   0.75764   0.00000  Uiso   1.00
O1299  O     0.13058   0.89452   0.79273   0.00000  Uiso   1.00
H1300  H     0.10904   0.88010   0.76680   0.00000  Uiso   1.00
O1301  O     0.02181   0.83018   0.84780   0.00000  Uiso   1.00
C1302  C     0.00916   0.84107   0.79793   0.00000  Uiso   1.00
H1303  H     0.48336   0.81597   0.78319   0.00000  Uiso   1.00
H1304  H     0.03856   0.84084   0.77365   0.00000  Uiso   1.00
C1305  C     0.48888   0.88970   0.79608   0.00000  Uiso   1.00
H1306  H     0.01408   0.91577   0.81001   0.00000  Uiso   1.00
H1307  H     0.47827   0.89855   0.75705   0.00000  Uiso   1.00
H1308  H     0.45912   0.89112   0.81961   0.00000  Uiso   1.00
O1309  O     0.47841   0.68443   0.79146   0.00000  Uiso   1.00
C1310  C     0.48437   0.70356   0.74371   0.00000  Uiso   1.00
H1311  H     0.48512   0.74242   0.74362   0.00000  Uiso   1.00
H1312  H     0.45675   0.69150   0.71763   0.00000  Uiso   1.00
C1313  C     0.02897   0.68664   0.72494   0.00000  Uiso   1.00
H1314  H     0.02899   0.64798   0.72211   0.00000  Uiso   1.00
H1315  H     0.03468   0.70172   0.68774   0.00000  Uiso   1.00
H1316  H     0.05681   0.69801   0.75100   0.00000  Uiso   1.00
O1317  O     0.47046   0.80324   0.92181   0.00000  Uiso   1.00
C1318  C     0.48825   0.77942   0.96404   0.00000  Uiso   1.00
H1319  H     0.01537   0.75521   0.95398   0.00000  Uiso   1.00
H1320  H     0.46143   0.75985   0.98290   0.00000  Uiso   1.00
C1321  C     0.00908   0.81490   0.66699   0.00000  Uiso   1.00
H1322  H     0.48249   0.83713   0.68240   0.00000  Uiso   1.00
H1323  H     0.02746   0.79655   0.69792   0.00000  Uiso   1.00
H1324  H     0.03333   0.83734   0.98097   0.00000  Uiso   1.00
O1325  O     0.03052   0.66157   0.87168   0.00000  Uiso   1.00
C1326  C     0.02637   0.65444   0.92328   0.00000  Uiso   1.00
H1327  H     0.49940   0.67699   0.93745   0.00000  Uiso   1.00
H1328  H     0.05865   0.66140   0.94461   0.00000  Uiso   1.00
C1329  C     0.01324   0.60391   0.93213   0.00000  Uiso   1.00
H1330  H     0.03960   0.58023   0.91860   0.00000  Uiso   1.00
H1331  H     0.00949   0.59790   0.97266   0.00000  Uiso   1.00
H1332  H     0.48082   0.59589   0.91194   0.00000  Uiso   1.00
O1333  O     0.19335   0.53010   0.76536   0.00000  Uiso   1.00
C1334  C     0.21665   0.51425   0.72397   0.00000  Uiso   1.00
H1335  H     0.24300   0.98864   0.73543   0.00000  Uiso   1.00
H1336  H     0.23222   0.54403   0.70446   0.00000  Uiso   1.00
C1337  C     0.18352   0.98984   0.68791   0.00000  Uiso   1.00
H1338  H     0.15842   0.51522   0.67267   0.00000  Uiso   1.00
H1339  H     0.20154   0.97423   0.98998   0.00000  Uiso   1.00
H1340  H     0.16585   0.96150   0.70750   0.00000  Uiso   1.00
O1341  O     0.33168   0.96988   0.83864   0.00000  Uiso   1.00
C1342  C     0.34351   0.97820   0.78900   0.00000  Uiso   1.00
H1343  H     0.31991   0.50335   0.77035   0.00000  Uiso   1.00
H1344  H     0.34378   0.94511   0.76705   0.00000  Uiso   1.00
C1345  C     0.39037   0.99933   0.78934   0.00000  Uiso   1.00
H1346  H     0.41499   0.97491   0.80728   0.00000  Uiso   1.00
H1347  H     0.40007   0.50609   0.75044   0.00000  Uiso   1.00
H1348  H     0.39102   0.53280   0.81034   0.00000  Uiso   1.00
O1349  O     0.30727   0.53113   0.90153   0.00000  Uiso   1.00
C1350  C     0.28443   0.51599   0.94352   0.00000  Uiso   1.00
H1351  H     0.25771   0.99037   0.93279   0.00000  Uiso   1.00
H1352  H     0.26945   0.54614   0.96296   0.00000  Uiso   1.00
C1353  C     0.31782   0.99190   0.97931   0.00000  Uiso   1.00
H1354  H     0.34358   0.51727   0.99349   0.00000  Uiso   1.00
H1355  H     0.30018   0.97718   0.67798   0.00000  Uiso   1.00
H1356  H     0.33465   0.96295   0.95985   0.00000  Uiso   1.00
O1357  O     0.16868   0.96975   0.82921   0.00000  Uiso   1.00
C1358  C     0.15676   0.97684   0.87904   0.00000  Uiso   1.00
H1359  H     0.18080   0.50103   0.89877   0.00000  Uiso   1.00
H1360  H     0.15562   0.94312   0.89965   0.00000  Uiso   1.00
C1361  C     0.11037   0.99882   0.87920   0.00000  Uiso   1.00
H1362  H     0.08529   0.97538   0.86020   0.00000  Uiso   1.00
H1363  H     0.10062   0.50465   0.91826   0.00000  Uiso   1.00
H1364  H     0.11060   0.53289   0.85949   0.00000  Uiso   1.00
O1365  O     0.68453   0.78974   0.83334   0.00000  Uiso   1.00
O1366  O     0.81547   0.71026   0.83333   0.00000  Uiso   1.00
O1367  O     0.81547   0.78974   0.83333   0.00000  Uiso   1.00
O1368  O     0.68453   0.71026   0.83334   0.00000  Uiso   1.00
C1369  C     0.66387   0.74980   0.83532   0.00000  Uiso   1.00
C1370  C     0.83600   0.74988   0.83424   0.00000  Uiso   1.00
O1371  O     0.75000   0.78973   0.76178   0.00000  Uiso   1.00
O1372  O     0.75000   0.71027   0.90489   0.00000  Uiso   1.00
O1373  O     0.75000   0.78973   0.90489   0.00000  Uiso   1.00
O1374  O     0.75000   0.71027   0.76178   0.00000  Uiso   1.00
C1375  C     0.72290   0.55246   0.79874   0.00000  Uiso   1.00
C1376  C     0.79039   0.94767   0.83779   0.00000  Uiso   1.00
C1377  C     0.77741   0.55298   0.86832   0.00000  Uiso   1.00
C1378  C     0.70981   0.94751   0.82950   0.00000  Uiso   1.00
C1379  C     0.74987   0.74997   0.73961   0.00000  Uiso   1.00
C1380  C     0.75017   0.75002   0.92706   0.00000  Uiso   1.00
Zn1381 Zn    0.75000   0.80307   0.83333   0.00000  Uiso   1.00
Zn1382 Zn    0.75000   0.69693   0.83333   0.00000  Uiso   1.00
N1383  N     0.75000   0.62624   0.83333   0.00000  Uiso   1.00
N1384  N     0.75000   0.87377   0.83333   0.00000  Uiso   1.00
C1385  C     0.75007   0.52684   0.83376   0.00000  Uiso   1.00
C1386  C     0.75011   0.97356   0.83389   0.00000  Uiso   1.00
C1387  C     0.74997   0.74996   0.68846   0.00000  Uiso   1.00
C1388  C     0.75008   0.75003   0.97821   0.00000  Uiso   1.00
C1389  C     0.54554   0.78874   0.84891   0.00000  Uiso   1.00
C1390  C     0.95427   0.71501   0.81991   0.00000  Uiso   1.00
C1391  C     0.95067   0.77188   0.88823   0.00000  Uiso   1.00
C1392  C     0.55025   0.70461   0.86420   0.00000  Uiso   1.00
C1393  C     0.59152   0.78997   0.84321   0.00000  Uiso   1.00
C1394  C     0.90811   0.71775   0.81241   0.00000  Uiso   1.00
C1395  C     0.90466   0.77444   0.87941   0.00000  Uiso   1.00
C1396  C     0.59570   0.70633   0.85565   0.00000  Uiso   1.00
H1397  H     0.60757   0.82315   0.83752   0.00000  Uiso   1.00
H1398  H     0.89133   0.69626   0.78397   0.00000  Uiso   1.00
H1399  H     0.88510   0.79601   0.90336   0.00000  Uiso   1.00
H1400  H     0.61470   0.67421   0.85822   0.00000  Uiso   1.00
C1401  C     0.61621   0.74872   0.84394   0.00000  Uiso   1.00
C1402  C     0.88385   0.74864   0.84090   0.00000  Uiso   1.00
C1403  C     0.52462   0.74567   0.85855   0.00000  Uiso   1.00
C1404  C     0.97587   0.74285   0.85724   0.00000  Uiso   1.00
C1405  C     0.72264   0.60185   0.80014   0.00000  Uiso   1.00
C1406  C     0.78849   0.89878   0.84561   0.00000  Uiso   1.00
C1407  C     0.77773   0.60235   0.86638   0.00000  Uiso   1.00
C1408  C     0.71171   0.89873   0.82016   0.00000  Uiso   1.00
C1409  C     0.69251   0.62658   0.76438   0.00000  Uiso   1.00
O1410  O     0.70515   0.63562   0.72268   0.00000  Uiso   1.00
O1411  O     0.64840   0.63596   0.77680   0.00000  Uiso   1.00
H1412  H     0.63058   0.65202   0.74877   0.00000  Uiso   1.00
C1413  C     0.82737   0.87694   0.87160   0.00000  Uiso   1.00
O1414  O     0.82177   0.85377   0.90905   0.00000  Uiso   1.00
O1415  O     0.87074   0.88585   0.85587   0.00000  Uiso   1.00
H1416  H     0.89501   0.87343   0.87982   0.00000  Uiso   1.00
C1417  C     0.80937   0.62757   0.90034   0.00000  Uiso   1.00
O1418  O     0.79847   0.63751   0.94250   0.00000  Uiso   1.00
O1419  O     0.85298   0.63647   0.88556   0.00000  Uiso   1.00
H1420  H     0.87202   0.65312   0.91233   0.00000  Uiso   1.00
C1421  C     0.67440   0.87777   0.78943   0.00000  Uiso   1.00
O1422  O     0.68247   0.84879   0.75764   0.00000  Uiso   1.00
O1423  O     0.63058   0.89452   0.79273   0.00000  Uiso   1.00
H1424  H     0.60904   0.88010   0.76680   0.00000  Uiso   1.00
O1425  O     0.52181   0.83018   0.84780   0.00000  Uiso   1.00
C1426  C     0.50916   0.84107   0.79793   0.00000  Uiso   1.00
H1427  H     0.98336   0.81597   0.78319   0.00000  Uiso   1.00
H1428  H     0.53856   0.84084   0.77365   0.00000  Uiso   1.00
C1429  C     0.98888   0.88970   0.79608   0.00000  Uiso   1.00
H1430  H     0.51408   0.91577   0.81001   0.00000  Uiso   1.00
H1431  H     0.97827   0.89855   0.75705   0.00000  Uiso   1.00
H1432  H     0.95912   0.89112   0.81961   0.00000  Uiso   1.00
O1433  O     0.97841   0.68443   0.79146   0.00000  Uiso   1.00
C1434  C     0.98437   0.70356   0.74371   0.00000  Uiso   1.00
H1435  H     0.98512   0.74242   0.74362   0.00000  Uiso   1.00
H1436  H     0.95675   0.69150   0.71763   0.00000  Uiso   1.00
C1437  C     0.52897   0.68664   0.72494   0.00000  Uiso   1.00
H1438  H     0.52899   0.64798   0.72211   0.00000  Uiso   1.00
H1439  H     0.53468   0.70172   0.68774   0.00000  Uiso   1.00
H1440  H     0.55681   0.69801   0.75100   0.00000  Uiso   1.00
O1441  O     0.97046   0.80324   0.92181   0.00000  Uiso   1.00
C1442  C     0.98825   0.77942   0.96404   0.00000  Uiso   1.00
H1443  H     0.51537   0.75521   0.95398   0.00000  Uiso   1.00
H1444  H     0.96143   0.75985   0.98290   0.00000  Uiso   1.00
C1445  C     0.50908   0.81490   0.66699   0.00000  Uiso   1.00
H1446  H     0.98249   0.83713   0.68240   0.00000  Uiso   1.00
H1447  H     0.52746   0.79655   0.69792   0.00000  Uiso   1.00
H1448  H     0.53333   0.83734   0.98097   0.00000  Uiso   1.00
O1449  O     0.53052   0.66157   0.87168   0.00000  Uiso   1.00
C1450  C     0.52637   0.65444   0.92328   0.00000  Uiso   1.00
H1451  H     0.99940   0.67699   0.93745   0.00000  Uiso   1.00
H1452  H     0.55865   0.66140   0.94461   0.00000  Uiso   1.00
C1453  C     0.51324   0.60391   0.93213   0.00000  Uiso   1.00
H1454  H     0.53960   0.58023   0.91860   0.00000  Uiso   1.00
H1455  H     0.50949   0.59790   0.97266   0.00000  Uiso   1.00
H1456  H     0.98082   0.59589   0.91194   0.00000  Uiso   1.00
O1457  O     0.69335   0.53010   0.76536   0.00000  Uiso   1.00
C1458  C     0.71665   0.51425   0.72397   0.00000  Uiso   1.00
H1459  H     0.74300   0.98864   0.73543   0.00000  Uiso   1.00
H1460  H     0.73222   0.54403   0.70446   0.00000  Uiso   1.00
C1461  C     0.68352   0.98984   0.68791   0.00000  Uiso   1.00
H1462  H     0.65842   0.51522   0.67267   0.00000  Uiso   1.00
H1463  H     0.70154   0.97423   0.98998   0.00000  Uiso   1.00
H1464  H     0.66585   0.96150   0.70750   0.00000  Uiso   1.00
O1465  O     0.83168   0.96988   0.83864   0.00000  Uiso   1.00
C1466  C     0.84351   0.97820   0.78900   0.00000  Uiso   1.00
H1467  H     0.81991   0.50335   0.77035   0.00000  Uiso   1.00
H1468  H     0.84378   0.94511   0.76705   0.00000  Uiso   1.00
C1469  C     0.89037   0.99933   0.78934   0.00000  Uiso   1.00
H1470  H     0.91499   0.97491   0.80728   0.00000  Uiso   1.00
H1471  H     0.90007   0.50609   0.75044   0.00000  Uiso   1.00
H1472  H     0.89102   0.53280   0.81034   0.00000  Uiso   1.00
O1473  O     0.80727   0.53113   0.90153   0.00000  Uiso   1.00
C1474  C     0.78443   0.51599   0.94352   0.00000  Uiso   1.00
H1475  H     0.75771   0.99037   0.93279   0.00000  Uiso   1.00
H1476  H     0.76945   0.54614   0.96296   0.00000  Uiso   1.00
C1477  C     0.81782   0.99190   0.97931   0.00000  Uiso   1.00
H1478  H     0.84358   0.51727   0.99349   0.00000  Uiso   1.00
H1479  H     0.80018   0.97718   0.67798   0.00000  Uiso   1.00
H1480  H     0.83465   0.96295   0.95985   0.00000  Uiso   1.00
O1481  O     0.66868   0.96975   0.82921   0.00000  Uiso   1.00
C1482  C     0.65676   0.97684   0.87904   0.00000  Uiso   1.00
H1483  H     0.68080   0.50103   0.89877   0.00000  Uiso   1.00
H1484  H     0.65562   0.94312   0.89965   0.00000  Uiso   1.00
C1485  C     0.61037   0.99882   0.87920   0.00000  Uiso   1.00
H1486  H     0.58529   0.97538   0.86020   0.00000  Uiso   1.00
H1487  H     0.60062   0.50465   0.91826   0.00000  Uiso   1.00
H1488  H     0.61060   0.53289   0.85949   0.00000  Uiso   1.00
loop_
_geom_bond_atom_site_label_1
_geom_bond_atom_site_label_2
_geom_bond_distance
_geom_bond_site_symmetry_2
_ccdc_geom_bond_type
O1     C5      1.300   .     A
O1     Zn17    1.987   .     S
O2     Zn18    1.987   .     S
O2     C6      1.288   .     A
O3     C6      1.297   .     A
O3     Zn17    1.989   .     S
O4     Zn18    1.989   .     S
O4     C5      1.293   .     A
C5     C37     1.448   .     S
C6     C38     1.430   .     S
O7     C15     1.284   .     A
O7     Zn17    1.955   .     S
O8     Zn18    1.955   .     S
O8     C16     1.284   .     A
O9     C16     1.284   .     A
O9     Zn17    1.957   .     S
O10    C15     1.284   .     A
O10    Zn18    1.957   .     S
C11    C41     1.416   .     A
C11    O93     1.384   .     S
C11    C21     1.421   .     A
C12    C22     1.413   .     A
C12    C42     1.418   .     A
C12    O101    1.383   .     S
C13    O109    1.384   .     S
C13    C21     1.420   .     A
C13    C43     1.415   .     A
C14    O117    1.383   .     S
C14    C44     1.421   .     A
C14    C22     1.413   .     A
C15    C23     1.371   .     S
C16    C24     1.371   .     S
Zn17   N20     2.026   .     S
Zn18   N19     2.026   .     S
N19    C43     1.371   .     A
N19    C41     1.371   .     A
N20    C44     1.382   .     A
N20    C42     1.379   .     A
C21    C270    1.527   1_545 S
C22    C269    1.527   .     S
C23    C1016   1.168   1_554 S
C24    C519    1.168   .     S
C25    C29     1.385   .     A
C25    O61     1.383   .     S
C25    C39     1.410   .     A
C26    C30     1.384   .     A
C26    C40     1.412   .     A
C26    O69     1.383   .     S
C27    C31     1.383   .     A
C27    C40     1.414   .     A
C27    O77     1.384   .     S
C28    C32     1.383   .     A
C28    C39     1.409   .     A
C28    O85     1.384   .     S
C29    H33     1.077   .     S
C29    C37     1.394   .     A
C30    C38     1.391   .     A
C30    H34     1.084   .     S
C31    H35     1.079   .     S
C31    C38     1.392   .     A
C32    H36     1.083   .     S
C32    C37     1.400   .     A
C39    C164    1.453   1_455 S
C40    C163    1.453   .     S
C41    C45     1.470   .     S
C42    C49     1.469   .     S
C43    C53     1.471   .     S
C44    C57     1.481   .     S
C45    O46     1.222   .     D
C45    O47     1.396   .     S
O47    H48     1.014   .     S
C49    O51     1.398   .     S
C49    O50     1.222   .     D
O51    H52     1.013   .     S
C53    O55     1.397   .     S
C53    O54     1.222   .     D
O55    H56     1.014   .     S
C57    O59     1.398   .     S
C57    O58     1.220   .     D
O59    H60     1.013   .     S
O61    C62     1.409   .     S
C62    H64     1.113   .     S
C62    H187    1.112   1_455 S
C62    C189    1.520   1_455 S
H63    C186    1.112   .     S
C65    H67     1.110   .     S
C65    H68     1.110   .     S
C65    C186    1.520   .     S
C65    H190    1.111   .     S
H66    C189    1.111   1_455 S
O69    C70     1.411   .     S
C70    H71     1.114   .     S
C70    H72     1.112   .     S
C70    C197    1.520   .     S
C73    H74     1.110   .     S
C73    H75     1.107   .     S
C73    H76     1.110   .     S
C73    C194    1.520   1_455 S
O77    C78     1.408   .     S
C78    H80     1.114   .     S
C78    H203    1.108   .     S
C78    C701    1.519   .     S
H79    C202    1.108   1_455 S
C81    H83     1.109   .     S
C81    C1194   1.519   1_454 S
C81    H206    1.110   1_455 S
C81    H1076   1.111   1_554 S
H82    C205    1.110   .     S
H84    C577    1.111   .     S
O85    C86     1.409   .     S
C86    H88     1.116   .     S
C86    C89     1.520   .     S
C86    H211    1.111   1_455 S
H87    C210    1.111   .     S
C89    H91     1.110   .     S
C89    H90     1.111   .     S
C89    H216    1.111   1_455 S
H92    C213    1.111   .     S
O93    C94     1.408   .     S
C94    H96     1.112   .     S
C94    H343    1.110   1_545 S
C94    C345    1.521   1_545 S
H95    C342    1.110   .     S
C97    H100    1.111   .     S
C97    C342    1.521   .     S
C97    H346    1.111   .     S
C97    H1091   1.108   1_554 S
H98    C345    1.111   1_545 S
H99    C593    1.108   .     S
O101   C102    1.411   .     S
C102   C105    1.520   .     S
C102   H104    1.115   .     S
C102   H351    1.113   .     S
H103   C350    1.113   1_545 S
C105   H106    1.111   .     S
C105   H355    1.111   .     S
C105   H356    1.111   .     S
H107   C353    1.111   1_545 S
H108   C353    1.111   1_545 S
O109   C110    1.408   .     S
C110   H112    1.112   .     S
C110   H359    1.110   1_545 S
C110   C361    1.521   1_545 S
H111   C358    1.110   .     S
C113   H116    1.111   .     S
C113   C358    1.521   .     S
C113   H362    1.111   .     S
C113   H611    1.108   .     S
H114   C361    1.111   1_545 S
H115   C1105   1.108   1_554 S
O117   C118    1.411   .     S
C118   C121    1.520   .     S
C118   H120    1.115   .     S
C118   H367    1.113   .     S
H119   C366    1.113   1_545 S
C121   H122    1.111   .     S
C121   H371    1.111   .     S
C121   H372    1.111   .     S
H123   C369    1.111   1_545 S
H124   C369    1.111   1_545 S
O125   C129    1.300   .     A
O125   Zn141   1.987   .     S
O126   Zn142   1.987   .     S
O126   C130    1.288   .     A
O127   C130    1.297   .     A
O127   Zn141   1.989   .     S
O128   Zn142   1.989   .     S
O128   C129    1.293   .     A
C129   C161    1.448   .     S
C130   C162    1.430   .     S
O131   C139    1.284   .     A
O131   Zn141   1.955   .     S
O132   Zn142   1.955   .     S
O132   C140    1.284   .     A
O133   C140    1.284   .     A
O133   Zn141   1.957   .     S
O134   C139    1.284   .     A
O134   Zn142   1.957   .     S
C135   C165    1.416   .     A
C135   O217    1.384   .     S
C135   C145    1.421   .     A
C136   C146    1.413   .     A
C136   C166    1.418   .     A
C136   O225    1.383   .     S
C137   O233    1.384   .     S
C137   C145    1.420   .     A
C137   C167    1.415   .     A
C138   O241    1.383   .     S
C138   C168    1.421   .     A
C138   C146    1.413   .     A
C139   C147    1.371   .     S
C140   C148    1.371   .     S
Zn141  N144    2.026   .     S
Zn142  N143    2.026   .     S
N143   C167    1.371   .     A
N143   C165    1.371   .     A
N144   C168    1.382   .     A
N144   C166    1.379   .     A
C145   C394    1.527   1_545 S
C146   C393    1.527   .     S
C147   C1140   1.168   1_554 S
C148   C643    1.168   .     S
C149   C153    1.385   .     A
C149   O185    1.383   .     S
C149   C163    1.410   .     A
C150   C154    1.384   .     A
C150   C164    1.412   .     A
C150   O193    1.383   .     S
C151   C155    1.383   .     A
C151   C164    1.414   .     A
C151   O201    1.384   .     S
C152   C156    1.383   .     A
C152   C163    1.409   .     A
C152   O209    1.384   .     S
C153   H157    1.077   .     S
C153   C161    1.394   .     A
C154   C162    1.391   .     A
C154   H158    1.084   .     S
C155   H159    1.079   .     S
C155   C162    1.392   .     A
C156   H160    1.083   .     S
C156   C161    1.400   .     A
C164   C39     1.453   1_655 S
C165   C169    1.470   .     S
C166   C173    1.469   .     S
C167   C177    1.471   .     S
C168   C181    1.481   .     S
C169   O170    1.222   .     D
C169   O171    1.396   .     S
O171   H172    1.014   .     S
C173   O175    1.398   .     S
C173   O174    1.222   .     D
O175   H176    1.013   .     S
C177   O179    1.397   .     S
C177   O178    1.222   .     D
O179   H180    1.014   .     S
C181   O183    1.398   .     S
C181   O182    1.220   .     D
O183   H184    1.013   .     S
O185   C186    1.409   .     S
C186   H188    1.113   .     S
H187   C62     1.112   1_655 S
C189   H191    1.110   .     S
C189   H192    1.110   .     S
C189   C62     1.520   1_655 S
C189   H66     1.111   1_655 S
O193   C194    1.411   .     S
C194   H195    1.114   .     S
C194   H196    1.112   .     S
C194   C73     1.520   1_655 S
C197   H198    1.110   .     S
C197   H199    1.107   .     S
C197   H200    1.110   .     S
O201   C202    1.408   .     S
C202   H204    1.114   .     S
C202   H79     1.108   1_655 S
C202   C577    1.519   1_655 S
C205   H207    1.109   .     S
C205   C1070   1.519   1_554 S
C205   H1200   1.111   1_554 S
H206   C81     1.110   1_655 S
H208   C701    1.111   .     S
O209   C210    1.409   .     S
C210   H212    1.116   .     S
C210   C213    1.520   .     S
H211   C86     1.111   1_655 S
C213   H215    1.110   .     S
C213   H214    1.111   .     S
H216   C89     1.111   1_655 S
O217   C218    1.408   .     S
C218   H220    1.112   .     S
C218   H467    1.110   1_545 S
C218   C469    1.521   1_545 S
H219   C466    1.110   .     S
C221   H224    1.111   .     S
C221   C466    1.521   .     S
C221   H470    1.111   .     S
C221   H1215   1.108   1_554 S
H222   C469    1.111   1_545 S
H223   C717    1.108   .     S
O225   C226    1.411   .     S
C226   C229    1.520   .     S
C226   H228    1.115   .     S
C226   H475    1.113   .     S
H227   C474    1.113   1_545 S
C229   H230    1.111   .     S
C229   H479    1.111   .     S
C229   H480    1.111   .     S
H231   C477    1.111   1_545 S
H232   C477    1.111   1_545 S
O233   C234    1.408   .     S
C234   H236    1.112   .     S
C234   H483    1.110   1_545 S
C234   C485    1.521   1_545 S
H235   C482    1.110   .     S
C237   H240    1.111   .     S
C237   C482    1.521   .     S
C237   H486    1.111   .     S
C237   H735    1.108   .     S
H238   C485    1.111   1_545 S
H239   C1229   1.108   1_554 S
O241   C242    1.411   .     S
C242   C245    1.520   .     S
C242   H244    1.115   .     S
C242   H491    1.113   .     S
H243   C490    1.113   1_545 S
C245   H246    1.111   .     S
C245   H495    1.111   .     S
C245   H496    1.111   .     S
H247   C493    1.111   1_545 S
H248   C493    1.111   1_545 S
O249   C253    1.300   .     A
O249   Zn265   1.987   .     S
O250   Zn266   1.987   .     S
O250   C254    1.288   .     A
O251   C254    1.297   .     A
O251   Zn265   1.989   .     S
O252   Zn266   1.989   .     S
O252   C253    1.293   .     A
C253   C285    1.448   .     S
C254   C286    1.430   .     S
O255   C263    1.284   .     A
O255   Zn265   1.955   .     S
O256   Zn266   1.955   .     S
O256   C264    1.284   .     A
O257   C264    1.284   .     A
O257   Zn265   1.957   .     S
O258   C263    1.284   .     A
O258   Zn266   1.957   .     S
C259   C289    1.416   .     A
C259   O341    1.384   .     S
C259   C269    1.421   .     A
C260   C270    1.413   .     A
C260   C290    1.418   .     A
C260   O349    1.383   .     S
C261   O357    1.384   .     S
C261   C269    1.420   .     A
C261   C291    1.415   .     A
C262   O365    1.383   .     S
C262   C292    1.421   .     A
C262   C270    1.413   .     A
C263   C271    1.371   .     S
C264   C272    1.371   .     S
Zn265  N268    2.026   .     S
Zn266  N267    2.026   .     S
N267   C291    1.371   .     A
N267   C289    1.371   .     A
N268   C292    1.382   .     A
N268   C290    1.379   .     A
C270   C21     1.527   1_565 S
C271   C1264   1.168   1_554 S
C272   C767    1.168   .     S
C273   C277    1.385   .     A
C273   O309    1.383   .     S
C273   C287    1.410   .     A
C274   C278    1.384   .     A
C274   C288    1.412   .     A
C274   O317    1.383   .     S
C275   C279    1.383   .     A
C275   C288    1.414   .     A
C275   O325    1.384   .     S
C276   C280    1.383   .     A
C276   C287    1.409   .     A
C276   O333    1.384   .     S
C277   H281    1.077   .     S
C277   C285    1.394   .     A
C278   C286    1.391   .     A
C278   H282    1.084   .     S
C279   H283    1.079   .     S
C279   C286    1.392   .     A
C280   H284    1.083   .     S
C280   C285    1.400   .     A
C287   C412    1.453   1_455 S
C288   C411    1.453   .     S
C289   C293    1.470   .     S
C290   C297    1.469   .     S
C291   C301    1.471   .     S
C292   C305    1.481   .     S
C293   O294    1.222   .     D
C293   O295    1.396   .     S
O295   H296    1.014   .     S
C297   O299    1.398   .     S
C297   O298    1.222   .     D
O299   H300    1.013   .     S
C301   O303    1.397   .     S
C301   O302    1.222   .     D
O303   H304    1.014   .     S
C305   O307    1.398   .     S
C305   O306    1.220   .     D
O307   H308    1.013   .     S
O309   C310    1.409   .     S
C310   H312    1.113   .     S
C310   H435    1.112   1_455 S
C310   C437    1.520   1_455 S
H311   C434    1.112   .     S
C313   H315    1.110   .     S
C313   H316    1.110   .     S
C313   C434    1.520   .     S
C313   H438    1.111   .     S
H314   C437    1.111   1_455 S
O317   C318    1.411   .     S
C318   H319    1.114   .     S
C318   H320    1.112   .     S
C318   C445    1.520   .     S
C321   H322    1.110   .     S
C321   H323    1.107   .     S
C321   H324    1.110   .     S
C321   C442    1.520   1_455 S
O325   C326    1.408   .     S
C326   H328    1.114   .     S
C326   H451    1.108   .     S
C326   C949    1.519   .     S
H327   C450    1.108   1_455 S
C329   H331    1.109   .     S
C329   C1442   1.519   1_454 S
C329   H454    1.110   1_455 S
C329   H1324   1.111   1_554 S
H330   C453    1.110   .     S
H332   C825    1.111   .     S
O333   C334    1.409   .     S
C334   H336    1.116   .     S
C334   C337    1.520   .     S
C334   H459    1.111   1_455 S
H335   C458    1.111   .     S
C337   H339    1.110   .     S
C337   H338    1.111   .     S
C337   H464    1.111   1_455 S
H340   C461    1.111   .     S
O341   C342    1.408   .     S
C342   H344    1.112   .     S
H343   C94     1.110   1_565 S
C345   H348    1.111   .     S
C345   C94     1.521   1_565 S
C345   H98     1.111   1_565 S
C345   H1339   1.108   1_554 S
H347   C841    1.108   .     S
O349   C350    1.411   .     S
C350   C353    1.520   .     S
C350   H352    1.115   .     S
C350   H103    1.113   1_565 S
C353   H354    1.111   .     S
C353   H107    1.111   1_565 S
C353   H108    1.111   1_565 S
O357   C358    1.408   .     S
C358   H360    1.112   .     S
H359   C110    1.110   1_565 S
C361   H364    1.111   .     S
C361   C110    1.521   1_565 S
C361   H114    1.111   1_565 S
C361   H859    1.108   .     S
H363   C1353   1.108   1_554 S
O365   C366    1.411   .     S
C366   C369    1.520   .     S
C366   H368    1.115   .     S
C366   H119    1.113   1_565 S
C369   H370    1.111   .     S
C369   H123    1.111   1_565 S
C369   H124    1.111   1_565 S
O373   C377    1.300   .     A
O373   Zn389   1.987   .     S
O374   Zn390   1.987   .     S
O374   C378    1.288   .     A
O375   C378    1.297   .     A
O375   Zn389   1.989   .     S
O376   Zn390   1.989   .     S
O376   C377    1.293   .     A
C377   C409    1.448   .     S
C378   C410    1.430   .     S
O379   C387    1.284   .     A
O379   Zn389   1.955   .     S
O380   Zn390   1.955   .     S
O380   C388    1.284   .     A
O381   C388    1.284   .     A
O381   Zn389   1.957   .     S
O382   C387    1.284   .     A
O382   Zn390   1.957   .     S
C383   C413    1.416   .     A
C383   O465    1.384   .     S
C383   C393    1.421   .     A
C384   C394    1.413   .     A
C384   C414    1.418   .     A
C384   O473    1.383   .     S
C385   O481    1.384   .     S
C385   C393    1.420   .     A
C385   C415    1.415   .     A
C386   O489    1.383   .     S
C386   C416    1.421   .     A
C386   C394    1.413   .     A
C387   C395    1.371   .     S
C388   C396    1.371   .     S
Zn389  N392    2.026   .     S
Zn390  N391    2.026   .     S
N391   C415    1.371   .     A
N391   C413    1.371   .     A
N392   C416    1.382   .     A
N392   C414    1.379   .     A
C394   C145    1.527   1_565 S
C395   C1388   1.168   1_554 S
C396   C891    1.168   .     S
C397   C401    1.385   .     A
C397   O433    1.383   .     S
C397   C411    1.410   .     A
C398   C402    1.384   .     A
C398   C412    1.412   .     A
C398   O441    1.383   .     S
C399   C403    1.383   .     A
C399   C412    1.414   .     A
C399   O449    1.384   .     S
C400   C404    1.383   .     A
C400   C411    1.409   .     A
C400   O457    1.384   .     S
C401   H405    1.077   .     S
C401   C409    1.394   .     A
C402   C410    1.391   .     A
C402   H406    1.084   .     S
C403   H407    1.079   .     S
C403   C410    1.392   .     A
C404   H408    1.083   .     S
C404   C409    1.400   .     A
C412   C287    1.453   1_655 S
C413   C417    1.470   .     S
C414   C421    1.469   .     S
C415   C425    1.471   .     S
C416   C429    1.481   .     S
C417   O418    1.222   .     D
C417   O419    1.396   .     S
O419   H420    1.014   .     S
C421   O423    1.398   .     S
C421   O422    1.222   .     D
O423   H424    1.013   .     S
C425   O427    1.397   .     S
C425   O426    1.222   .     D
O427   H428    1.014   .     S
C429   O431    1.398   .     S
C429   O430    1.220   .     D
O431   H432    1.013   .     S
O433   C434    1.409   .     S
C434   H436    1.113   .     S
H435   C310    1.112   1_655 S
C437   H439    1.110   .     S
C437   H440    1.110   .     S
C437   C310    1.520   1_655 S
C437   H314    1.111   1_655 S
O441   C442    1.411   .     S
C442   H443    1.114   .     S
C442   H444    1.112   .     S
C442   C321    1.520   1_655 S
C445   H446    1.110   .     S
C445   H447    1.107   .     S
C445   H448    1.110   .     S
O449   C450    1.408   .     S
C450   H452    1.114   .     S
C450   H327    1.108   1_655 S
C450   C825    1.519   1_655 S
C453   H455    1.109   .     S
C453   C1318   1.519   1_554 S
C453   H1448   1.111   1_554 S
H454   C329    1.110   1_655 S
H456   C949    1.111   .     S
O457   C458    1.409   .     S
C458   H460    1.116   .     S
C458   C461    1.520   .     S
H459   C334    1.111   1_655 S
C461   H463    1.110   .     S
C461   H462    1.111   .     S
H464   C337    1.111   1_655 S
O465   C466    1.408   .     S
C466   H468    1.112   .     S
H467   C218    1.110   1_565 S
C469   H472    1.111   .     S
C469   C218    1.521   1_565 S
C469   H222    1.111   1_565 S
C469   H1463   1.108   1_554 S
H471   C965    1.108   .     S
O473   C474    1.411   .     S
C474   C477    1.520   .     S
C474   H476    1.115   .     S
C474   H227    1.113   1_565 S
C477   H478    1.111   .     S
C477   H231    1.111   1_565 S
C477   H232    1.111   1_565 S
O481   C482    1.408   .     S
C482   H484    1.112   .     S
H483   C234    1.110   1_565 S
C485   H488    1.111   .     S
C485   C234    1.521   1_565 S
C485   H238    1.111   1_565 S
C485   H983    1.108   .     S
H487   C1477   1.108   1_554 S
O489   C490    1.411   .     S
C490   C493    1.520   .     S
C490   H492    1.115   .     S
C490   H243    1.113   1_565 S
C493   H494    1.111   .     S
C493   H247    1.111   1_565 S
C493   H248    1.111   1_565 S
O497   C501    1.300   .     A
O497   Zn513   1.987   .     S
O498   Zn514   1.987   .     S
O498   C502    1.288   .     A
O499   C502    1.297   .     A
O499   Zn513   1.989   .     S
O500   Zn514   1.989   .     S
O500   C501    1.293   .     A
C501   C533    1.448   .     S
C502   C534    1.430   .     S
O503   C511    1.284   .     A
O503   Zn513   1.955   .     S
O504   Zn514   1.955   .     S
O504   C512    1.284   .     A
O505   C512    1.284   .     A
O505   Zn513   1.957   .     S
O506   C511    1.284   .     A
O506   Zn514   1.957   .     S
C507   C537    1.416   .     A
C507   O589    1.384   .     S
C507   C517    1.421   .     A
C508   C518    1.413   .     A
C508   C538    1.418   .     A
C508   O597    1.383   .     S
C509   O605    1.384   .     S
C509   C517    1.420   .     A
C509   C539    1.415   .     A
C510   O613    1.383   .     S
C510   C540    1.421   .     A
C510   C518    1.413   .     A
C511   C519    1.371   .     S
C512   C520    1.371   .     S
Zn513  N516    2.026   .     S
Zn514  N515    2.026   .     S
N515   C539    1.371   .     A
N515   C537    1.371   .     A
N516   C540    1.382   .     A
N516   C538    1.379   .     A
C517   C766    1.527   1_545 S
C518   C765    1.527   .     S
C520   C1015   1.168   .     S
C521   C525    1.385   .     A
C521   O557    1.383   .     S
C521   C535    1.410   .     A
C522   C526    1.384   .     A
C522   C536    1.412   .     A
C522   O565    1.383   .     S
C523   C527    1.383   .     A
C523   C536    1.414   .     A
C523   O573    1.384   .     S
C524   C528    1.383   .     A
C524   C535    1.409   .     A
C524   O581    1.384   .     S
C525   H529    1.077   .     S
C525   C533    1.394   .     A
C526   C534    1.391   .     A
C526   H530    1.084   .     S
C527   H531    1.079   .     S
C527   C534    1.392   .     A
C528   H532    1.083   .     S
C528   C533    1.400   .     A
C535   C660    1.453   1_455 S
C536   C659    1.453   .     S
C537   C541    1.470   .     S
C538   C545    1.469   .     S
C539   C549    1.471   .     S
C540   C553    1.481   .     S
C541   O542    1.222   .     D
C541   O543    1.396   .     S
O543   H544    1.014   .     S
C545   O547    1.398   .     S
C545   O546    1.222   .     D
O547   H548    1.013   .     S
C549   O551    1.397   .     S
C549   O550    1.222   .     D
O551   H552    1.014   .     S
C553   O555    1.398   .     S
C553   O554    1.220   .     D
O555   H556    1.013   .     S
O557   C558    1.409   .     S
C558   H560    1.113   .     S
C558   H683    1.112   1_455 S
C558   C685    1.520   1_455 S
H559   C682    1.112   .     S
C561   H563    1.110   .     S
C561   H564    1.110   .     S
C561   C682    1.520   .     S
C561   H686    1.111   .     S
H562   C685    1.111   1_455 S
O565   C566    1.411   .     S
C566   H567    1.114   .     S
C566   H568    1.112   .     S
C566   C693    1.520   .     S
C569   H570    1.110   .     S
C569   H571    1.107   .     S
C569   H572    1.110   .     S
C569   C690    1.520   1_455 S
O573   C574    1.408   .     S
C574   H576    1.114   .     S
C574   H699    1.108   .     S
C574   C1197   1.519   .     S
H575   C698    1.108   1_455 S
C577   H579    1.109   .     S
C577   C202    1.519   1_455 S
C577   H702    1.110   1_455 S
H578   C701    1.110   .     S
H580   C1073   1.111   .     S
O581   C582    1.409   .     S
C582   H584    1.116   .     S
C582   C585    1.520   .     S
C582   H707    1.111   1_455 S
H583   C706    1.111   .     S
C585   H587    1.110   .     S
C585   H586    1.111   .     S
C585   H712    1.111   1_455 S
H588   C709    1.111   .     S
O589   C590    1.408   .     S
C590   H592    1.112   .     S
C590   H839    1.110   1_545 S
C590   C841    1.521   1_545 S
H591   C838    1.110   .     S
C593   H596    1.111   .     S
C593   C838    1.521   .     S
C593   H842    1.111   .     S
H594   C841    1.111   1_545 S
H595   C1089   1.108   .     S
O597   C598    1.411   .     S
C598   C601    1.520   .     S
C598   H600    1.115   .     S
C598   H847    1.113   .     S
H599   C846    1.113   1_545 S
C601   H602    1.111   .     S
C601   H851    1.111   .     S
C601   H852    1.111   .     S
H603   C849    1.111   1_545 S
H604   C849    1.111   1_545 S
O605   C606    1.408   .     S
C606   H608    1.112   .     S
C606   H855    1.110   1_545 S
C606   C857    1.521   1_545 S
H607   C854    1.110   .     S
C609   H612    1.111   .     S
C609   C854    1.521   .     S
C609   H858    1.111   .     S
C609   H1107   1.108   .     S
H610   C857    1.111   1_545 S
O613   C614    1.411   .     S
C614   C617    1.520   .     S
C614   H616    1.115   .     S
C614   H863    1.113   .     S
H615   C862    1.113   1_545 S
C617   H618    1.111   .     S
C617   H867    1.111   .     S
C617   H868    1.111   .     S
H619   C865    1.111   1_545 S
H620   C865    1.111   1_545 S
O621   C625    1.300   .     A
O621   Zn637   1.987   .     S
O622   Zn638   1.987   .     S
O622   C626    1.288   .     A
O623   C626    1.297   .     A
O623   Zn637   1.989   .     S
O624   Zn638   1.989   .     S
O624   C625    1.293   .     A
C625   C657    1.448   .     S
C626   C658    1.430   .     S
O627   C635    1.284   .     A
O627   Zn637   1.955   .     S
O628   Zn638   1.955   .     S
O628   C636    1.284   .     A
O629   C636    1.284   .     A
O629   Zn637   1.957   .     S
O630   C635    1.284   .     A
O630   Zn638   1.957   .     S
C631   C661    1.416   .     A
C631   O713    1.384   .     S
C631   C641    1.421   .     A
C632   C642    1.413   .     A
C632   C662    1.418   .     A
C632   O721    1.383   .     S
C633   O729    1.384   .     S
C633   C641    1.420   .     A
C633   C663    1.415   .     A
C634   O737    1.383   .     S
C634   C664    1.421   .     A
C634   C642    1.413   .     A
C635   C643    1.371   .     S
C636   C644    1.371   .     S
Zn637  N640    2.026   .     S
Zn638  N639    2.026   .     S
N639   C663    1.371   .     A
N639   C661    1.371   .     A
N640   C664    1.382   .     A
N640   C662    1.379   .     A
C641   C890    1.527   1_545 S
C642   C889    1.527   .     S
C644   C1139   1.168   .     S
C645   C649    1.385   .     A
C645   O681    1.383   .     S
C645   C659    1.410   .     A
C646   C650    1.384   .     A
C646   C660    1.412   .     A
C646   O689    1.383   .     S
C647   C651    1.383   .     A
C647   C660    1.414   .     A
C647   O697    1.384   .     S
C648   C652    1.383   .     A
C648   C659    1.409   .     A
C648   O705    1.384   .     S
C649   H653    1.077   .     S
C649   C657    1.394   .     A
C650   C658    1.391   .     A
C650   H654    1.084   .     S
C651   H655    1.079   .     S
C651   C658    1.392   .     A
C652   H656    1.083   .     S
C652   C657    1.400   .     A
C660   C535    1.453   1_655 S
C661   C665    1.470   .     S
C662   C669    1.469   .     S
C663   C673    1.471   .     S
C664   C677    1.481   .     S
C665   O666    1.222   .     D
C665   O667    1.396   .     S
O667   H668    1.014   .     S
C669   O671    1.398   .     S
C669   O670    1.222   .     D
O671   H672    1.013   .     S
C673   O675    1.397   .     S
C673   O674    1.222   .     D
O675   H676    1.014   .     S
C677   O679    1.398   .     S
C677   O678    1.220   .     D
O679   H680    1.013   .     S
O681   C682    1.409   .     S
C682   H684    1.113   .     S
H683   C558    1.112   1_655 S
C685   H687    1.110   .     S
C685   H688    1.110   .     S
C685   C558    1.520   1_655 S
C685   H562    1.111   1_655 S
O689   C690    1.411   .     S
C690   H691    1.114   .     S
C690   H692    1.112   .     S
C690   C569    1.520   1_655 S
C693   H694    1.110   .     S
C693   H695    1.107   .     S
C693   H696    1.110   .     S
O697   C698    1.408   .     S
C698   H700    1.114   .     S
C698   H575    1.108   1_655 S
C698   C1073   1.519   1_655 S
C701   H703    1.109   .     S
H702   C577    1.110   1_655 S
H704   C1197   1.111   .     S
O705   C706    1.409   .     S
C706   H708    1.116   .     S
C706   C709    1.520   .     S
H707   C582    1.111   1_655 S
C709   H711    1.110   .     S
C709   H710    1.111   .     S
H712   C585    1.111   1_655 S
O713   C714    1.408   .     S
C714   H716    1.112   .     S
C714   H963    1.110   1_545 S
C714   C965    1.521   1_545 S
H715   C962    1.110   .     S
C717   H720    1.111   .     S
C717   C962    1.521   .     S
C717   H966    1.111   .     S
H718   C965    1.111   1_545 S
H719   C1213   1.108   .     S
O721   C722    1.411   .     S
C722   C725    1.520   .     S
C722   H724    1.115   .     S
C722   H971    1.113   .     S
H723   C970    1.113   1_545 S
C725   H726    1.111   .     S
C725   H975    1.111   .     S
C725   H976    1.111   .     S
H727   C973    1.111   1_545 S
H728   C973    1.111   1_545 S
O729   C730    1.408   .     S
C730   H732    1.112   .     S
C730   H979    1.110   1_545 S
C730   C981    1.521   1_545 S
H731   C978    1.110   .     S
C733   H736    1.111   .     S
C733   C978    1.521   .     S
C733   H982    1.111   .     S
C733   H1231   1.108   .     S
H734   C981    1.111   1_545 S
O737   C738    1.411   .     S
C738   C741    1.520   .     S
C738   H740    1.115   .     S
C738   H987    1.113   .     S
H739   C986    1.113   1_545 S
C741   H742    1.111   .     S
C741   H991    1.111   .     S
C741   H992    1.111   .     S
H743   C989    1.111   1_545 S
H744   C989    1.111   1_545 S
O745   C749    1.300   .     A
O745   Zn761   1.987   .     S
O746   Zn762   1.987   .     S
O746   C750    1.288   .     A
O747   C750    1.297   .     A
O747   Zn761   1.989   .     S
O748   Zn762   1.989   .     S
O748   C749    1.293   .     A
C749   C781    1.448   .     S
C750   C782    1.430   .     S
O751   C759    1.284   .     A
O751   Zn761   1.955   .     S
O752   Zn762   1.955   .     S
O752   C760    1.284   .     A
O753   C760    1.284   .     A
O753   Zn761   1.957   .     S
O754   C759    1.284   .     A
O754   Zn762   1.957   .     S
C755   C785    1.416   .     A
C755   O837    1.384   .     S
C755   C765    1.421   .     A
C756   C766    1.413   .     A
C756   C786    1.418   .     A
C756   O845    1.383   .     S
C757   O853    1.384   .     S
C757   C765    1.420   .     A
C757   C787    1.415   .     A
C758   O861    1.383   .     S
C758   C788    1.421   .     A
C758   C766    1.413   .     A
C759   C767    1.371   .     S
C760   C768    1.371   .     S
Zn761  N764    2.026   .     S
Zn762  N763    2.026   .     S
N763   C787    1.371   .     A
N763   C785    1.371   .     A
N764   C788    1.382   .     A
N764   C786    1.379   .     A
C766   C517    1.527   1_565 S
C768   C1263   1.168   .     S
C769   C773    1.385   .     A
C769   O805    1.383   .     S
C769   C783    1.410   .     A
C770   C774    1.384   .     A
C770   C784    1.412   .     A
C770   O813    1.383   .     S
C771   C775    1.383   .     A
C771   C784    1.414   .     A
C771   O821    1.384   .     S
C772   C776    1.383   .     A
C772   C783    1.409   .     A
C772   O829    1.384   .     S
C773   H777    1.077   .     S
C773   C781    1.394   .     A
C774   C782    1.391   .     A
C774   H778    1.084   .     S
C775   H779    1.079   .     S
C775   C782    1.392   .     A
C776   H780    1.083   .     S
C776   C781    1.400   .     A
C783   C908    1.453   1_455 S
C784   C907    1.453   .     S
C785   C789    1.470   .     S
C786   C793    1.469   .     S
C787   C797    1.471   .     S
C788   C801    1.481   .     S
C789   O790    1.222   .     D
C789   O791    1.396   .     S
O791   H792    1.014   .     S
C793   O795    1.398   .     S
C793   O794    1.222   .     D
O795   H796    1.013   .     S
C797   O799    1.397   .     S
C797   O798    1.222   .     D
O799   H800    1.014   .     S
C801   O803    1.398   .     S
C801   O802    1.220   .     D
O803   H804    1.013   .     S
O805   C806    1.409   .     S
C806   H808    1.113   .     S
C806   H931    1.112   1_455 S
C806   C933    1.520   1_455 S
H807   C930    1.112   .     S
C809   H811    1.110   .     S
C809   H812    1.110   .     S
C809   C930    1.520   .     S
C809   H934    1.111   .     S
H810   C933    1.111   1_455 S
O813   C814    1.411   .     S
C814   H815    1.114   .     S
C814   H816    1.112   .     S
C814   C941    1.520   .     S
C817   H818    1.110   .     S
C817   H819    1.107   .     S
C817   H820    1.110   .     S
C817   C938    1.520   1_455 S
O821   C822    1.408   .     S
C822   H824    1.114   .     S
C822   H947    1.108   .     S
C822   C1445   1.519   .     S
H823   C946    1.108   1_455 S
C825   H827    1.109   .     S
C825   C450    1.519   1_455 S
C825   H950    1.110   1_455 S
H826   C949    1.110   .     S
H828   C1321   1.111   .     S
O829   C830    1.409   .     S
C830   H832    1.116   .     S
C830   C833    1.520   .     S
C830   H955    1.111   1_455 S
H831   C954    1.111   .     S
C833   H835    1.110   .     S
C833   H834    1.111   .     S
C833   H960    1.111   1_455 S
H836   C957    1.111   .     S
O837   C838    1.408   .     S
C838   H840    1.112   .     S
H839   C590    1.110   1_565 S
C841   H844    1.111   .     S
C841   C590    1.521   1_565 S
C841   H594    1.111   1_565 S
H843   C1337   1.108   .     S
O845   C846    1.411   .     S
C846   C849    1.520   .     S
C846   H848    1.115   .     S
C846   H599    1.113   1_565 S
C849   H850    1.111   .     S
C849   H603    1.111   1_565 S
C849   H604    1.111   1_565 S
O853   C854    1.408   .     S
C854   H856    1.112   .     S
H855   C606    1.110   1_565 S
C857   H860    1.111   .     S
C857   C606    1.521   1_565 S
C857   H610    1.111   1_565 S
C857   H1355   1.108   .     S
O861   C862    1.411   .     S
C862   C865    1.520   .     S
C862   H864    1.115   .     S
C862   H615    1.113   1_565 S
C865   H866    1.111   .     S
C865   H619    1.111   1_565 S
C865   H620    1.111   1_565 S
O869   C873    1.300   .     A
O869   Zn885   1.987   .     S
O870   Zn886   1.987   .     S
O870   C874    1.288   .     A
O871   C874    1.297   .     A
O871   Zn885   1.989   .     S
O872   Zn886   1.989   .     S
O872   C873    1.293   .     A
C873   C905    1.448   .     S
C874   C906    1.430   .     S
O875   C883    1.284   .     A
O875   Zn885   1.955   .     S
O876   Zn886   1.955   .     S
O876   C884    1.284   .     A
O877   C884    1.284   .     A
O877   Zn885   1.957   .     S
O878   C883    1.284   .     A
O878   Zn886   1.957   .     S
C879   C909    1.416   .     A
C879   O961    1.384   .     S
C879   C889    1.421   .     A
C880   C890    1.413   .     A
C880   C910    1.418   .     A
C880   O969    1.383   .     S
C881   O977    1.384   .     S
C881   C889    1.420   .     A
C881   C911    1.415   .     A
C882   O985    1.383   .     S
C882   C912    1.421   .     A
C882   C890    1.413   .     A
C883   C891    1.371   .     S
C884   C892    1.371   .     S
Zn885  N888    2.026   .     S
Zn886  N887    2.026   .     S
N887   C911    1.371   .     A
N887   C909    1.371   .     A
N888   C912    1.382   .     A
N888   C910    1.379   .     A
C890   C641    1.527   1_565 S
C892   C1387   1.168   .     S
C893   C897    1.385   .     A
C893   O929    1.383   .     S
C893   C907    1.410   .     A
C894   C898    1.384   .     A
C894   C908    1.412   .     A
C894   O937    1.383   .     S
C895   C899    1.383   .     A
C895   C908    1.414   .     A
C895   O945    1.384   .     S
C896   C900    1.383   .     A
C896   C907    1.409   .     A
C896   O953    1.384   .     S
C897   H901    1.077   .     S
C897   C905    1.394   .     A
C898   C906    1.391   .     A
C898   H902    1.084   .     S
C899   H903    1.079   .     S
C899   C906    1.392   .     A
C900   H904    1.083   .     S
C900   C905    1.400   .     A
C908   C783    1.453   1_655 S
C909   C913    1.470   .     S
C910   C917    1.469   .     S
C911   C921    1.471   .     S
C912   C925    1.481   .     S
C913   O914    1.222   .     D
C913   O915    1.396   .     S
O915   H916    1.014   .     S
C917   O919    1.398   .     S
C917   O918    1.222   .     D
O919   H920    1.013   .     S
C921   O923    1.397   .     S
C921   O922    1.222   .     D
O923   H924    1.014   .     S
C925   O927    1.398   .     S
C925   O926    1.220   .     D
O927   H928    1.013   .     S
O929   C930    1.409   .     S
C930   H932    1.113   .     S
H931   C806    1.112   1_655 S
C933   H935    1.110   .     S
C933   H936    1.110   .     S
C933   C806    1.520   1_655 S
C933   H810    1.111   1_655 S
O937   C938    1.411   .     S
C938   H939    1.114   .     S
C938   H940    1.112   .     S
C938   C817    1.520   1_655 S
C941   H942    1.110   .     S
C941   H943    1.107   .     S
C941   H944    1.110   .     S
O945   C946    1.408   .     S
C946   H948    1.114   .     S
C946   H823    1.108   1_655 S
C946   C1321   1.519   1_655 S
C949   H951    1.109   .     S
H950   C825    1.110   1_655 S
H952   C1445   1.111   .     S
O953   C954    1.409   .     S
C954   H956    1.116   .     S
C954   C957    1.520   .     S
H955   C830    1.111   1_655 S
C957   H959    1.110   .     S
C957   H958    1.111   .     S
H960   C833    1.111   1_655 S
O961   C962    1.408   .     S
C962   H964    1.112   .     S
H963   C714    1.110   1_565 S
C965   H968    1.111   .     S
C965   C714    1.521   1_565 S
C965   H718    1.111   1_565 S
H967   C1461   1.108   .     S
O969   C970    1.411   .     S
C970   C973    1.520   .     S
C970   H972    1.115   .     S
C970   H723    1.113   1_565 S
C973   H974    1.111   .     S
C973   H727    1.111   1_565 S
C973   H728    1.111   1_565 S
O977   C978    1.408   .     S
C978   H980    1.112   .     S
H979   C730    1.110   1_565 S
C981   H984    1.111   .     S
C981   C730    1.521   1_565 S
C981   H734    1.111   1_565 S
C981   H1479   1.108   .     S
O985   C986    1.411   .     S
C986   C989    1.520   .     S
C986   H988    1.115   .     S
C986   H739    1.113   1_565 S
C989   H990    1.111   .     S
C989   H743    1.111   1_565 S
C989   H744    1.111   1_565 S
O993   C997    1.300   .     A
O993   Zn1009  1.987   .     S
O994   Zn1010  1.987   .     S
O994   C998    1.288   .     A
O995   C998    1.297   .     A
O995   Zn1009  1.989   .     S
O996   Zn1010  1.989   .     S
O996   C997    1.293   .     A
C997   C1029   1.448   .     S
C998   C1030   1.430   .     S
O999   C1007   1.284   .     A
O999   Zn1009  1.955   .     S
O1000  Zn1010  1.955   .     S
O1000  C1008   1.284   .     A
O1001  C1008   1.284   .     A
O1001  Zn1009  1.957   .     S
O1002  C1007   1.284   .     A
O1002  Zn1010  1.957   .     S
C1003  C1033   1.416   .     A
C1003  O1085   1.384   .     S
C1003  C1013   1.421   .     A
C1004  C1014   1.413   .     A
C1004  C1034   1.418   .     A
C1004  O1093   1.383   .     S
C1005  O1101   1.384   .     S
C1005  C1013   1.420   .     A
C1005  C1035   1.415   .     A
C1006  O1109   1.383   .     S
C1006  C1036   1.421   .     A
C1006  C1014   1.413   .     A
C1007  C1015   1.371   .     S
C1008  C1016   1.371   .     S
Zn1009 N1012   2.026   .     S
Zn1010 N1011   2.026   .     S
N1011  C1035   1.371   .     A
N1011  C1033   1.371   .     A
N1012  C1036   1.382   .     A
N1012  C1034   1.379   .     A
C1013  C1262   1.527   1_545 S
C1014  C1261   1.527   .     S
C1016  C23     1.168   1_556 S
C1017  C1021   1.385   .     A
C1017  O1053   1.383   .     S
C1017  C1031   1.410   .     A
C1018  C1022   1.384   .     A
C1018  C1032   1.412   .     A
C1018  O1061   1.383   .     S
C1019  C1023   1.383   .     A
C1019  C1032   1.414   .     A
C1019  O1069   1.384   .     S
C1020  C1024   1.383   .     A
C1020  C1031   1.409   .     A
C1020  O1077   1.384   .     S
C1021  H1025   1.077   .     S
C1021  C1029   1.394   .     A
C1022  C1030   1.391   .     A
C1022  H1026   1.084   .     S
C1023  H1027   1.079   .     S
C1023  C1030   1.392   .     A
C1024  H1028   1.083   .     S
C1024  C1029   1.400   .     A
C1031  C1156   1.453   1_455 S
C1032  C1155   1.453   .     S
C1033  C1037   1.470   .     S
C1034  C1041   1.469   .     S
C1035  C1045   1.471   .     S
C1036  C1049   1.481   .     S
C1037  O1038   1.222   .     D
C1037  O1039   1.396   .     S
O1039  H1040   1.014   .     S
C1041  O1043   1.398   .     S
C1041  O1042   1.222   .     D
O1043  H1044   1.013   .     S
C1045  O1047   1.397   .     S
C1045  O1046   1.222   .     D
O1047  H1048   1.014   .     S
C1049  O1051   1.398   .     S
C1049  O1050   1.220   .     D
O1051  H1052   1.013   .     S
O1053  C1054   1.409   .     S
C1054  H1056   1.113   .     S
C1054  H1179   1.112   1_455 S
C1054  C1181   1.520   1_455 S
H1055  C1178   1.112   .     S
C1057  H1059   1.110   .     S
C1057  H1060   1.110   .     S
C1057  C1178   1.520   .     S
C1057  H1182   1.111   .     S
H1058  C1181   1.111   1_455 S
O1061  C1062   1.411   .     S
C1062  H1063   1.114   .     S
C1062  H1064   1.112   .     S
C1062  C1189   1.520   .     S
C1065  H1066   1.110   .     S
C1065  H1067   1.107   .     S
C1065  H1068   1.110   .     S
C1065  C1186   1.520   1_455 S
O1069  C1070   1.408   .     S
C1070  H1072   1.114   .     S
C1070  H1195   1.108   .     S
C1070  C205    1.519   1_556 S
H1071  C1194   1.108   1_455 S
C1073  H1075   1.109   .     S
C1073  C698    1.519   1_455 S
C1073  H1198   1.110   1_455 S
H1074  C1197   1.110   .     S
H1076  C81     1.111   1_556 S
O1077  C1078   1.409   .     S
C1078  H1080   1.116   .     S
C1078  C1081   1.520   .     S
C1078  H1203   1.111   1_455 S
H1079  C1202   1.111   .     S
C1081  H1083   1.110   .     S
C1081  H1082   1.111   .     S
C1081  H1208   1.111   1_455 S
H1084  C1205   1.111   .     S
O1085  C1086   1.408   .     S
C1086  H1088   1.112   .     S
C1086  H1335   1.110   1_545 S
C1086  C1337   1.521   1_545 S
H1087  C1334   1.110   .     S
C1089  H1092   1.111   .     S
C1089  C1334   1.521   .     S
C1089  H1338   1.111   .     S
H1090  C1337   1.111   1_545 S
H1091  C97     1.108   1_556 S
O1093  C1094   1.411   .     S
C1094  C1097   1.520   .     S
C1094  H1096   1.115   .     S
C1094  H1343   1.113   .     S
H1095  C1342   1.113   1_545 S
C1097  H1098   1.111   .     S
C1097  H1347   1.111   .     S
C1097  H1348   1.111   .     S
H1099  C1345   1.111   1_545 S
H1100  C1345   1.111   1_545 S
O1101  C1102   1.408   .     S
C1102  H1104   1.112   .     S
C1102  H1351   1.110   1_545 S
C1102  C1353   1.521   1_545 S
H1103  C1350   1.110   .     S
C1105  H1108   1.111   .     S
C1105  C1350   1.521   .     S
C1105  H1354   1.111   .     S
C1105  H115    1.108   1_556 S
H1106  C1353   1.111   1_545 S
O1109  C1110   1.411   .     S
C1110  C1113   1.520   .     S
C1110  H1112   1.115   .     S
C1110  H1359   1.113   .     S
H1111  C1358   1.113   1_545 S
C1113  H1114   1.111   .     S
C1113  H1363   1.111   .     S
C1113  H1364   1.111   .     S
H1115  C1361   1.111   1_545 S
H1116  C1361   1.111   1_545 S
O1117  C1121   1.300   .     A
O1117  Zn1133  1.987   .     S
O1118  Zn1134  1.987   .     S
O1118  C1122   1.288   .     A
O1119  C1122   1.297   .     A
O1119  Zn1133  1.989   .     S
O1120  Zn1134  1.989   .     S
O1120  C1121   1.293   .     A
C1121  C1153   1.448   .     S
C1122  C1154   1.430   .     S
O1123  C1131   1.284   .     A
O1123  Zn1133  1.955   .     S
O1124  Zn1134  1.955   .     S
O1124  C1132   1.284   .     A
O1125  C1132   1.284   .     A
O1125  Zn1133  1.957   .     S
O1126  C1131   1.284   .     A
O1126  Zn1134  1.957   .     S
C1127  C1157   1.416   .     A
C1127  O1209   1.384   .     S
C1127  C1137   1.421   .     A
C1128  C1138   1.413   .     A
C1128  C1158   1.418   .     A
C1128  O1217   1.383   .     S
C1129  O1225   1.384   .     S
C1129  C1137   1.420   .     A
C1129  C1159   1.415   .     A
C1130  O1233   1.383   .     S
C1130  C1160   1.421   .     A
C1130  C1138   1.413   .     A
C1131  C1139   1.371   .     S
C1132  C1140   1.371   .     S
Zn1133 N1136   2.026   .     S
Zn1134 N1135   2.026   .     S
N1135  C1159   1.371   .     A
N1135  C1157   1.371   .     A
N1136  C1160   1.382   .     A
N1136  C1158   1.379   .     A
C1137  C1386   1.527   1_545 S
C1138  C1385   1.527   .     S
C1140  C147    1.168   1_556 S
C1141  C1145   1.385   .     A
C1141  O1177   1.383   .     S
C1141  C1155   1.410   .     A
C1142  C1146   1.384   .     A
C1142  C1156   1.412   .     A
C1142  O1185   1.383   .     S
C1143  C1147   1.383   .     A
C1143  C1156   1.414   .     A
C1143  O1193   1.384   .     S
C1144  C1148   1.383   .     A
C1144  C1155   1.409   .     A
C1144  O1201   1.384   .     S
C1145  H1149   1.077   .     S
C1145  C1153   1.394   .     A
C1146  C1154   1.391   .     A
C1146  H1150   1.084   .     S
C1147  H1151   1.079   .     S
C1147  C1154   1.392   .     A
C1148  H1152   1.083   .     S
C1148  C1153   1.400   .     A
C1156  C1031   1.453   1_655 S
C1157  C1161   1.470   .     S
C1158  C1165   1.469   .     S
C1159  C1169   1.471   .     S
C1160  C1173   1.481   .     S
C1161  O1162   1.222   .     D
C1161  O1163   1.396   .     S
O1163  H1164   1.014   .     S
C1165  O1167   1.398   .     S
C1165  O1166   1.222   .     D
O1167  H1168   1.013   .     S
C1169  O1171   1.397   .     S
C1169  O1170   1.222   .     D
O1171  H1172   1.014   .     S
C1173  O1175   1.398   .     S
C1173  O1174   1.220   .     D
O1175  H1176   1.013   .     S
O1177  C1178   1.409   .     S
C1178  H1180   1.113   .     S
H1179  C1054   1.112   1_655 S
C1181  H1183   1.110   .     S
C1181  H1184   1.110   .     S
C1181  C1054   1.520   1_655 S
C1181  H1058   1.111   1_655 S
O1185  C1186   1.411   .     S
C1186  H1187   1.114   .     S
C1186  H1188   1.112   .     S
C1186  C1065   1.520   1_655 S
C1189  H1190   1.110   .     S
C1189  H1191   1.107   .     S
C1189  H1192   1.110   .     S
O1193  C1194   1.408   .     S
C1194  H1196   1.114   .     S
C1194  H1071   1.108   1_655 S
C1194  C81     1.519   1_656 S
C1197  H1199   1.109   .     S
H1198  C1073   1.110   1_655 S
H1200  C205    1.111   1_556 S
O1201  C1202   1.409   .     S
C1202  H1204   1.116   .     S
C1202  C1205   1.520   .     S
H1203  C1078   1.111   1_655 S
C1205  H1207   1.110   .     S
C1205  H1206   1.111   .     S
H1208  C1081   1.111   1_655 S
O1209  C1210   1.408   .     S
C1210  H1212   1.112   .     S
C1210  H1459   1.110   1_545 S
C1210  C1461   1.521   1_545 S
H1211  C1458   1.110   .     S
C1213  H1216   1.111   .     S
C1213  C1458   1.521   .     S
C1213  H1462   1.111   .     S
H1214  C1461   1.111   1_545 S
H1215  C221    1.108   1_556 S
O1217  C1218   1.411   .     S
C1218  C1221   1.520   .     S
C1218  H1220   1.115   .     S
C1218  H1467   1.113   .     S
H1219  C1466   1.113   1_545 S
C1221  H1222   1.111   .     S
C1221  H1471   1.111   .     S
C1221  H1472   1.111   .     S
H1223  C1469   1.111   1_545 S
H1224  C1469   1.111   1_545 S
O1225  C1226   1.408   .     S
C1226  H1228   1.112   .     S
C1226  H1475   1.110   1_545 S
C1226  C1477   1.521   1_545 S
H1227  C1474   1.110   .     S
C1229  H1232   1.111   .     S
C1229  C1474   1.521   .     S
C1229  H1478   1.111   .     S
C1229  H239    1.108   1_556 S
H1230  C1477   1.111   1_545 S
O1233  C1234   1.411   .     S
C1234  C1237   1.520   .     S
C1234  H1236   1.115   .     S
C1234  H1483   1.113   .     S
H1235  C1482   1.113   1_545 S
C1237  H1238   1.111   .     S
C1237  H1487   1.111   .     S
C1237  H1488   1.111   .     S
H1239  C1485   1.111   1_545 S
H1240  C1485   1.111   1_545 S
O1241  C1245   1.300   .     A
O1241  Zn1257  1.987   .     S
O1242  Zn1258  1.987   .     S
O1242  C1246   1.288   .     A
O1243  C1246   1.297   .     A
O1243  Zn1257  1.989   .     S
O1244  Zn1258  1.989   .     S
O1244  C1245   1.293   .     A
C1245  C1277   1.448   .     S
C1246  C1278   1.430   .     S
O1247  C1255   1.284   .     A
O1247  Zn1257  1.955   .     S
O1248  Zn1258  1.955   .     S
O1248  C1256   1.284   .     A
O1249  C1256   1.284   .     A
O1249  Zn1257  1.957   .     S
O1250  C1255   1.284   .     A
O1250  Zn1258  1.957   .     S
C1251  C1281   1.416   .     A
C1251  O1333   1.384   .     S
C1251  C1261   1.421   .     A
C1252  C1262   1.413   .     A
C1252  C1282   1.418   .     A
C1252  O1341   1.383   .     S
C1253  O1349   1.384   .     S
C1253  C1261   1.420   .     A
C1253  C1283   1.415   .     A
C1254  O1357   1.383   .     S
C1254  C1284   1.421   .     A
C1254  C1262   1.413   .     A
C1255  C1263   1.371   .     S
C1256  C1264   1.371   .     S
Zn1257 N1260   2.026   .     S
Zn1258 N1259   2.026   .     S
N1259  C1283   1.371   .     A
N1259  C1281   1.371   .     A
N1260  C1284   1.382   .     A
N1260  C1282   1.379   .     A
C1262  C1013   1.527   1_565 S
C1264  C271    1.168   1_556 S
C1265  C1269   1.385   .     A
C1265  O1301   1.383   .     S
C1265  C1279   1.410   .     A
C1266  C1270   1.384   .     A
C1266  C1280   1.412   .     A
C1266  O1309   1.383   .     S
C1267  C1271   1.383   .     A
C1267  C1280   1.414   .     A
C1267  O1317   1.384   .     S
C1268  C1272   1.383   .     A
C1268  C1279   1.409   .     A
C1268  O1325   1.384   .     S
C1269  H1273   1.077   .     S
C1269  C1277   1.394   .     A
C1270  C1278   1.391   .     A
C1270  H1274   1.084   .     S
C1271  H1275   1.079   .     S
C1271  C1278   1.392   .     A
C1272  H1276   1.083   .     S
C1272  C1277   1.400   .     A
C1279  C1404   1.453   1_455 S
C1280  C1403   1.453   .     S
C1281  C1285   1.470   .     S
C1282  C1289   1.469   .     S
C1283  C1293   1.471   .     S
C1284  C1297   1.481   .     S
C1285  O1286   1.222   .     D
C1285  O1287   1.396   .     S
O1287  H1288   1.014   .     S
C1289  O1291   1.398   .     S
C1289  O1290   1.222   .     D
O1291  H1292   1.013   .     S
C1293  O1295   1.397   .     S
C1293  O1294   1.222   .     D
O1295  H1296   1.014   .     S
C1297  O1299   1.398   .     S
C1297  O1298   1.220   .     D
O1299  H1300   1.013   .     S
O1301  C1302   1.409   .     S
C1302  H1304   1.113   .     S
C1302  H1427   1.112   1_455 S
C1302  C1429   1.520   1_455 S
H1303  C1426   1.112   .     S
C1305  H1307   1.110   .     S
C1305  H1308   1.110   .     S
C1305  C1426   1.520   .     S
C1305  H1430   1.111   .     S
H1306  C1429   1.111   1_455 S
O1309  C1310   1.411   .     S
C1310  H1311   1.114   .     S
C1310  H1312   1.112   .     S
C1310  C1437   1.520   .     S
C1313  H1314   1.110   .     S
C1313  H1315   1.107   .     S
C1313  H1316   1.110   .     S
C1313  C1434   1.520   1_455 S
O1317  C1318   1.408   .     S
C1318  H1320   1.114   .     S
C1318  H1443   1.108   .     S
C1318  C453    1.519   1_556 S
H1319  C1442   1.108   1_455 S
C1321  H1323   1.109   .     S
C1321  C946    1.519   1_455 S
C1321  H1446   1.110   1_455 S
H1322  C1445   1.110   .     S
H1324  C329    1.111   1_556 S
O1325  C1326   1.409   .     S
C1326  H1328   1.116   .     S
C1326  C1329   1.520   .     S
C1326  H1451   1.111   1_455 S
H1327  C1450   1.111   .     S
C1329  H1331   1.110   .     S
C1329  H1330   1.111   .     S
C1329  H1456   1.111   1_455 S
H1332  C1453   1.111   .     S
O1333  C1334   1.408   .     S
C1334  H1336   1.112   .     S
H1335  C1086   1.110   1_565 S
C1337  H1340   1.111   .     S
C1337  C1086   1.521   1_565 S
C1337  H1090   1.111   1_565 S
H1339  C345    1.108   1_556 S
O1341  C1342   1.411   .     S
C1342  C1345   1.520   .     S
C1342  H1344   1.115   .     S
C1342  H1095   1.113   1_565 S
C1345  H1346   1.111   .     S
C1345  H1099   1.111   1_565 S
C1345  H1100   1.111   1_565 S
O1349  C1350   1.408   .     S
C1350  H1352   1.112   .     S
H1351  C1102   1.110   1_565 S
C1353  H1356   1.111   .     S
C1353  C1102   1.521   1_565 S
C1353  H1106   1.111   1_565 S
C1353  H363    1.108   1_556 S
O1357  C1358   1.411   .     S
C1358  C1361   1.520   .     S
C1358  H1360   1.115   .     S
C1358  H1111   1.113   1_565 S
C1361  H1362   1.111   .     S
C1361  H1115   1.111   1_565 S
C1361  H1116   1.111   1_565 S
O1365  C1369   1.300   .     A
O1365  Zn1381  1.987   .     S
O1366  Zn1382  1.987   .     S
O1366  C1370   1.288   .     A
O1367  C1370   1.297   .     A
O1367  Zn1381  1.989   .     S
O1368  Zn1382  1.989   .     S
O1368  C1369   1.293   .     A
C1369  C1401   1.448   .     S
C1370  C1402   1.430   .     S
O1371  C1379   1.284   .     A
O1371  Zn1381  1.955   .     S
O1372  Zn1382  1.955   .     S
O1372  C1380   1.284   .     A
O1373  C1380   1.284   .     A
O1373  Zn1381  1.957   .     S
O1374  C1379   1.284   .     A
O1374  Zn1382  1.957   .     S
C1375  C1405   1.416   .     A
C1375  O1457   1.384   .     S
C1375  C1385   1.421   .     A
C1376  C1386   1.413   .     A
C1376  C1406   1.418   .     A
C1376  O1465   1.383   .     S
C1377  O1473   1.384   .     S
C1377  C1385   1.420   .     A
C1377  C1407   1.415   .     A
C1378  O1481   1.383   .     S
C1378  C1408   1.421   .     A
C1378  C1386   1.413   .     A
C1379  C1387   1.371   .     S
C1380  C1388   1.371   .     S
Zn1381 N1384   2.026   .     S
Zn1382 N1383   2.026   .     S
N1383  C1407   1.371   .     A
N1383  C1405   1.371   .     A
N1384  C1408   1.382   .     A
N1384  C1406   1.379   .     A
C1386  C1137   1.527   1_565 S
C1388  C395    1.168   1_556 S
C1389  C1393   1.385   .     A
C1389  O1425   1.383   .     S
C1389  C1403   1.410   .     A
C1390  C1394   1.384   .     A
C1390  C1404   1.412   .     A
C1390  O1433   1.383   .     S
C1391  C1395   1.383   .     A
C1391  C1404   1.414   .     A
C1391  O1441   1.384   .     S
C1392  C1396   1.383   .     A
C1392  C1403   1.409   .     A
C1392  O1449   1.384   .     S
C1393  H1397   1.077   .     S
C1393  C1401   1.394   .     A
C1394  C1402   1.391   .     A
C1394  H1398   1.084   .     S
C1395  H1399   1.079   .     S
C1395  C1402   1.392   .     A
C1396  H1400   1.083   .     S
C1396  C1401   1.400   .     A
C1404  C1279   1.453   1_655 S
C1405  C1409   1.470   .     S
C1406  C1413   1.469   .     S
C1407  C1417   1.471   .     S
C1408  C1421   1.481   .     S
C1409  O1410   1.222   .     D
C1409  O1411   1.396   .     S
O1411  H1412   1.014   .     S
C1413  O1415   1.398   .     S
C1413  O1414   1.222   .     D
O1415  H1416   1.013   .     S
C1417  O1419   1.397   .     S
C1417  O1418   1.222   .     D
O1419  H1420   1.014   .     S
C1421  O1423   1.398   .     S
C1421  O1422   1.220   .     D
O1423  H1424   1.013   .     S
O1425  C1426   1.409   .     S
C1426  H1428   1.113   .     S
H1427  C1302   1.112   1_655 S
C1429  H1431   1.110   .     S
C1429  H1432   1.110   .     S
C1429  C1302   1.520   1_655 S
C1429  H1306   1.111   1_655 S
O1433  C1434   1.411   .     S
C1434  H1435   1.114   .     S
C1434  H1436   1.112   .     S
C1434  C1313   1.520   1_655 S
C1437  H1438   1.110   .     S
C1437  H1439   1.107   .     S
C1437  H1440   1.110   .     S
O1441  C1442   1.408   .     S
C1442  H1444   1.114   .     S
C1442  H1319   1.108   1_655 S
C1442  C329    1.519   1_656 S
C1445  H1447   1.109   .     S
H1446  C1321   1.110   1_655 S
H1448  C453    1.111   1_556 S
O1449  C1450   1.409   .     S
C1450  H1452   1.116   .     S
C1450  C1453   1.520   .     S
H1451  C1326   1.111   1_655 S
C1453  H1455   1.110   .     S
C1453  H1454   1.111   .     S
H1456  C1329   1.111   1_655 S
O1457  C1458   1.408   .     S
C1458  H1460   1.112   .     S
H1459  C1210   1.110   1_565 S
C1461  H1464   1.111   .     S
C1461  C1210   1.521   1_565 S
C1461  H1214   1.111   1_565 S
H1463  C469    1.108   1_556 S
O1465  C1466   1.411   .     S
C1466  C1469   1.520   .     S
C1466  H1468   1.115   .     S
C1466  H1219   1.113   1_565 S
C1469  H1470   1.111   .     S
C1469  H1223   1.111   1_565 S
C1469  H1224   1.111   1_565 S
O1473  C1474   1.408   .     S
C1474  H1476   1.112   .     S
H1475  C1226   1.110   1_565 S
C1477  H1480   1.111   .     S
C1477  C1226   1.521   1_565 S
C1477  H1230   1.111   1_565 S
C1477  H487    1.108   1_556 S
O1481  C1482   1.411   .     S
C1482  C1485   1.520   .     S
C1482  H1484   1.115   .     S
C1482  H1235   1.113   1_565 S
C1485  H1486   1.111   .     S
C1485  H1239   1.111   1_565 S
C1485  H1240   1.111   1_565 S
