data_str_m3_o1_o17_pcu_sym.64
_audit_creation_date              2020-01-03
_audit_creation_method            'Materials Studio'
_symmetry_space_group_name_H-M    'P1'
_symmetry_Int_Tables_number       1
_symmetry_cell_setting            triclinic
loop_
_symmetry_equiv_pos_as_xyz
  x,y,z
_cell_length_a                    32.0869
_cell_length_b                    29.9095
_cell_length_c                    29.9064
_cell_angle_alpha                 90.0274
_cell_angle_beta                  91.7030
_cell_angle_gamma                 89.9641
loop_
_atom_site_label
_atom_site_type_symbol
_atom_site_fract_x
_atom_site_fract_y
_atom_site_fract_z
_atom_site_U_iso_or_equiv
_atom_site_adp_type
_atom_site_occupancy
C1     C     0.08676   0.16669   0.24952   0.00000  Uiso   1.00
C2     C     0.04254   0.16674   0.24950   0.00000  Uiso   1.00
C3     C     0.19606   0.02365   0.27451   0.00000  Uiso   1.00
C4     C     0.13727   0.30969   0.22551   0.00000  Uiso   1.00
C5     C     0.13729   0.02366   0.22548   0.00000  Uiso   1.00
C6     C     0.19604   0.30968   0.27453   0.00000  Uiso   1.00
C7     C     0.16732   0.16658   0.16378   0.00000  Uiso   1.00
C8     C     0.16612   0.16662   0.33618   0.00000  Uiso   1.00
C9     C     0.20392   0.16421   0.40787   0.00000  Uiso   1.00
C10    C     0.12963   0.17377   0.09217   0.00000  Uiso   1.00
C11    C     0.16572   0.16580   0.38395   0.00000  Uiso   1.00
C12    C     0.24657   0.16665   0.25025   0.00000  Uiso   1.00
C13    C     0.16724   0.16564   0.11592   0.00000  Uiso   1.00
C14    C     0.12726   0.16473   0.40515   0.00000  Uiso   1.00
C15    C     0.20433   0.15496   0.09447   0.00000  Uiso   1.00
C16    C     0.12723   0.16353   0.45198   0.00000  Uiso   1.00
C17    C     0.20377   0.15319   0.04767   0.00000  Uiso   1.00
C18    C     0.16549   0.15907   0.47638   0.00000  Uiso   1.00
C19    C     0.16561   0.15904   0.02337   0.00000  Uiso   1.00
C20    C     0.20366   0.15477   0.45390   0.00000  Uiso   1.00
C21    C     0.12765   0.16512   0.04590   0.00000  Uiso   1.00
C22    C     0.08963   0.16322   0.47477   0.00000  Uiso   1.00
C23    C     0.08932   0.16201   0.02115   0.00000  Uiso   1.00
C24    C     0.23999   0.14231   0.02476   0.00000  Uiso   1.00
C25    C     0.24279   0.17760   0.38506   0.00000  Uiso   1.00
C26    C     0.09460   0.19557   0.11565   0.00000  Uiso   1.00
C27    C     0.08740   0.16668   0.37841   0.00000  Uiso   1.00
C28    C     0.24415   0.14881   0.12073   0.00000  Uiso   1.00
C29    C     0.04863   0.15187   0.04124   0.00000  Uiso   1.00
C30    C     0.27623   0.11891   0.45791   0.00000  Uiso   1.00
C31    C     0.23987   0.14084   0.47839   0.00000  Uiso   1.00
C32    C     0.02106   0.12715   0.23977   0.00000  Uiso   1.00
C33    C     0.31229   0.20618   0.26016   0.00000  Uiso   1.00
C34    C     0.31174   0.12705   0.24030   0.00000  Uiso   1.00
C35    C     0.02162   0.20626   0.25973   0.00000  Uiso   1.00
C36    C     0.29080   0.16661   0.25034   0.00000  Uiso   1.00
H37    H     0.05992   0.16181   0.45670   0.00000  Uiso   1.00
H38    H     0.27180   0.16717   0.11166   0.00000  Uiso   1.00
H39    H     0.02000   0.16446   0.02562   0.00000  Uiso   1.00
H40    H     0.30669   0.12039   0.47460   0.00000  Uiso   1.00
H41    H     0.21793   0.07534   0.30553   0.00000  Uiso   1.00
H42    H     0.11540   0.25802   0.19460   0.00000  Uiso   1.00
H43    H     0.11551   0.07534   0.19439   0.00000  Uiso   1.00
H44    H     0.21784   0.25799   0.30561   0.00000  Uiso   1.00
H45    H     0.26834   0.13261   0.04276   0.00000  Uiso   1.00
H46    H     0.03707   0.09645   0.23159   0.00000  Uiso   1.00
H47    H     0.29628   0.23687   0.26840   0.00000  Uiso   1.00
H48    H     0.29528   0.09628   0.23246   0.00000  Uiso   1.00
H49    H     0.03810   0.23698   0.26773   0.00000  Uiso   1.00
H50    H     0.24695   0.16968   0.35008   0.00000  Uiso   1.00
H51    H     0.08752   0.18612   0.14960   0.00000  Uiso   1.00
H52    H     0.06375   0.19113   0.38637   0.00000  Uiso   1.00
N53    N     0.16667   0.28573   0.25000   0.00000  Uiso   1.00
N54    N     0.16667   0.04760   0.25000   0.00000  Uiso   1.00
O55    O     0.10559   0.20487   0.24999   0.00000  Uiso   1.00
O56    O     0.07447   0.22562   0.09772   0.00000  Uiso   1.00
O57    O     0.08029   0.13999   0.34829   0.00000  Uiso   1.00
O58    O     0.24667   0.12207   0.15148   0.00000  Uiso   1.00
O59    O     0.04651   0.12736   0.07373   0.00000  Uiso   1.00
O60    O     0.27209   0.09671   0.42379   0.00000  Uiso   1.00
O61    O     0.22642   0.04431   0.30054   0.00000  Uiso   1.00
O62    O     0.10690   0.28905   0.19950   0.00000  Uiso   1.00
O63    O     0.10702   0.04432   0.19933   0.00000  Uiso   1.00
O64    O     0.22631   0.28902   0.30069   0.00000  Uiso   1.00
O65    O     0.22774   0.12846   0.25000   0.00000  Uiso   1.00
O66    O     0.22774   0.20487   0.25000   0.00000  Uiso   1.00
O67    O     0.10559   0.12846   0.24999   0.00000  Uiso   1.00
O68    O     0.16666   0.20489   0.18392   0.00000  Uiso   1.00
O69    O     0.16667   0.12844   0.31607   0.00000  Uiso   1.00
O70    O     0.16667   0.20489   0.31607   0.00000  Uiso   1.00
O71    O     0.16666   0.12844   0.18392   0.00000  Uiso   1.00
O72    O     0.26977   0.19936   0.40479   0.00000  Uiso   1.00
Zn73   Zn    0.16667   0.21771   0.25000   0.00000  Uiso   1.00
Zn74   Zn    0.16667   0.11563   0.25000   0.00000  Uiso   1.00
C75    C     0.42010   0.16669   0.24952   0.00000  Uiso   1.00
C76    C     0.37587   0.16674   0.24950   0.00000  Uiso   1.00
C77    C     0.52939   0.02365   0.27451   0.00000  Uiso   1.00
C78    C     0.47061   0.30969   0.22551   0.00000  Uiso   1.00
C79    C     0.47063   0.02366   0.22548   0.00000  Uiso   1.00
C80    C     0.52937   0.30968   0.27453   0.00000  Uiso   1.00
C81    C     0.50065   0.16658   0.16378   0.00000  Uiso   1.00
C82    C     0.49945   0.16662   0.33618   0.00000  Uiso   1.00
C83    C     0.53725   0.16421   0.40787   0.00000  Uiso   1.00
C84    C     0.46296   0.17377   0.09217   0.00000  Uiso   1.00
C85    C     0.49905   0.16580   0.38395   0.00000  Uiso   1.00
C86    C     0.57991   0.16665   0.25025   0.00000  Uiso   1.00
C87    C     0.50057   0.16564   0.11592   0.00000  Uiso   1.00
C88    C     0.46060   0.16473   0.40515   0.00000  Uiso   1.00
C89    C     0.53766   0.15496   0.09447   0.00000  Uiso   1.00
C90    C     0.46056   0.16353   0.45198   0.00000  Uiso   1.00
C91    C     0.53711   0.15319   0.04767   0.00000  Uiso   1.00
C92    C     0.49882   0.15907   0.47638   0.00000  Uiso   1.00
C93    C     0.49894   0.15904   0.02337   0.00000  Uiso   1.00
C94    C     0.53699   0.15477   0.45390   0.00000  Uiso   1.00
C95    C     0.46098   0.16512   0.04590   0.00000  Uiso   1.00
C96    C     0.42297   0.16322   0.47477   0.00000  Uiso   1.00
C97    C     0.42266   0.16201   0.02115   0.00000  Uiso   1.00
C98    C     0.57332   0.14231   0.02476   0.00000  Uiso   1.00
C99    C     0.57612   0.17760   0.38506   0.00000  Uiso   1.00
C100   C     0.42794   0.19557   0.11565   0.00000  Uiso   1.00
C101   C     0.42074   0.16668   0.37841   0.00000  Uiso   1.00
C102   C     0.57748   0.14881   0.12073   0.00000  Uiso   1.00
C103   C     0.38196   0.15187   0.04124   0.00000  Uiso   1.00
C104   C     0.60957   0.11891   0.45791   0.00000  Uiso   1.00
C105   C     0.57320   0.14084   0.47839   0.00000  Uiso   1.00
C106   C     0.35439   0.12715   0.23977   0.00000  Uiso   1.00
C107   C     0.64562   0.20618   0.26016   0.00000  Uiso   1.00
C108   C     0.64507   0.12705   0.24030   0.00000  Uiso   1.00
C109   C     0.35495   0.20626   0.25973   0.00000  Uiso   1.00
C110   C     0.62413   0.16661   0.25034   0.00000  Uiso   1.00
H111   H     0.39326   0.16181   0.45670   0.00000  Uiso   1.00
H112   H     0.60514   0.16717   0.11166   0.00000  Uiso   1.00
H113   H     0.35333   0.16446   0.02562   0.00000  Uiso   1.00
H114   H     0.64002   0.12039   0.47460   0.00000  Uiso   1.00
H115   H     0.55126   0.07534   0.30553   0.00000  Uiso   1.00
H116   H     0.44873   0.25802   0.19460   0.00000  Uiso   1.00
H117   H     0.44884   0.07534   0.19439   0.00000  Uiso   1.00
H118   H     0.55117   0.25799   0.30561   0.00000  Uiso   1.00
H119   H     0.60168   0.13261   0.04276   0.00000  Uiso   1.00
H120   H     0.37040   0.09645   0.23159   0.00000  Uiso   1.00
H121   H     0.62961   0.23687   0.26840   0.00000  Uiso   1.00
H122   H     0.62862   0.09628   0.23246   0.00000  Uiso   1.00
H123   H     0.37143   0.23698   0.26773   0.00000  Uiso   1.00
H124   H     0.58028   0.16968   0.35008   0.00000  Uiso   1.00
H125   H     0.42085   0.18612   0.14960   0.00000  Uiso   1.00
H126   H     0.39708   0.19113   0.38637   0.00000  Uiso   1.00
N127   N     0.50000   0.28573   0.25000   0.00000  Uiso   1.00
N128   N     0.50000   0.04760   0.25000   0.00000  Uiso   1.00
O129   O     0.43892   0.20487   0.24999   0.00000  Uiso   1.00
O130   O     0.40781   0.22562   0.09772   0.00000  Uiso   1.00
O131   O     0.41362   0.13999   0.34829   0.00000  Uiso   1.00
O132   O     0.58000   0.12207   0.15148   0.00000  Uiso   1.00
O133   O     0.37984   0.12736   0.07373   0.00000  Uiso   1.00
O134   O     0.60543   0.09671   0.42379   0.00000  Uiso   1.00
O135   O     0.55975   0.04431   0.30054   0.00000  Uiso   1.00
O136   O     0.44024   0.28905   0.19950   0.00000  Uiso   1.00
O137   O     0.44035   0.04432   0.19933   0.00000  Uiso   1.00
O138   O     0.55965   0.28902   0.30069   0.00000  Uiso   1.00
O139   O     0.56108   0.12846   0.25000   0.00000  Uiso   1.00
O140   O     0.56108   0.20487   0.25000   0.00000  Uiso   1.00
O141   O     0.43892   0.12846   0.24999   0.00000  Uiso   1.00
O142   O     0.49999   0.20489   0.18392   0.00000  Uiso   1.00
O143   O     0.50001   0.12844   0.31607   0.00000  Uiso   1.00
O144   O     0.50001   0.20489   0.31607   0.00000  Uiso   1.00
O145   O     0.49999   0.12844   0.18392   0.00000  Uiso   1.00
O146   O     0.60310   0.19936   0.40479   0.00000  Uiso   1.00
Zn147  Zn    0.50000   0.21771   0.25000   0.00000  Uiso   1.00
Zn148  Zn    0.50000   0.11563   0.25000   0.00000  Uiso   1.00
C149   C     0.75343   0.16669   0.24952   0.00000  Uiso   1.00
C150   C     0.70921   0.16674   0.24950   0.00000  Uiso   1.00
C151   C     0.86272   0.02365   0.27451   0.00000  Uiso   1.00
C152   C     0.80394   0.30969   0.22551   0.00000  Uiso   1.00
C153   C     0.80396   0.02366   0.22548   0.00000  Uiso   1.00
C154   C     0.86271   0.30968   0.27453   0.00000  Uiso   1.00
C155   C     0.83398   0.16658   0.16378   0.00000  Uiso   1.00
C156   C     0.83279   0.16662   0.33618   0.00000  Uiso   1.00
C157   C     0.87059   0.16421   0.40787   0.00000  Uiso   1.00
C158   C     0.79630   0.17377   0.09217   0.00000  Uiso   1.00
C159   C     0.83238   0.16580   0.38395   0.00000  Uiso   1.00
C160   C     0.91324   0.16665   0.25025   0.00000  Uiso   1.00
C161   C     0.83391   0.16564   0.11592   0.00000  Uiso   1.00
C162   C     0.79393   0.16473   0.40515   0.00000  Uiso   1.00
C163   C     0.87100   0.15496   0.09447   0.00000  Uiso   1.00
C164   C     0.79390   0.16353   0.45198   0.00000  Uiso   1.00
C165   C     0.87044   0.15319   0.04767   0.00000  Uiso   1.00
C166   C     0.83216   0.15907   0.47638   0.00000  Uiso   1.00
C167   C     0.83227   0.15904   0.02337   0.00000  Uiso   1.00
C168   C     0.87033   0.15477   0.45390   0.00000  Uiso   1.00
C169   C     0.79431   0.16512   0.04590   0.00000  Uiso   1.00
C170   C     0.75630   0.16322   0.47477   0.00000  Uiso   1.00
C171   C     0.75599   0.16201   0.02115   0.00000  Uiso   1.00
C172   C     0.90665   0.14231   0.02476   0.00000  Uiso   1.00
C173   C     0.90946   0.17760   0.38506   0.00000  Uiso   1.00
C174   C     0.76127   0.19557   0.11565   0.00000  Uiso   1.00
C175   C     0.75407   0.16668   0.37841   0.00000  Uiso   1.00
C176   C     0.91081   0.14881   0.12073   0.00000  Uiso   1.00
C177   C     0.71530   0.15187   0.04124   0.00000  Uiso   1.00
C178   C     0.94290   0.11891   0.45791   0.00000  Uiso   1.00
C179   C     0.90653   0.14084   0.47839   0.00000  Uiso   1.00
C180   C     0.68773   0.12715   0.23977   0.00000  Uiso   1.00
C181   C     0.97895   0.20618   0.26016   0.00000  Uiso   1.00
C182   C     0.97840   0.12705   0.24030   0.00000  Uiso   1.00
C183   C     0.68829   0.20626   0.25973   0.00000  Uiso   1.00
C184   C     0.95747   0.16661   0.25034   0.00000  Uiso   1.00
H185   H     0.72659   0.16181   0.45670   0.00000  Uiso   1.00
H186   H     0.93847   0.16717   0.11166   0.00000  Uiso   1.00
H187   H     0.68667   0.16446   0.02562   0.00000  Uiso   1.00
H188   H     0.97335   0.12039   0.47460   0.00000  Uiso   1.00
H189   H     0.88459   0.07534   0.30553   0.00000  Uiso   1.00
H190   H     0.78207   0.25802   0.19460   0.00000  Uiso   1.00
H191   H     0.78217   0.07534   0.19439   0.00000  Uiso   1.00
H192   H     0.88450   0.25799   0.30561   0.00000  Uiso   1.00
H193   H     0.93501   0.13261   0.04276   0.00000  Uiso   1.00
H194   H     0.70373   0.09645   0.23159   0.00000  Uiso   1.00
H195   H     0.96294   0.23687   0.26840   0.00000  Uiso   1.00
H196   H     0.96195   0.09628   0.23246   0.00000  Uiso   1.00
H197   H     0.70476   0.23698   0.26773   0.00000  Uiso   1.00
H198   H     0.91362   0.16968   0.35008   0.00000  Uiso   1.00
H199   H     0.75418   0.18612   0.14960   0.00000  Uiso   1.00
H200   H     0.73041   0.19113   0.38637   0.00000  Uiso   1.00
N201   N     0.83333   0.28573   0.25000   0.00000  Uiso   1.00
N202   N     0.83333   0.04760   0.25000   0.00000  Uiso   1.00
O203   O     0.77226   0.20487   0.24999   0.00000  Uiso   1.00
O204   O     0.74114   0.22562   0.09772   0.00000  Uiso   1.00
O205   O     0.74696   0.13999   0.34829   0.00000  Uiso   1.00
O206   O     0.91334   0.12207   0.15148   0.00000  Uiso   1.00
O207   O     0.71317   0.12736   0.07373   0.00000  Uiso   1.00
O208   O     0.93876   0.09671   0.42379   0.00000  Uiso   1.00
O209   O     0.89308   0.04431   0.30054   0.00000  Uiso   1.00
O210   O     0.77357   0.28905   0.19950   0.00000  Uiso   1.00
O211   O     0.77368   0.04432   0.19933   0.00000  Uiso   1.00
O212   O     0.89298   0.28902   0.30069   0.00000  Uiso   1.00
O213   O     0.89441   0.12846   0.25000   0.00000  Uiso   1.00
O214   O     0.89441   0.20487   0.25000   0.00000  Uiso   1.00
O215   O     0.77226   0.12846   0.24999   0.00000  Uiso   1.00
O216   O     0.83333   0.20489   0.18392   0.00000  Uiso   1.00
O217   O     0.83334   0.12844   0.31607   0.00000  Uiso   1.00
O218   O     0.83334   0.20489   0.31607   0.00000  Uiso   1.00
O219   O     0.83333   0.12844   0.18392   0.00000  Uiso   1.00
O220   O     0.93643   0.19936   0.40479   0.00000  Uiso   1.00
Zn221  Zn    0.83333   0.21771   0.25000   0.00000  Uiso   1.00
Zn222  Zn    0.83333   0.11563   0.25000   0.00000  Uiso   1.00
C223   C     0.08676   0.50003   0.24952   0.00000  Uiso   1.00
C224   C     0.04254   0.50008   0.24950   0.00000  Uiso   1.00
C225   C     0.19606   0.35698   0.27451   0.00000  Uiso   1.00
C226   C     0.13727   0.64303   0.22551   0.00000  Uiso   1.00
C227   C     0.13729   0.35699   0.22548   0.00000  Uiso   1.00
C228   C     0.19604   0.64301   0.27453   0.00000  Uiso   1.00
C229   C     0.16732   0.49992   0.16378   0.00000  Uiso   1.00
C230   C     0.16612   0.49995   0.33618   0.00000  Uiso   1.00
C231   C     0.20392   0.49754   0.40787   0.00000  Uiso   1.00
C232   C     0.12963   0.50710   0.09217   0.00000  Uiso   1.00
C233   C     0.16572   0.49913   0.38395   0.00000  Uiso   1.00
C234   C     0.24657   0.49999   0.25025   0.00000  Uiso   1.00
C235   C     0.16724   0.49898   0.11592   0.00000  Uiso   1.00
C236   C     0.12726   0.49806   0.40515   0.00000  Uiso   1.00
C237   C     0.20433   0.48830   0.09447   0.00000  Uiso   1.00
C238   C     0.12723   0.49687   0.45198   0.00000  Uiso   1.00
C239   C     0.20377   0.48652   0.04767   0.00000  Uiso   1.00
C240   C     0.16549   0.49241   0.47638   0.00000  Uiso   1.00
C241   C     0.16561   0.49237   0.02337   0.00000  Uiso   1.00
C242   C     0.20366   0.48811   0.45390   0.00000  Uiso   1.00
C243   C     0.12765   0.49846   0.04590   0.00000  Uiso   1.00
C244   C     0.08963   0.49655   0.47477   0.00000  Uiso   1.00
C245   C     0.08932   0.49534   0.02115   0.00000  Uiso   1.00
C246   C     0.23999   0.47564   0.02476   0.00000  Uiso   1.00
C247   C     0.24279   0.51093   0.38506   0.00000  Uiso   1.00
C248   C     0.09460   0.52891   0.11565   0.00000  Uiso   1.00
C249   C     0.08740   0.50002   0.37841   0.00000  Uiso   1.00
C250   C     0.24415   0.48214   0.12073   0.00000  Uiso   1.00
C251   C     0.04863   0.48521   0.04124   0.00000  Uiso   1.00
C252   C     0.27623   0.45224   0.45791   0.00000  Uiso   1.00
C253   C     0.23987   0.47417   0.47839   0.00000  Uiso   1.00
C254   C     0.02106   0.46049   0.23977   0.00000  Uiso   1.00
C255   C     0.31229   0.53951   0.26016   0.00000  Uiso   1.00
C256   C     0.31174   0.46039   0.24030   0.00000  Uiso   1.00
C257   C     0.02162   0.53959   0.25973   0.00000  Uiso   1.00
C258   C     0.29080   0.49994   0.25034   0.00000  Uiso   1.00
H259   H     0.05992   0.49514   0.45670   0.00000  Uiso   1.00
H260   H     0.27180   0.50050   0.11166   0.00000  Uiso   1.00
H261   H     0.02000   0.49779   0.02562   0.00000  Uiso   1.00
H262   H     0.30669   0.45372   0.47460   0.00000  Uiso   1.00
H263   H     0.21793   0.40867   0.30553   0.00000  Uiso   1.00
H264   H     0.11540   0.59135   0.19460   0.00000  Uiso   1.00
H265   H     0.11551   0.40867   0.19439   0.00000  Uiso   1.00
H266   H     0.21784   0.59133   0.30561   0.00000  Uiso   1.00
H267   H     0.26834   0.46594   0.04276   0.00000  Uiso   1.00
H268   H     0.03707   0.42978   0.23159   0.00000  Uiso   1.00
H269   H     0.29628   0.57020   0.26840   0.00000  Uiso   1.00
H270   H     0.29528   0.42961   0.23246   0.00000  Uiso   1.00
H271   H     0.03810   0.57032   0.26773   0.00000  Uiso   1.00
H272   H     0.24695   0.50301   0.35008   0.00000  Uiso   1.00
H273   H     0.08752   0.51946   0.14960   0.00000  Uiso   1.00
H274   H     0.06375   0.52446   0.38637   0.00000  Uiso   1.00
N275   N     0.16667   0.61907   0.25000   0.00000  Uiso   1.00
N276   N     0.16667   0.38093   0.25000   0.00000  Uiso   1.00
O277   O     0.10559   0.53821   0.24999   0.00000  Uiso   1.00
O278   O     0.07447   0.55896   0.09772   0.00000  Uiso   1.00
O279   O     0.08029   0.47332   0.34829   0.00000  Uiso   1.00
O280   O     0.24667   0.45540   0.15148   0.00000  Uiso   1.00
O281   O     0.04651   0.46069   0.07373   0.00000  Uiso   1.00
O282   O     0.27209   0.43004   0.42379   0.00000  Uiso   1.00
O283   O     0.22642   0.37764   0.30054   0.00000  Uiso   1.00
O284   O     0.10690   0.62238   0.19950   0.00000  Uiso   1.00
O285   O     0.10702   0.37765   0.19933   0.00000  Uiso   1.00
O286   O     0.22631   0.62235   0.30069   0.00000  Uiso   1.00
O287   O     0.22774   0.46179   0.25000   0.00000  Uiso   1.00
O288   O     0.22774   0.53821   0.25000   0.00000  Uiso   1.00
O289   O     0.10559   0.46179   0.24999   0.00000  Uiso   1.00
O290   O     0.16666   0.53823   0.18392   0.00000  Uiso   1.00
O291   O     0.16667   0.46177   0.31607   0.00000  Uiso   1.00
O292   O     0.16667   0.53823   0.31607   0.00000  Uiso   1.00
O293   O     0.16666   0.46177   0.18392   0.00000  Uiso   1.00
O294   O     0.26977   0.53270   0.40479   0.00000  Uiso   1.00
Zn295  Zn    0.16667   0.55104   0.25000   0.00000  Uiso   1.00
Zn296  Zn    0.16667   0.44896   0.25000   0.00000  Uiso   1.00
C297   C     0.42010   0.50003   0.24952   0.00000  Uiso   1.00
C298   C     0.37587   0.50008   0.24950   0.00000  Uiso   1.00
C299   C     0.52939   0.35698   0.27451   0.00000  Uiso   1.00
C300   C     0.47061   0.64303   0.22551   0.00000  Uiso   1.00
C301   C     0.47063   0.35699   0.22548   0.00000  Uiso   1.00
C302   C     0.52937   0.64301   0.27453   0.00000  Uiso   1.00
C303   C     0.50065   0.49992   0.16378   0.00000  Uiso   1.00
C304   C     0.49945   0.49995   0.33618   0.00000  Uiso   1.00
C305   C     0.53725   0.49754   0.40787   0.00000  Uiso   1.00
C306   C     0.46296   0.50710   0.09217   0.00000  Uiso   1.00
C307   C     0.49905   0.49913   0.38395   0.00000  Uiso   1.00
C308   C     0.57991   0.49999   0.25025   0.00000  Uiso   1.00
C309   C     0.50057   0.49898   0.11592   0.00000  Uiso   1.00
C310   C     0.46060   0.49806   0.40515   0.00000  Uiso   1.00
C311   C     0.53766   0.48830   0.09447   0.00000  Uiso   1.00
C312   C     0.46056   0.49687   0.45198   0.00000  Uiso   1.00
C313   C     0.53711   0.48652   0.04767   0.00000  Uiso   1.00
C314   C     0.49882   0.49241   0.47638   0.00000  Uiso   1.00
C315   C     0.49894   0.49237   0.02337   0.00000  Uiso   1.00
C316   C     0.53699   0.48811   0.45390   0.00000  Uiso   1.00
C317   C     0.46098   0.49846   0.04590   0.00000  Uiso   1.00
C318   C     0.42297   0.49655   0.47477   0.00000  Uiso   1.00
C319   C     0.42266   0.49534   0.02115   0.00000  Uiso   1.00
C320   C     0.57332   0.47564   0.02476   0.00000  Uiso   1.00
C321   C     0.57612   0.51093   0.38506   0.00000  Uiso   1.00
C322   C     0.42794   0.52891   0.11565   0.00000  Uiso   1.00
C323   C     0.42074   0.50002   0.37841   0.00000  Uiso   1.00
C324   C     0.57748   0.48214   0.12073   0.00000  Uiso   1.00
C325   C     0.38196   0.48521   0.04124   0.00000  Uiso   1.00
C326   C     0.60957   0.45224   0.45791   0.00000  Uiso   1.00
C327   C     0.57320   0.47417   0.47839   0.00000  Uiso   1.00
C328   C     0.35439   0.46049   0.23977   0.00000  Uiso   1.00
C329   C     0.64562   0.53951   0.26016   0.00000  Uiso   1.00
C330   C     0.64507   0.46039   0.24030   0.00000  Uiso   1.00
C331   C     0.35495   0.53959   0.25973   0.00000  Uiso   1.00
C332   C     0.62413   0.49994   0.25034   0.00000  Uiso   1.00
H333   H     0.39326   0.49514   0.45670   0.00000  Uiso   1.00
H334   H     0.60514   0.50050   0.11166   0.00000  Uiso   1.00
H335   H     0.35333   0.49779   0.02562   0.00000  Uiso   1.00
H336   H     0.64002   0.45372   0.47460   0.00000  Uiso   1.00
H337   H     0.55126   0.40867   0.30553   0.00000  Uiso   1.00
H338   H     0.44873   0.59135   0.19460   0.00000  Uiso   1.00
H339   H     0.44884   0.40867   0.19439   0.00000  Uiso   1.00
H340   H     0.55117   0.59133   0.30561   0.00000  Uiso   1.00
H341   H     0.60168   0.46594   0.04276   0.00000  Uiso   1.00
H342   H     0.37040   0.42978   0.23159   0.00000  Uiso   1.00
H343   H     0.62961   0.57020   0.26840   0.00000  Uiso   1.00
H344   H     0.62862   0.42961   0.23246   0.00000  Uiso   1.00
H345   H     0.37143   0.57032   0.26773   0.00000  Uiso   1.00
H346   H     0.58028   0.50301   0.35008   0.00000  Uiso   1.00
H347   H     0.42085   0.51946   0.14960   0.00000  Uiso   1.00
H348   H     0.39708   0.52446   0.38637   0.00000  Uiso   1.00
N349   N     0.50000   0.61907   0.25000   0.00000  Uiso   1.00
N350   N     0.50000   0.38093   0.25000   0.00000  Uiso   1.00
O351   O     0.43892   0.53821   0.24999   0.00000  Uiso   1.00
O352   O     0.40781   0.55896   0.09772   0.00000  Uiso   1.00
O353   O     0.41362   0.47332   0.34829   0.00000  Uiso   1.00
O354   O     0.58000   0.45540   0.15148   0.00000  Uiso   1.00
O355   O     0.37984   0.46069   0.07373   0.00000  Uiso   1.00
O356   O     0.60543   0.43004   0.42379   0.00000  Uiso   1.00
O357   O     0.55975   0.37764   0.30054   0.00000  Uiso   1.00
O358   O     0.44024   0.62238   0.19950   0.00000  Uiso   1.00
O359   O     0.44035   0.37765   0.19933   0.00000  Uiso   1.00
O360   O     0.55965   0.62235   0.30069   0.00000  Uiso   1.00
O361   O     0.56108   0.46179   0.25000   0.00000  Uiso   1.00
O362   O     0.56108   0.53821   0.25000   0.00000  Uiso   1.00
O363   O     0.43892   0.46179   0.24999   0.00000  Uiso   1.00
O364   O     0.49999   0.53823   0.18392   0.00000  Uiso   1.00
O365   O     0.50001   0.46177   0.31607   0.00000  Uiso   1.00
O366   O     0.50001   0.53823   0.31607   0.00000  Uiso   1.00
O367   O     0.49999   0.46177   0.18392   0.00000  Uiso   1.00
O368   O     0.60310   0.53270   0.40479   0.00000  Uiso   1.00
Zn369  Zn    0.50000   0.55104   0.25000   0.00000  Uiso   1.00
Zn370  Zn    0.50000   0.44896   0.25000   0.00000  Uiso   1.00
C371   C     0.75343   0.50003   0.24952   0.00000  Uiso   1.00
C372   C     0.70921   0.50008   0.24950   0.00000  Uiso   1.00
C373   C     0.86272   0.35698   0.27451   0.00000  Uiso   1.00
C374   C     0.80394   0.64303   0.22551   0.00000  Uiso   1.00
C375   C     0.80396   0.35699   0.22548   0.00000  Uiso   1.00
C376   C     0.86271   0.64301   0.27453   0.00000  Uiso   1.00
C377   C     0.83398   0.49992   0.16378   0.00000  Uiso   1.00
C378   C     0.83279   0.49995   0.33618   0.00000  Uiso   1.00
C379   C     0.87059   0.49754   0.40787   0.00000  Uiso   1.00
C380   C     0.79630   0.50710   0.09217   0.00000  Uiso   1.00
C381   C     0.83238   0.49913   0.38395   0.00000  Uiso   1.00
C382   C     0.91324   0.49999   0.25025   0.00000  Uiso   1.00
C383   C     0.83391   0.49898   0.11592   0.00000  Uiso   1.00
C384   C     0.79393   0.49806   0.40515   0.00000  Uiso   1.00
C385   C     0.87100   0.48830   0.09447   0.00000  Uiso   1.00
C386   C     0.79390   0.49687   0.45198   0.00000  Uiso   1.00
C387   C     0.87044   0.48652   0.04767   0.00000  Uiso   1.00
C388   C     0.83216   0.49241   0.47638   0.00000  Uiso   1.00
C389   C     0.83227   0.49237   0.02337   0.00000  Uiso   1.00
C390   C     0.87033   0.48811   0.45390   0.00000  Uiso   1.00
C391   C     0.79431   0.49846   0.04590   0.00000  Uiso   1.00
C392   C     0.75630   0.49655   0.47477   0.00000  Uiso   1.00
C393   C     0.75599   0.49534   0.02115   0.00000  Uiso   1.00
C394   C     0.90665   0.47564   0.02476   0.00000  Uiso   1.00
C395   C     0.90946   0.51093   0.38506   0.00000  Uiso   1.00
C396   C     0.76127   0.52891   0.11565   0.00000  Uiso   1.00
C397   C     0.75407   0.50002   0.37841   0.00000  Uiso   1.00
C398   C     0.91081   0.48214   0.12073   0.00000  Uiso   1.00
C399   C     0.71530   0.48521   0.04124   0.00000  Uiso   1.00
C400   C     0.94290   0.45224   0.45791   0.00000  Uiso   1.00
C401   C     0.90653   0.47417   0.47839   0.00000  Uiso   1.00
C402   C     0.68773   0.46049   0.23977   0.00000  Uiso   1.00
C403   C     0.97895   0.53951   0.26016   0.00000  Uiso   1.00
C404   C     0.97840   0.46039   0.24030   0.00000  Uiso   1.00
C405   C     0.68829   0.53959   0.25973   0.00000  Uiso   1.00
C406   C     0.95747   0.49994   0.25034   0.00000  Uiso   1.00
H407   H     0.72659   0.49514   0.45670   0.00000  Uiso   1.00
H408   H     0.93847   0.50050   0.11166   0.00000  Uiso   1.00
H409   H     0.68667   0.49779   0.02562   0.00000  Uiso   1.00
H410   H     0.97335   0.45372   0.47460   0.00000  Uiso   1.00
H411   H     0.88459   0.40867   0.30553   0.00000  Uiso   1.00
H412   H     0.78207   0.59135   0.19460   0.00000  Uiso   1.00
H413   H     0.78217   0.40867   0.19439   0.00000  Uiso   1.00
H414   H     0.88450   0.59133   0.30561   0.00000  Uiso   1.00
H415   H     0.93501   0.46594   0.04276   0.00000  Uiso   1.00
H416   H     0.70373   0.42978   0.23159   0.00000  Uiso   1.00
H417   H     0.96294   0.57020   0.26840   0.00000  Uiso   1.00
H418   H     0.96195   0.42961   0.23246   0.00000  Uiso   1.00
H419   H     0.70476   0.57032   0.26773   0.00000  Uiso   1.00
H420   H     0.91362   0.50301   0.35008   0.00000  Uiso   1.00
H421   H     0.75418   0.51946   0.14960   0.00000  Uiso   1.00
H422   H     0.73041   0.52446   0.38637   0.00000  Uiso   1.00
N423   N     0.83333   0.61907   0.25000   0.00000  Uiso   1.00
N424   N     0.83333   0.38093   0.25000   0.00000  Uiso   1.00
O425   O     0.77226   0.53821   0.24999   0.00000  Uiso   1.00
O426   O     0.74114   0.55896   0.09772   0.00000  Uiso   1.00
O427   O     0.74696   0.47332   0.34829   0.00000  Uiso   1.00
O428   O     0.91334   0.45540   0.15148   0.00000  Uiso   1.00
O429   O     0.71317   0.46069   0.07373   0.00000  Uiso   1.00
O430   O     0.93876   0.43004   0.42379   0.00000  Uiso   1.00
O431   O     0.89308   0.37764   0.30054   0.00000  Uiso   1.00
O432   O     0.77357   0.62238   0.19950   0.00000  Uiso   1.00
O433   O     0.77368   0.37765   0.19933   0.00000  Uiso   1.00
O434   O     0.89298   0.62235   0.30069   0.00000  Uiso   1.00
O435   O     0.89441   0.46179   0.25000   0.00000  Uiso   1.00
O436   O     0.89441   0.53821   0.25000   0.00000  Uiso   1.00
O437   O     0.77226   0.46179   0.24999   0.00000  Uiso   1.00
O438   O     0.83333   0.53823   0.18392   0.00000  Uiso   1.00
O439   O     0.83334   0.46177   0.31607   0.00000  Uiso   1.00
O440   O     0.83334   0.53823   0.31607   0.00000  Uiso   1.00
O441   O     0.83333   0.46177   0.18392   0.00000  Uiso   1.00
O442   O     0.93643   0.53270   0.40479   0.00000  Uiso   1.00
Zn443  Zn    0.83333   0.55104   0.25000   0.00000  Uiso   1.00
Zn444  Zn    0.83333   0.44896   0.25000   0.00000  Uiso   1.00
C445   C     0.08676   0.83336   0.24952   0.00000  Uiso   1.00
C446   C     0.04254   0.83341   0.24950   0.00000  Uiso   1.00
C447   C     0.19606   0.69032   0.27451   0.00000  Uiso   1.00
C448   C     0.13727   0.97636   0.22551   0.00000  Uiso   1.00
C449   C     0.13729   0.69033   0.22548   0.00000  Uiso   1.00
C450   C     0.19604   0.97634   0.27453   0.00000  Uiso   1.00
C451   C     0.16732   0.83325   0.16378   0.00000  Uiso   1.00
C452   C     0.16612   0.83329   0.33618   0.00000  Uiso   1.00
C453   C     0.20392   0.83087   0.40787   0.00000  Uiso   1.00
C454   C     0.12963   0.84043   0.09217   0.00000  Uiso   1.00
C455   C     0.16572   0.83247   0.38395   0.00000  Uiso   1.00
C456   C     0.24657   0.83332   0.25025   0.00000  Uiso   1.00
C457   C     0.16724   0.83231   0.11592   0.00000  Uiso   1.00
C458   C     0.12726   0.83139   0.40515   0.00000  Uiso   1.00
C459   C     0.20433   0.82163   0.09447   0.00000  Uiso   1.00
C460   C     0.12723   0.83020   0.45198   0.00000  Uiso   1.00
C461   C     0.20377   0.81985   0.04767   0.00000  Uiso   1.00
C462   C     0.16549   0.82574   0.47638   0.00000  Uiso   1.00
C463   C     0.16561   0.82570   0.02337   0.00000  Uiso   1.00
C464   C     0.20366   0.82144   0.45390   0.00000  Uiso   1.00
C465   C     0.12765   0.83179   0.04590   0.00000  Uiso   1.00
C466   C     0.08963   0.82989   0.47477   0.00000  Uiso   1.00
C467   C     0.08932   0.82867   0.02115   0.00000  Uiso   1.00
C468   C     0.23999   0.80898   0.02476   0.00000  Uiso   1.00
C469   C     0.24279   0.84426   0.38506   0.00000  Uiso   1.00
C470   C     0.09460   0.86224   0.11565   0.00000  Uiso   1.00
C471   C     0.08740   0.83335   0.37841   0.00000  Uiso   1.00
C472   C     0.24415   0.81547   0.12073   0.00000  Uiso   1.00
C473   C     0.04863   0.81854   0.04124   0.00000  Uiso   1.00
C474   C     0.27623   0.78558   0.45791   0.00000  Uiso   1.00
C475   C     0.23987   0.80751   0.47839   0.00000  Uiso   1.00
C476   C     0.02106   0.79382   0.23977   0.00000  Uiso   1.00
C477   C     0.31229   0.87285   0.26016   0.00000  Uiso   1.00
C478   C     0.31174   0.79372   0.24030   0.00000  Uiso   1.00
C479   C     0.02162   0.87292   0.25973   0.00000  Uiso   1.00
C480   C     0.29080   0.83328   0.25034   0.00000  Uiso   1.00
H481   H     0.05992   0.82848   0.45670   0.00000  Uiso   1.00
H482   H     0.27180   0.83384   0.11166   0.00000  Uiso   1.00
H483   H     0.02000   0.83112   0.02562   0.00000  Uiso   1.00
H484   H     0.30669   0.78706   0.47460   0.00000  Uiso   1.00
H485   H     0.21793   0.74200   0.30553   0.00000  Uiso   1.00
H486   H     0.11540   0.92469   0.19460   0.00000  Uiso   1.00
H487   H     0.11551   0.74200   0.19439   0.00000  Uiso   1.00
H488   H     0.21784   0.92466   0.30561   0.00000  Uiso   1.00
H489   H     0.26834   0.79927   0.04276   0.00000  Uiso   1.00
H490   H     0.03707   0.76312   0.23159   0.00000  Uiso   1.00
H491   H     0.29628   0.90353   0.26840   0.00000  Uiso   1.00
H492   H     0.29528   0.76294   0.23246   0.00000  Uiso   1.00
H493   H     0.03810   0.90365   0.26773   0.00000  Uiso   1.00
H494   H     0.24695   0.83635   0.35008   0.00000  Uiso   1.00
H495   H     0.08752   0.85279   0.14960   0.00000  Uiso   1.00
H496   H     0.06375   0.85780   0.38637   0.00000  Uiso   1.00
N497   N     0.16667   0.95240   0.25000   0.00000  Uiso   1.00
N498   N     0.16667   0.71427   0.25000   0.00000  Uiso   1.00
O499   O     0.10559   0.87154   0.24999   0.00000  Uiso   1.00
O500   O     0.07447   0.89229   0.09772   0.00000  Uiso   1.00
O501   O     0.08029   0.80666   0.34829   0.00000  Uiso   1.00
O502   O     0.24667   0.78873   0.15148   0.00000  Uiso   1.00
O503   O     0.04651   0.79402   0.07373   0.00000  Uiso   1.00
O504   O     0.27209   0.76337   0.42379   0.00000  Uiso   1.00
O505   O     0.22642   0.71097   0.30054   0.00000  Uiso   1.00
O506   O     0.10690   0.95572   0.19950   0.00000  Uiso   1.00
O507   O     0.10702   0.71098   0.19933   0.00000  Uiso   1.00
O508   O     0.22631   0.95569   0.30069   0.00000  Uiso   1.00
O509   O     0.22774   0.79513   0.25000   0.00000  Uiso   1.00
O510   O     0.22774   0.87154   0.25000   0.00000  Uiso   1.00
O511   O     0.10559   0.79513   0.24999   0.00000  Uiso   1.00
O512   O     0.16666   0.87156   0.18392   0.00000  Uiso   1.00
O513   O     0.16667   0.79511   0.31607   0.00000  Uiso   1.00
O514   O     0.16667   0.87156   0.31607   0.00000  Uiso   1.00
O515   O     0.16666   0.79511   0.18392   0.00000  Uiso   1.00
O516   O     0.26977   0.86603   0.40479   0.00000  Uiso   1.00
Zn517  Zn    0.16667   0.88437   0.25000   0.00000  Uiso   1.00
Zn518  Zn    0.16667   0.78229   0.25000   0.00000  Uiso   1.00
C519   C     0.42010   0.83336   0.24952   0.00000  Uiso   1.00
C520   C     0.37587   0.83341   0.24950   0.00000  Uiso   1.00
C521   C     0.52939   0.69032   0.27451   0.00000  Uiso   1.00
C522   C     0.47061   0.97636   0.22551   0.00000  Uiso   1.00
C523   C     0.47063   0.69033   0.22548   0.00000  Uiso   1.00
C524   C     0.52937   0.97634   0.27453   0.00000  Uiso   1.00
C525   C     0.50065   0.83325   0.16378   0.00000  Uiso   1.00
C526   C     0.49945   0.83329   0.33618   0.00000  Uiso   1.00
C527   C     0.53725   0.83087   0.40787   0.00000  Uiso   1.00
C528   C     0.46296   0.84043   0.09217   0.00000  Uiso   1.00
C529   C     0.49905   0.83247   0.38395   0.00000  Uiso   1.00
C530   C     0.57991   0.83332   0.25025   0.00000  Uiso   1.00
C531   C     0.50057   0.83231   0.11592   0.00000  Uiso   1.00
C532   C     0.46060   0.83139   0.40515   0.00000  Uiso   1.00
C533   C     0.53766   0.82163   0.09447   0.00000  Uiso   1.00
C534   C     0.46056   0.83020   0.45198   0.00000  Uiso   1.00
C535   C     0.53711   0.81985   0.04767   0.00000  Uiso   1.00
C536   C     0.49882   0.82574   0.47638   0.00000  Uiso   1.00
C537   C     0.49894   0.82570   0.02337   0.00000  Uiso   1.00
C538   C     0.53699   0.82144   0.45390   0.00000  Uiso   1.00
C539   C     0.46098   0.83179   0.04590   0.00000  Uiso   1.00
C540   C     0.42297   0.82989   0.47477   0.00000  Uiso   1.00
C541   C     0.42266   0.82867   0.02115   0.00000  Uiso   1.00
C542   C     0.57332   0.80898   0.02476   0.00000  Uiso   1.00
C543   C     0.57612   0.84426   0.38506   0.00000  Uiso   1.00
C544   C     0.42794   0.86224   0.11565   0.00000  Uiso   1.00
C545   C     0.42074   0.83335   0.37841   0.00000  Uiso   1.00
C546   C     0.57748   0.81547   0.12073   0.00000  Uiso   1.00
C547   C     0.38196   0.81854   0.04124   0.00000  Uiso   1.00
C548   C     0.60957   0.78558   0.45791   0.00000  Uiso   1.00
C549   C     0.57320   0.80751   0.47839   0.00000  Uiso   1.00
C550   C     0.35439   0.79382   0.23977   0.00000  Uiso   1.00
C551   C     0.64562   0.87285   0.26016   0.00000  Uiso   1.00
C552   C     0.64507   0.79372   0.24030   0.00000  Uiso   1.00
C553   C     0.35495   0.87292   0.25973   0.00000  Uiso   1.00
C554   C     0.62413   0.83328   0.25034   0.00000  Uiso   1.00
H555   H     0.39326   0.82848   0.45670   0.00000  Uiso   1.00
H556   H     0.60514   0.83384   0.11166   0.00000  Uiso   1.00
H557   H     0.35333   0.83112   0.02562   0.00000  Uiso   1.00
H558   H     0.64002   0.78706   0.47460   0.00000  Uiso   1.00
H559   H     0.55126   0.74200   0.30553   0.00000  Uiso   1.00
H560   H     0.44873   0.92469   0.19460   0.00000  Uiso   1.00
H561   H     0.44884   0.74200   0.19439   0.00000  Uiso   1.00
H562   H     0.55117   0.92466   0.30561   0.00000  Uiso   1.00
H563   H     0.60168   0.79927   0.04276   0.00000  Uiso   1.00
H564   H     0.37040   0.76312   0.23159   0.00000  Uiso   1.00
H565   H     0.62961   0.90353   0.26840   0.00000  Uiso   1.00
H566   H     0.62862   0.76294   0.23246   0.00000  Uiso   1.00
H567   H     0.37143   0.90365   0.26773   0.00000  Uiso   1.00
H568   H     0.58028   0.83635   0.35008   0.00000  Uiso   1.00
H569   H     0.42085   0.85279   0.14960   0.00000  Uiso   1.00
H570   H     0.39708   0.85780   0.38637   0.00000  Uiso   1.00
N571   N     0.50000   0.95240   0.25000   0.00000  Uiso   1.00
N572   N     0.50000   0.71427   0.25000   0.00000  Uiso   1.00
O573   O     0.43892   0.87154   0.24999   0.00000  Uiso   1.00
O574   O     0.40781   0.89229   0.09772   0.00000  Uiso   1.00
O575   O     0.41362   0.80666   0.34829   0.00000  Uiso   1.00
O576   O     0.58000   0.78873   0.15148   0.00000  Uiso   1.00
O577   O     0.37984   0.79402   0.07373   0.00000  Uiso   1.00
O578   O     0.60543   0.76337   0.42379   0.00000  Uiso   1.00
O579   O     0.55975   0.71097   0.30054   0.00000  Uiso   1.00
O580   O     0.44024   0.95572   0.19950   0.00000  Uiso   1.00
O581   O     0.44035   0.71098   0.19933   0.00000  Uiso   1.00
O582   O     0.55965   0.95569   0.30069   0.00000  Uiso   1.00
O583   O     0.56108   0.79513   0.25000   0.00000  Uiso   1.00
O584   O     0.56108   0.87154   0.25000   0.00000  Uiso   1.00
O585   O     0.43892   0.79513   0.24999   0.00000  Uiso   1.00
O586   O     0.49999   0.87156   0.18392   0.00000  Uiso   1.00
O587   O     0.50001   0.79511   0.31607   0.00000  Uiso   1.00
O588   O     0.50001   0.87156   0.31607   0.00000  Uiso   1.00
O589   O     0.49999   0.79511   0.18392   0.00000  Uiso   1.00
O590   O     0.60310   0.86603   0.40479   0.00000  Uiso   1.00
Zn591  Zn    0.50000   0.88437   0.25000   0.00000  Uiso   1.00
Zn592  Zn    0.50000   0.78229   0.25000   0.00000  Uiso   1.00
C593   C     0.75343   0.83336   0.24952   0.00000  Uiso   1.00
C594   C     0.70921   0.83341   0.24950   0.00000  Uiso   1.00
C595   C     0.86272   0.69032   0.27451   0.00000  Uiso   1.00
C596   C     0.80394   0.97636   0.22551   0.00000  Uiso   1.00
C597   C     0.80396   0.69033   0.22548   0.00000  Uiso   1.00
C598   C     0.86271   0.97634   0.27453   0.00000  Uiso   1.00
C599   C     0.83398   0.83325   0.16378   0.00000  Uiso   1.00
C600   C     0.83279   0.83329   0.33618   0.00000  Uiso   1.00
C601   C     0.87059   0.83087   0.40787   0.00000  Uiso   1.00
C602   C     0.79630   0.84043   0.09217   0.00000  Uiso   1.00
C603   C     0.83238   0.83247   0.38395   0.00000  Uiso   1.00
C604   C     0.91324   0.83332   0.25025   0.00000  Uiso   1.00
C605   C     0.83391   0.83231   0.11592   0.00000  Uiso   1.00
C606   C     0.79393   0.83139   0.40515   0.00000  Uiso   1.00
C607   C     0.87100   0.82163   0.09447   0.00000  Uiso   1.00
C608   C     0.79390   0.83020   0.45198   0.00000  Uiso   1.00
C609   C     0.87044   0.81985   0.04767   0.00000  Uiso   1.00
C610   C     0.83216   0.82574   0.47638   0.00000  Uiso   1.00
C611   C     0.83227   0.82570   0.02337   0.00000  Uiso   1.00
C612   C     0.87033   0.82144   0.45390   0.00000  Uiso   1.00
C613   C     0.79431   0.83179   0.04590   0.00000  Uiso   1.00
C614   C     0.75630   0.82989   0.47477   0.00000  Uiso   1.00
C615   C     0.75599   0.82867   0.02115   0.00000  Uiso   1.00
C616   C     0.90665   0.80898   0.02476   0.00000  Uiso   1.00
C617   C     0.90946   0.84426   0.38506   0.00000  Uiso   1.00
C618   C     0.76127   0.86224   0.11565   0.00000  Uiso   1.00
C619   C     0.75407   0.83335   0.37841   0.00000  Uiso   1.00
C620   C     0.91081   0.81547   0.12073   0.00000  Uiso   1.00
C621   C     0.71530   0.81854   0.04124   0.00000  Uiso   1.00
C622   C     0.94290   0.78558   0.45791   0.00000  Uiso   1.00
C623   C     0.90653   0.80751   0.47839   0.00000  Uiso   1.00
C624   C     0.68773   0.79382   0.23977   0.00000  Uiso   1.00
C625   C     0.97895   0.87285   0.26016   0.00000  Uiso   1.00
C626   C     0.97840   0.79372   0.24030   0.00000  Uiso   1.00
C627   C     0.68829   0.87292   0.25973   0.00000  Uiso   1.00
C628   C     0.95747   0.83328   0.25034   0.00000  Uiso   1.00
H629   H     0.72659   0.82848   0.45670   0.00000  Uiso   1.00
H630   H     0.93847   0.83384   0.11166   0.00000  Uiso   1.00
H631   H     0.68667   0.83112   0.02562   0.00000  Uiso   1.00
H632   H     0.97335   0.78706   0.47460   0.00000  Uiso   1.00
H633   H     0.88459   0.74200   0.30553   0.00000  Uiso   1.00
H634   H     0.78207   0.92469   0.19460   0.00000  Uiso   1.00
H635   H     0.78217   0.74200   0.19439   0.00000  Uiso   1.00
H636   H     0.88450   0.92466   0.30561   0.00000  Uiso   1.00
H637   H     0.93501   0.79927   0.04276   0.00000  Uiso   1.00
H638   H     0.70373   0.76312   0.23159   0.00000  Uiso   1.00
H639   H     0.96294   0.90353   0.26840   0.00000  Uiso   1.00
H640   H     0.96195   0.76294   0.23246   0.00000  Uiso   1.00
H641   H     0.70476   0.90365   0.26773   0.00000  Uiso   1.00
H642   H     0.91362   0.83635   0.35008   0.00000  Uiso   1.00
H643   H     0.75418   0.85279   0.14960   0.00000  Uiso   1.00
H644   H     0.73041   0.85780   0.38637   0.00000  Uiso   1.00
N645   N     0.83333   0.95240   0.25000   0.00000  Uiso   1.00
N646   N     0.83333   0.71427   0.25000   0.00000  Uiso   1.00
O647   O     0.77226   0.87154   0.24999   0.00000  Uiso   1.00
O648   O     0.74114   0.89229   0.09772   0.00000  Uiso   1.00
O649   O     0.74696   0.80666   0.34829   0.00000  Uiso   1.00
O650   O     0.91334   0.78873   0.15148   0.00000  Uiso   1.00
O651   O     0.71317   0.79402   0.07373   0.00000  Uiso   1.00
O652   O     0.93876   0.76337   0.42379   0.00000  Uiso   1.00
O653   O     0.89308   0.71097   0.30054   0.00000  Uiso   1.00
O654   O     0.77357   0.95572   0.19950   0.00000  Uiso   1.00
O655   O     0.77368   0.71098   0.19933   0.00000  Uiso   1.00
O656   O     0.89298   0.95569   0.30069   0.00000  Uiso   1.00
O657   O     0.89441   0.79513   0.25000   0.00000  Uiso   1.00
O658   O     0.89441   0.87154   0.25000   0.00000  Uiso   1.00
O659   O     0.77226   0.79513   0.24999   0.00000  Uiso   1.00
O660   O     0.83333   0.87156   0.18392   0.00000  Uiso   1.00
O661   O     0.83334   0.79511   0.31607   0.00000  Uiso   1.00
O662   O     0.83334   0.87156   0.31607   0.00000  Uiso   1.00
O663   O     0.83333   0.79511   0.18392   0.00000  Uiso   1.00
O664   O     0.93643   0.86603   0.40479   0.00000  Uiso   1.00
Zn665  Zn    0.83333   0.88437   0.25000   0.00000  Uiso   1.00
Zn666  Zn    0.83333   0.78229   0.25000   0.00000  Uiso   1.00
C667   C     0.08676   0.16669   0.74952   0.00000  Uiso   1.00
C668   C     0.04254   0.16674   0.74950   0.00000  Uiso   1.00
C669   C     0.19606   0.02365   0.77451   0.00000  Uiso   1.00
C670   C     0.13727   0.30969   0.72551   0.00000  Uiso   1.00
C671   C     0.13729   0.02366   0.72548   0.00000  Uiso   1.00
C672   C     0.19604   0.30968   0.77453   0.00000  Uiso   1.00
C673   C     0.16732   0.16658   0.66378   0.00000  Uiso   1.00
C674   C     0.16612   0.16662   0.83618   0.00000  Uiso   1.00
C675   C     0.20392   0.16421   0.90787   0.00000  Uiso   1.00
C676   C     0.12963   0.17377   0.59217   0.00000  Uiso   1.00
C677   C     0.16572   0.16580   0.88395   0.00000  Uiso   1.00
C678   C     0.24657   0.16665   0.75025   0.00000  Uiso   1.00
C679   C     0.16724   0.16564   0.61592   0.00000  Uiso   1.00
C680   C     0.12726   0.16473   0.90515   0.00000  Uiso   1.00
C681   C     0.20433   0.15496   0.59447   0.00000  Uiso   1.00
C682   C     0.12723   0.16353   0.95198   0.00000  Uiso   1.00
C683   C     0.20377   0.15319   0.54767   0.00000  Uiso   1.00
C684   C     0.16549   0.15907   0.97638   0.00000  Uiso   1.00
C685   C     0.16561   0.15904   0.52337   0.00000  Uiso   1.00
C686   C     0.20366   0.15477   0.95390   0.00000  Uiso   1.00
C687   C     0.12765   0.16512   0.54590   0.00000  Uiso   1.00
C688   C     0.08963   0.16322   0.97477   0.00000  Uiso   1.00
C689   C     0.08932   0.16201   0.52115   0.00000  Uiso   1.00
C690   C     0.23999   0.14231   0.52476   0.00000  Uiso   1.00
C691   C     0.24279   0.17760   0.88506   0.00000  Uiso   1.00
C692   C     0.09460   0.19557   0.61565   0.00000  Uiso   1.00
C693   C     0.08740   0.16668   0.87841   0.00000  Uiso   1.00
C694   C     0.24415   0.14881   0.62073   0.00000  Uiso   1.00
C695   C     0.04863   0.15187   0.54124   0.00000  Uiso   1.00
C696   C     0.27623   0.11891   0.95791   0.00000  Uiso   1.00
C697   C     0.23987   0.14084   0.97839   0.00000  Uiso   1.00
C698   C     0.02106   0.12715   0.73977   0.00000  Uiso   1.00
C699   C     0.31229   0.20618   0.76016   0.00000  Uiso   1.00
C700   C     0.31174   0.12705   0.74030   0.00000  Uiso   1.00
C701   C     0.02162   0.20626   0.75973   0.00000  Uiso   1.00
C702   C     0.29080   0.16661   0.75034   0.00000  Uiso   1.00
H703   H     0.05992   0.16181   0.95670   0.00000  Uiso   1.00
H704   H     0.27180   0.16717   0.61166   0.00000  Uiso   1.00
H705   H     0.02000   0.16446   0.52562   0.00000  Uiso   1.00
H706   H     0.30669   0.12039   0.97460   0.00000  Uiso   1.00
H707   H     0.21793   0.07534   0.80553   0.00000  Uiso   1.00
H708   H     0.11540   0.25802   0.69460   0.00000  Uiso   1.00
H709   H     0.11551   0.07534   0.69439   0.00000  Uiso   1.00
H710   H     0.21784   0.25799   0.80561   0.00000  Uiso   1.00
H711   H     0.26834   0.13261   0.54276   0.00000  Uiso   1.00
H712   H     0.03707   0.09645   0.73159   0.00000  Uiso   1.00
H713   H     0.29628   0.23687   0.76840   0.00000  Uiso   1.00
H714   H     0.29528   0.09628   0.73246   0.00000  Uiso   1.00
H715   H     0.03810   0.23698   0.76773   0.00000  Uiso   1.00
H716   H     0.24695   0.16968   0.85008   0.00000  Uiso   1.00
H717   H     0.08752   0.18612   0.64960   0.00000  Uiso   1.00
H718   H     0.06375   0.19113   0.88637   0.00000  Uiso   1.00
N719   N     0.16667   0.28573   0.75000   0.00000  Uiso   1.00
N720   N     0.16667   0.04760   0.75000   0.00000  Uiso   1.00
O721   O     0.10559   0.20487   0.74999   0.00000  Uiso   1.00
O722   O     0.07447   0.22562   0.59772   0.00000  Uiso   1.00
O723   O     0.08029   0.13999   0.84829   0.00000  Uiso   1.00
O724   O     0.24667   0.12207   0.65148   0.00000  Uiso   1.00
O725   O     0.04651   0.12736   0.57373   0.00000  Uiso   1.00
O726   O     0.27209   0.09671   0.92379   0.00000  Uiso   1.00
O727   O     0.22642   0.04431   0.80054   0.00000  Uiso   1.00
O728   O     0.10690   0.28905   0.69950   0.00000  Uiso   1.00
O729   O     0.10702   0.04432   0.69933   0.00000  Uiso   1.00
O730   O     0.22631   0.28902   0.80069   0.00000  Uiso   1.00
O731   O     0.22774   0.12846   0.75000   0.00000  Uiso   1.00
O732   O     0.22774   0.20487   0.75000   0.00000  Uiso   1.00
O733   O     0.10559   0.12846   0.74999   0.00000  Uiso   1.00
O734   O     0.16666   0.20489   0.68392   0.00000  Uiso   1.00
O735   O     0.16667   0.12844   0.81607   0.00000  Uiso   1.00
O736   O     0.16667   0.20489   0.81607   0.00000  Uiso   1.00
O737   O     0.16666   0.12844   0.68392   0.00000  Uiso   1.00
O738   O     0.26977   0.19936   0.90479   0.00000  Uiso   1.00
Zn739  Zn    0.16667   0.21771   0.75000   0.00000  Uiso   1.00
Zn740  Zn    0.16667   0.11563   0.75000   0.00000  Uiso   1.00
C741   C     0.42010   0.16669   0.74952   0.00000  Uiso   1.00
C742   C     0.37587   0.16674   0.74950   0.00000  Uiso   1.00
C743   C     0.52939   0.02365   0.77451   0.00000  Uiso   1.00
C744   C     0.47061   0.30969   0.72551   0.00000  Uiso   1.00
C745   C     0.47063   0.02366   0.72548   0.00000  Uiso   1.00
C746   C     0.52937   0.30968   0.77453   0.00000  Uiso   1.00
C747   C     0.50065   0.16658   0.66378   0.00000  Uiso   1.00
C748   C     0.49945   0.16662   0.83618   0.00000  Uiso   1.00
C749   C     0.53725   0.16421   0.90787   0.00000  Uiso   1.00
C750   C     0.46296   0.17377   0.59217   0.00000  Uiso   1.00
C751   C     0.49905   0.16580   0.88395   0.00000  Uiso   1.00
C752   C     0.57991   0.16665   0.75025   0.00000  Uiso   1.00
C753   C     0.50057   0.16564   0.61592   0.00000  Uiso   1.00
C754   C     0.46060   0.16473   0.90515   0.00000  Uiso   1.00
C755   C     0.53766   0.15496   0.59447   0.00000  Uiso   1.00
C756   C     0.46056   0.16353   0.95198   0.00000  Uiso   1.00
C757   C     0.53711   0.15319   0.54767   0.00000  Uiso   1.00
C758   C     0.49882   0.15907   0.97638   0.00000  Uiso   1.00
C759   C     0.49894   0.15904   0.52337   0.00000  Uiso   1.00
C760   C     0.53699   0.15477   0.95390   0.00000  Uiso   1.00
C761   C     0.46098   0.16512   0.54590   0.00000  Uiso   1.00
C762   C     0.42297   0.16322   0.97477   0.00000  Uiso   1.00
C763   C     0.42266   0.16201   0.52115   0.00000  Uiso   1.00
C764   C     0.57332   0.14231   0.52476   0.00000  Uiso   1.00
C765   C     0.57612   0.17760   0.88506   0.00000  Uiso   1.00
C766   C     0.42794   0.19557   0.61565   0.00000  Uiso   1.00
C767   C     0.42074   0.16668   0.87841   0.00000  Uiso   1.00
C768   C     0.57748   0.14881   0.62073   0.00000  Uiso   1.00
C769   C     0.38196   0.15187   0.54124   0.00000  Uiso   1.00
C770   C     0.60957   0.11891   0.95791   0.00000  Uiso   1.00
C771   C     0.57320   0.14084   0.97839   0.00000  Uiso   1.00
C772   C     0.35439   0.12715   0.73977   0.00000  Uiso   1.00
C773   C     0.64562   0.20618   0.76016   0.00000  Uiso   1.00
C774   C     0.64507   0.12705   0.74030   0.00000  Uiso   1.00
C775   C     0.35495   0.20626   0.75973   0.00000  Uiso   1.00
C776   C     0.62413   0.16661   0.75034   0.00000  Uiso   1.00
H777   H     0.39326   0.16181   0.95670   0.00000  Uiso   1.00
H778   H     0.60514   0.16717   0.61166   0.00000  Uiso   1.00
H779   H     0.35333   0.16446   0.52562   0.00000  Uiso   1.00
H780   H     0.64002   0.12039   0.97460   0.00000  Uiso   1.00
H781   H     0.55126   0.07534   0.80553   0.00000  Uiso   1.00
H782   H     0.44873   0.25802   0.69460   0.00000  Uiso   1.00
H783   H     0.44884   0.07534   0.69439   0.00000  Uiso   1.00
H784   H     0.55117   0.25799   0.80561   0.00000  Uiso   1.00
H785   H     0.60168   0.13261   0.54276   0.00000  Uiso   1.00
H786   H     0.37040   0.09645   0.73159   0.00000  Uiso   1.00
H787   H     0.62961   0.23687   0.76840   0.00000  Uiso   1.00
H788   H     0.62862   0.09628   0.73246   0.00000  Uiso   1.00
H789   H     0.37143   0.23698   0.76773   0.00000  Uiso   1.00
H790   H     0.58028   0.16968   0.85008   0.00000  Uiso   1.00
H791   H     0.42085   0.18612   0.64960   0.00000  Uiso   1.00
H792   H     0.39708   0.19113   0.88637   0.00000  Uiso   1.00
N793   N     0.50000   0.28573   0.75000   0.00000  Uiso   1.00
N794   N     0.50000   0.04760   0.75000   0.00000  Uiso   1.00
O795   O     0.43892   0.20487   0.74999   0.00000  Uiso   1.00
O796   O     0.40781   0.22562   0.59772   0.00000  Uiso   1.00
O797   O     0.41362   0.13999   0.84829   0.00000  Uiso   1.00
O798   O     0.58000   0.12207   0.65148   0.00000  Uiso   1.00
O799   O     0.37984   0.12736   0.57373   0.00000  Uiso   1.00
O800   O     0.60543   0.09671   0.92379   0.00000  Uiso   1.00
O801   O     0.55975   0.04431   0.80054   0.00000  Uiso   1.00
O802   O     0.44024   0.28905   0.69950   0.00000  Uiso   1.00
O803   O     0.44035   0.04432   0.69933   0.00000  Uiso   1.00
O804   O     0.55965   0.28902   0.80069   0.00000  Uiso   1.00
O805   O     0.56108   0.12846   0.75000   0.00000  Uiso   1.00
O806   O     0.56108   0.20487   0.75000   0.00000  Uiso   1.00
O807   O     0.43892   0.12846   0.74999   0.00000  Uiso   1.00
O808   O     0.49999   0.20489   0.68392   0.00000  Uiso   1.00
O809   O     0.50001   0.12844   0.81607   0.00000  Uiso   1.00
O810   O     0.50001   0.20489   0.81607   0.00000  Uiso   1.00
O811   O     0.49999   0.12844   0.68392   0.00000  Uiso   1.00
O812   O     0.60310   0.19936   0.90479   0.00000  Uiso   1.00
Zn813  Zn    0.50000   0.21771   0.75000   0.00000  Uiso   1.00
Zn814  Zn    0.50000   0.11563   0.75000   0.00000  Uiso   1.00
C815   C     0.75343   0.16669   0.74952   0.00000  Uiso   1.00
C816   C     0.70921   0.16674   0.74950   0.00000  Uiso   1.00
C817   C     0.86272   0.02365   0.77451   0.00000  Uiso   1.00
C818   C     0.80394   0.30969   0.72551   0.00000  Uiso   1.00
C819   C     0.80396   0.02366   0.72548   0.00000  Uiso   1.00
C820   C     0.86271   0.30968   0.77453   0.00000  Uiso   1.00
C821   C     0.83398   0.16658   0.66378   0.00000  Uiso   1.00
C822   C     0.83279   0.16662   0.83618   0.00000  Uiso   1.00
C823   C     0.87059   0.16421   0.90787   0.00000  Uiso   1.00
C824   C     0.79630   0.17377   0.59217   0.00000  Uiso   1.00
C825   C     0.83238   0.16580   0.88395   0.00000  Uiso   1.00
C826   C     0.91324   0.16665   0.75025   0.00000  Uiso   1.00
C827   C     0.83391   0.16564   0.61592   0.00000  Uiso   1.00
C828   C     0.79393   0.16473   0.90515   0.00000  Uiso   1.00
C829   C     0.87100   0.15496   0.59447   0.00000  Uiso   1.00
C830   C     0.79390   0.16353   0.95198   0.00000  Uiso   1.00
C831   C     0.87044   0.15319   0.54767   0.00000  Uiso   1.00
C832   C     0.83216   0.15907   0.97638   0.00000  Uiso   1.00
C833   C     0.83227   0.15904   0.52337   0.00000  Uiso   1.00
C834   C     0.87033   0.15477   0.95390   0.00000  Uiso   1.00
C835   C     0.79431   0.16512   0.54590   0.00000  Uiso   1.00
C836   C     0.75630   0.16322   0.97477   0.00000  Uiso   1.00
C837   C     0.75599   0.16201   0.52115   0.00000  Uiso   1.00
C838   C     0.90665   0.14231   0.52476   0.00000  Uiso   1.00
C839   C     0.90946   0.17760   0.88506   0.00000  Uiso   1.00
C840   C     0.76127   0.19557   0.61565   0.00000  Uiso   1.00
C841   C     0.75407   0.16668   0.87841   0.00000  Uiso   1.00
C842   C     0.91081   0.14881   0.62073   0.00000  Uiso   1.00
C843   C     0.71530   0.15187   0.54124   0.00000  Uiso   1.00
C844   C     0.94290   0.11891   0.95791   0.00000  Uiso   1.00
C845   C     0.90653   0.14084   0.97839   0.00000  Uiso   1.00
C846   C     0.68773   0.12715   0.73977   0.00000  Uiso   1.00
C847   C     0.97895   0.20618   0.76016   0.00000  Uiso   1.00
C848   C     0.97840   0.12705   0.74030   0.00000  Uiso   1.00
C849   C     0.68829   0.20626   0.75973   0.00000  Uiso   1.00
C850   C     0.95747   0.16661   0.75034   0.00000  Uiso   1.00
H851   H     0.72659   0.16181   0.95670   0.00000  Uiso   1.00
H852   H     0.93847   0.16717   0.61166   0.00000  Uiso   1.00
H853   H     0.68667   0.16446   0.52562   0.00000  Uiso   1.00
H854   H     0.97335   0.12039   0.97460   0.00000  Uiso   1.00
H855   H     0.88459   0.07534   0.80553   0.00000  Uiso   1.00
H856   H     0.78207   0.25802   0.69460   0.00000  Uiso   1.00
H857   H     0.78217   0.07534   0.69439   0.00000  Uiso   1.00
H858   H     0.88450   0.25799   0.80561   0.00000  Uiso   1.00
H859   H     0.93501   0.13261   0.54276   0.00000  Uiso   1.00
H860   H     0.70373   0.09645   0.73159   0.00000  Uiso   1.00
H861   H     0.96294   0.23687   0.76840   0.00000  Uiso   1.00
H862   H     0.96195   0.09628   0.73246   0.00000  Uiso   1.00
H863   H     0.70476   0.23698   0.76773   0.00000  Uiso   1.00
H864   H     0.91362   0.16968   0.85008   0.00000  Uiso   1.00
H865   H     0.75418   0.18612   0.64960   0.00000  Uiso   1.00
H866   H     0.73041   0.19113   0.88637   0.00000  Uiso   1.00
N867   N     0.83333   0.28573   0.75000   0.00000  Uiso   1.00
N868   N     0.83333   0.04760   0.75000   0.00000  Uiso   1.00
O869   O     0.77226   0.20487   0.74999   0.00000  Uiso   1.00
O870   O     0.74114   0.22562   0.59772   0.00000  Uiso   1.00
O871   O     0.74696   0.13999   0.84829   0.00000  Uiso   1.00
O872   O     0.91334   0.12207   0.65148   0.00000  Uiso   1.00
O873   O     0.71317   0.12736   0.57373   0.00000  Uiso   1.00
O874   O     0.93876   0.09671   0.92379   0.00000  Uiso   1.00
O875   O     0.89308   0.04431   0.80054   0.00000  Uiso   1.00
O876   O     0.77357   0.28905   0.69950   0.00000  Uiso   1.00
O877   O     0.77368   0.04432   0.69933   0.00000  Uiso   1.00
O878   O     0.89298   0.28902   0.80069   0.00000  Uiso   1.00
O879   O     0.89441   0.12846   0.75000   0.00000  Uiso   1.00
O880   O     0.89441   0.20487   0.75000   0.00000  Uiso   1.00
O881   O     0.77226   0.12846   0.74999   0.00000  Uiso   1.00
O882   O     0.83333   0.20489   0.68392   0.00000  Uiso   1.00
O883   O     0.83334   0.12844   0.81607   0.00000  Uiso   1.00
O884   O     0.83334   0.20489   0.81607   0.00000  Uiso   1.00
O885   O     0.83333   0.12844   0.68392   0.00000  Uiso   1.00
O886   O     0.93643   0.19936   0.90479   0.00000  Uiso   1.00
Zn887  Zn    0.83333   0.21771   0.75000   0.00000  Uiso   1.00
Zn888  Zn    0.83333   0.11563   0.75000   0.00000  Uiso   1.00
C889   C     0.08676   0.50003   0.74952   0.00000  Uiso   1.00
C890   C     0.04254   0.50008   0.74950   0.00000  Uiso   1.00
C891   C     0.19606   0.35698   0.77451   0.00000  Uiso   1.00
C892   C     0.13727   0.64303   0.72551   0.00000  Uiso   1.00
C893   C     0.13729   0.35699   0.72548   0.00000  Uiso   1.00
C894   C     0.19604   0.64301   0.77453   0.00000  Uiso   1.00
C895   C     0.16732   0.49992   0.66378   0.00000  Uiso   1.00
C896   C     0.16612   0.49995   0.83618   0.00000  Uiso   1.00
C897   C     0.20392   0.49754   0.90787   0.00000  Uiso   1.00
C898   C     0.12963   0.50710   0.59217   0.00000  Uiso   1.00
C899   C     0.16572   0.49913   0.88395   0.00000  Uiso   1.00
C900   C     0.24657   0.49999   0.75025   0.00000  Uiso   1.00
C901   C     0.16724   0.49898   0.61592   0.00000  Uiso   1.00
C902   C     0.12726   0.49806   0.90515   0.00000  Uiso   1.00
C903   C     0.20433   0.48830   0.59447   0.00000  Uiso   1.00
C904   C     0.12723   0.49687   0.95198   0.00000  Uiso   1.00
C905   C     0.20377   0.48652   0.54767   0.00000  Uiso   1.00
C906   C     0.16549   0.49241   0.97638   0.00000  Uiso   1.00
C907   C     0.16561   0.49237   0.52337   0.00000  Uiso   1.00
C908   C     0.20366   0.48811   0.95390   0.00000  Uiso   1.00
C909   C     0.12765   0.49846   0.54590   0.00000  Uiso   1.00
C910   C     0.08963   0.49655   0.97477   0.00000  Uiso   1.00
C911   C     0.08932   0.49534   0.52115   0.00000  Uiso   1.00
C912   C     0.23999   0.47564   0.52476   0.00000  Uiso   1.00
C913   C     0.24279   0.51093   0.88506   0.00000  Uiso   1.00
C914   C     0.09460   0.52891   0.61565   0.00000  Uiso   1.00
C915   C     0.08740   0.50002   0.87841   0.00000  Uiso   1.00
C916   C     0.24415   0.48214   0.62073   0.00000  Uiso   1.00
C917   C     0.04863   0.48521   0.54124   0.00000  Uiso   1.00
C918   C     0.27623   0.45224   0.95791   0.00000  Uiso   1.00
C919   C     0.23987   0.47417   0.97839   0.00000  Uiso   1.00
C920   C     0.02106   0.46049   0.73977   0.00000  Uiso   1.00
C921   C     0.31229   0.53951   0.76016   0.00000  Uiso   1.00
C922   C     0.31174   0.46039   0.74030   0.00000  Uiso   1.00
C923   C     0.02162   0.53959   0.75973   0.00000  Uiso   1.00
C924   C     0.29080   0.49994   0.75034   0.00000  Uiso   1.00
H925   H     0.05992   0.49514   0.95670   0.00000  Uiso   1.00
H926   H     0.27180   0.50050   0.61166   0.00000  Uiso   1.00
H927   H     0.02000   0.49779   0.52562   0.00000  Uiso   1.00
H928   H     0.30669   0.45372   0.97460   0.00000  Uiso   1.00
H929   H     0.21793   0.40867   0.80553   0.00000  Uiso   1.00
H930   H     0.11540   0.59135   0.69460   0.00000  Uiso   1.00
H931   H     0.11551   0.40867   0.69439   0.00000  Uiso   1.00
H932   H     0.21784   0.59133   0.80561   0.00000  Uiso   1.00
H933   H     0.26834   0.46594   0.54276   0.00000  Uiso   1.00
H934   H     0.03707   0.42978   0.73159   0.00000  Uiso   1.00
H935   H     0.29628   0.57020   0.76840   0.00000  Uiso   1.00
H936   H     0.29528   0.42961   0.73246   0.00000  Uiso   1.00
H937   H     0.03810   0.57032   0.76773   0.00000  Uiso   1.00
H938   H     0.24695   0.50301   0.85008   0.00000  Uiso   1.00
H939   H     0.08752   0.51946   0.64960   0.00000  Uiso   1.00
H940   H     0.06375   0.52446   0.88637   0.00000  Uiso   1.00
N941   N     0.16667   0.61907   0.75000   0.00000  Uiso   1.00
N942   N     0.16667   0.38093   0.75000   0.00000  Uiso   1.00
O943   O     0.10559   0.53821   0.74999   0.00000  Uiso   1.00
O944   O     0.07447   0.55896   0.59772   0.00000  Uiso   1.00
O945   O     0.08029   0.47332   0.84829   0.00000  Uiso   1.00
O946   O     0.24667   0.45540   0.65148   0.00000  Uiso   1.00
O947   O     0.04651   0.46069   0.57373   0.00000  Uiso   1.00
O948   O     0.27209   0.43004   0.92379   0.00000  Uiso   1.00
O949   O     0.22642   0.37764   0.80054   0.00000  Uiso   1.00
O950   O     0.10690   0.62238   0.69950   0.00000  Uiso   1.00
O951   O     0.10702   0.37765   0.69933   0.00000  Uiso   1.00
O952   O     0.22631   0.62235   0.80069   0.00000  Uiso   1.00
O953   O     0.22774   0.46179   0.75000   0.00000  Uiso   1.00
O954   O     0.22774   0.53821   0.75000   0.00000  Uiso   1.00
O955   O     0.10559   0.46179   0.74999   0.00000  Uiso   1.00
O956   O     0.16666   0.53823   0.68392   0.00000  Uiso   1.00
O957   O     0.16667   0.46177   0.81607   0.00000  Uiso   1.00
O958   O     0.16667   0.53823   0.81607   0.00000  Uiso   1.00
O959   O     0.16666   0.46177   0.68392   0.00000  Uiso   1.00
O960   O     0.26977   0.53270   0.90479   0.00000  Uiso   1.00
Zn961  Zn    0.16667   0.55104   0.75000   0.00000  Uiso   1.00
Zn962  Zn    0.16667   0.44896   0.75000   0.00000  Uiso   1.00
C963   C     0.42010   0.50003   0.74952   0.00000  Uiso   1.00
C964   C     0.37587   0.50008   0.74950   0.00000  Uiso   1.00
C965   C     0.52939   0.35698   0.77451   0.00000  Uiso   1.00
C966   C     0.47061   0.64303   0.72551   0.00000  Uiso   1.00
C967   C     0.47063   0.35699   0.72548   0.00000  Uiso   1.00
C968   C     0.52937   0.64301   0.77453   0.00000  Uiso   1.00
C969   C     0.50065   0.49992   0.66378   0.00000  Uiso   1.00
C970   C     0.49945   0.49995   0.83618   0.00000  Uiso   1.00
C971   C     0.53725   0.49754   0.90787   0.00000  Uiso   1.00
C972   C     0.46296   0.50710   0.59217   0.00000  Uiso   1.00
C973   C     0.49905   0.49913   0.88395   0.00000  Uiso   1.00
C974   C     0.57991   0.49999   0.75025   0.00000  Uiso   1.00
C975   C     0.50057   0.49898   0.61592   0.00000  Uiso   1.00
C976   C     0.46060   0.49806   0.90515   0.00000  Uiso   1.00
C977   C     0.53766   0.48830   0.59447   0.00000  Uiso   1.00
C978   C     0.46056   0.49687   0.95198   0.00000  Uiso   1.00
C979   C     0.53711   0.48652   0.54767   0.00000  Uiso   1.00
C980   C     0.49882   0.49241   0.97638   0.00000  Uiso   1.00
C981   C     0.49894   0.49237   0.52337   0.00000  Uiso   1.00
C982   C     0.53699   0.48811   0.95390   0.00000  Uiso   1.00
C983   C     0.46098   0.49846   0.54590   0.00000  Uiso   1.00
C984   C     0.42297   0.49655   0.97477   0.00000  Uiso   1.00
C985   C     0.42266   0.49534   0.52115   0.00000  Uiso   1.00
C986   C     0.57332   0.47564   0.52476   0.00000  Uiso   1.00
C987   C     0.57612   0.51093   0.88506   0.00000  Uiso   1.00
C988   C     0.42794   0.52891   0.61565   0.00000  Uiso   1.00
C989   C     0.42074   0.50002   0.87841   0.00000  Uiso   1.00
C990   C     0.57748   0.48214   0.62073   0.00000  Uiso   1.00
C991   C     0.38196   0.48521   0.54124   0.00000  Uiso   1.00
C992   C     0.60957   0.45224   0.95791   0.00000  Uiso   1.00
C993   C     0.57320   0.47417   0.97839   0.00000  Uiso   1.00
C994   C     0.35439   0.46049   0.73977   0.00000  Uiso   1.00
C995   C     0.64562   0.53951   0.76016   0.00000  Uiso   1.00
C996   C     0.64507   0.46039   0.74030   0.00000  Uiso   1.00
C997   C     0.35495   0.53959   0.75973   0.00000  Uiso   1.00
C998   C     0.62413   0.49994   0.75034   0.00000  Uiso   1.00
H999   H     0.39326   0.49514   0.95670   0.00000  Uiso   1.00
H1000  H     0.60514   0.50050   0.61166   0.00000  Uiso   1.00
H1001  H     0.35333   0.49779   0.52562   0.00000  Uiso   1.00
H1002  H     0.64002   0.45372   0.97460   0.00000  Uiso   1.00
H1003  H     0.55126   0.40867   0.80553   0.00000  Uiso   1.00
H1004  H     0.44873   0.59135   0.69460   0.00000  Uiso   1.00
H1005  H     0.44884   0.40867   0.69439   0.00000  Uiso   1.00
H1006  H     0.55117   0.59133   0.80561   0.00000  Uiso   1.00
H1007  H     0.60168   0.46594   0.54276   0.00000  Uiso   1.00
H1008  H     0.37040   0.42978   0.73159   0.00000  Uiso   1.00
H1009  H     0.62961   0.57020   0.76840   0.00000  Uiso   1.00
H1010  H     0.62862   0.42961   0.73246   0.00000  Uiso   1.00
H1011  H     0.37143   0.57032   0.76773   0.00000  Uiso   1.00
H1012  H     0.58028   0.50301   0.85008   0.00000  Uiso   1.00
H1013  H     0.42085   0.51946   0.64960   0.00000  Uiso   1.00
H1014  H     0.39708   0.52446   0.88637   0.00000  Uiso   1.00
N1015  N     0.50000   0.61907   0.75000   0.00000  Uiso   1.00
N1016  N     0.50000   0.38093   0.75000   0.00000  Uiso   1.00
O1017  O     0.43892   0.53821   0.74999   0.00000  Uiso   1.00
O1018  O     0.40781   0.55896   0.59772   0.00000  Uiso   1.00
O1019  O     0.41362   0.47332   0.84829   0.00000  Uiso   1.00
O1020  O     0.58000   0.45540   0.65148   0.00000  Uiso   1.00
O1021  O     0.37984   0.46069   0.57373   0.00000  Uiso   1.00
O1022  O     0.60543   0.43004   0.92379   0.00000  Uiso   1.00
O1023  O     0.55975   0.37764   0.80054   0.00000  Uiso   1.00
O1024  O     0.44024   0.62238   0.69950   0.00000  Uiso   1.00
O1025  O     0.44035   0.37765   0.69933   0.00000  Uiso   1.00
O1026  O     0.55965   0.62235   0.80069   0.00000  Uiso   1.00
O1027  O     0.56108   0.46179   0.75000   0.00000  Uiso   1.00
O1028  O     0.56108   0.53821   0.75000   0.00000  Uiso   1.00
O1029  O     0.43892   0.46179   0.74999   0.00000  Uiso   1.00
O1030  O     0.49999   0.53823   0.68392   0.00000  Uiso   1.00
O1031  O     0.50001   0.46177   0.81607   0.00000  Uiso   1.00
O1032  O     0.50001   0.53823   0.81607   0.00000  Uiso   1.00
O1033  O     0.49999   0.46177   0.68392   0.00000  Uiso   1.00
O1034  O     0.60310   0.53270   0.90479   0.00000  Uiso   1.00
Zn1035 Zn    0.50000   0.55104   0.75000   0.00000  Uiso   1.00
Zn1036 Zn    0.50000   0.44896   0.75000   0.00000  Uiso   1.00
C1037  C     0.75343   0.50003   0.74952   0.00000  Uiso   1.00
C1038  C     0.70921   0.50008   0.74950   0.00000  Uiso   1.00
C1039  C     0.86272   0.35698   0.77451   0.00000  Uiso   1.00
C1040  C     0.80394   0.64303   0.72551   0.00000  Uiso   1.00
C1041  C     0.80396   0.35699   0.72548   0.00000  Uiso   1.00
C1042  C     0.86271   0.64301   0.77453   0.00000  Uiso   1.00
C1043  C     0.83398   0.49992   0.66378   0.00000  Uiso   1.00
C1044  C     0.83279   0.49995   0.83618   0.00000  Uiso   1.00
C1045  C     0.87059   0.49754   0.90787   0.00000  Uiso   1.00
C1046  C     0.79630   0.50710   0.59217   0.00000  Uiso   1.00
C1047  C     0.83238   0.49913   0.88395   0.00000  Uiso   1.00
C1048  C     0.91324   0.49999   0.75025   0.00000  Uiso   1.00
C1049  C     0.83391   0.49898   0.61592   0.00000  Uiso   1.00
C1050  C     0.79393   0.49806   0.90515   0.00000  Uiso   1.00
C1051  C     0.87100   0.48830   0.59447   0.00000  Uiso   1.00
C1052  C     0.79390   0.49687   0.95198   0.00000  Uiso   1.00
C1053  C     0.87044   0.48652   0.54767   0.00000  Uiso   1.00
C1054  C     0.83216   0.49241   0.97638   0.00000  Uiso   1.00
C1055  C     0.83227   0.49237   0.52337   0.00000  Uiso   1.00
C1056  C     0.87033   0.48811   0.95390   0.00000  Uiso   1.00
C1057  C     0.79431   0.49846   0.54590   0.00000  Uiso   1.00
C1058  C     0.75630   0.49655   0.97477   0.00000  Uiso   1.00
C1059  C     0.75599   0.49534   0.52115   0.00000  Uiso   1.00
C1060  C     0.90665   0.47564   0.52476   0.00000  Uiso   1.00
C1061  C     0.90946   0.51093   0.88506   0.00000  Uiso   1.00
C1062  C     0.76127   0.52891   0.61565   0.00000  Uiso   1.00
C1063  C     0.75407   0.50002   0.87841   0.00000  Uiso   1.00
C1064  C     0.91081   0.48214   0.62073   0.00000  Uiso   1.00
C1065  C     0.71530   0.48521   0.54124   0.00000  Uiso   1.00
C1066  C     0.94290   0.45224   0.95791   0.00000  Uiso   1.00
C1067  C     0.90653   0.47417   0.97839   0.00000  Uiso   1.00
C1068  C     0.68773   0.46049   0.73977   0.00000  Uiso   1.00
C1069  C     0.97895   0.53951   0.76016   0.00000  Uiso   1.00
C1070  C     0.97840   0.46039   0.74030   0.00000  Uiso   1.00
C1071  C     0.68829   0.53959   0.75973   0.00000  Uiso   1.00
C1072  C     0.95747   0.49994   0.75034   0.00000  Uiso   1.00
H1073  H     0.72659   0.49514   0.95670   0.00000  Uiso   1.00
H1074  H     0.93847   0.50050   0.61166   0.00000  Uiso   1.00
H1075  H     0.68667   0.49779   0.52562   0.00000  Uiso   1.00
H1076  H     0.97335   0.45372   0.97460   0.00000  Uiso   1.00
H1077  H     0.88459   0.40867   0.80553   0.00000  Uiso   1.00
H1078  H     0.78207   0.59135   0.69460   0.00000  Uiso   1.00
H1079  H     0.78217   0.40867   0.69439   0.00000  Uiso   1.00
H1080  H     0.88450   0.59133   0.80561   0.00000  Uiso   1.00
H1081  H     0.93501   0.46594   0.54276   0.00000  Uiso   1.00
H1082  H     0.70373   0.42978   0.73159   0.00000  Uiso   1.00
H1083  H     0.96294   0.57020   0.76840   0.00000  Uiso   1.00
H1084  H     0.96195   0.42961   0.73246   0.00000  Uiso   1.00
H1085  H     0.70476   0.57032   0.76773   0.00000  Uiso   1.00
H1086  H     0.91362   0.50301   0.85008   0.00000  Uiso   1.00
H1087  H     0.75418   0.51946   0.64960   0.00000  Uiso   1.00
H1088  H     0.73041   0.52446   0.88637   0.00000  Uiso   1.00
N1089  N     0.83333   0.61907   0.75000   0.00000  Uiso   1.00
N1090  N     0.83333   0.38093   0.75000   0.00000  Uiso   1.00
O1091  O     0.77226   0.53821   0.74999   0.00000  Uiso   1.00
O1092  O     0.74114   0.55896   0.59772   0.00000  Uiso   1.00
O1093  O     0.74696   0.47332   0.84829   0.00000  Uiso   1.00
O1094  O     0.91334   0.45540   0.65148   0.00000  Uiso   1.00
O1095  O     0.71317   0.46069   0.57373   0.00000  Uiso   1.00
O1096  O     0.93876   0.43004   0.92379   0.00000  Uiso   1.00
O1097  O     0.89308   0.37764   0.80054   0.00000  Uiso   1.00
O1098  O     0.77357   0.62238   0.69950   0.00000  Uiso   1.00
O1099  O     0.77368   0.37765   0.69933   0.00000  Uiso   1.00
O1100  O     0.89298   0.62235   0.80069   0.00000  Uiso   1.00
O1101  O     0.89441   0.46179   0.75000   0.00000  Uiso   1.00
O1102  O     0.89441   0.53821   0.75000   0.00000  Uiso   1.00
O1103  O     0.77226   0.46179   0.74999   0.00000  Uiso   1.00
O1104  O     0.83333   0.53823   0.68392   0.00000  Uiso   1.00
O1105  O     0.83334   0.46177   0.81607   0.00000  Uiso   1.00
O1106  O     0.83334   0.53823   0.81607   0.00000  Uiso   1.00
O1107  O     0.83333   0.46177   0.68392   0.00000  Uiso   1.00
O1108  O     0.93643   0.53270   0.90479   0.00000  Uiso   1.00
Zn1109 Zn    0.83333   0.55104   0.75000   0.00000  Uiso   1.00
Zn1110 Zn    0.83333   0.44896   0.75000   0.00000  Uiso   1.00
C1111  C     0.08676   0.83336   0.74952   0.00000  Uiso   1.00
C1112  C     0.04254   0.83341   0.74950   0.00000  Uiso   1.00
C1113  C     0.19606   0.69032   0.77451   0.00000  Uiso   1.00
C1114  C     0.13727   0.97636   0.72551   0.00000  Uiso   1.00
C1115  C     0.13729   0.69033   0.72548   0.00000  Uiso   1.00
C1116  C     0.19604   0.97634   0.77453   0.00000  Uiso   1.00
C1117  C     0.16732   0.83325   0.66378   0.00000  Uiso   1.00
C1118  C     0.16612   0.83329   0.83618   0.00000  Uiso   1.00
C1119  C     0.20392   0.83087   0.90787   0.00000  Uiso   1.00
C1120  C     0.12963   0.84043   0.59217   0.00000  Uiso   1.00
C1121  C     0.16572   0.83247   0.88395   0.00000  Uiso   1.00
C1122  C     0.24657   0.83332   0.75025   0.00000  Uiso   1.00
C1123  C     0.16724   0.83231   0.61592   0.00000  Uiso   1.00
C1124  C     0.12726   0.83139   0.90515   0.00000  Uiso   1.00
C1125  C     0.20433   0.82163   0.59447   0.00000  Uiso   1.00
C1126  C     0.12723   0.83020   0.95198   0.00000  Uiso   1.00
C1127  C     0.20377   0.81985   0.54767   0.00000  Uiso   1.00
C1128  C     0.16549   0.82574   0.97638   0.00000  Uiso   1.00
C1129  C     0.16561   0.82570   0.52337   0.00000  Uiso   1.00
C1130  C     0.20366   0.82144   0.95390   0.00000  Uiso   1.00
C1131  C     0.12765   0.83179   0.54590   0.00000  Uiso   1.00
C1132  C     0.08963   0.82989   0.97477   0.00000  Uiso   1.00
C1133  C     0.08932   0.82867   0.52115   0.00000  Uiso   1.00
C1134  C     0.23999   0.80898   0.52476   0.00000  Uiso   1.00
C1135  C     0.24279   0.84426   0.88506   0.00000  Uiso   1.00
C1136  C     0.09460   0.86224   0.61565   0.00000  Uiso   1.00
C1137  C     0.08740   0.83335   0.87841   0.00000  Uiso   1.00
C1138  C     0.24415   0.81547   0.62073   0.00000  Uiso   1.00
C1139  C     0.04863   0.81854   0.54124   0.00000  Uiso   1.00
C1140  C     0.27623   0.78558   0.95791   0.00000  Uiso   1.00
C1141  C     0.23987   0.80751   0.97839   0.00000  Uiso   1.00
C1142  C     0.02106   0.79382   0.73977   0.00000  Uiso   1.00
C1143  C     0.31229   0.87285   0.76016   0.00000  Uiso   1.00
C1144  C     0.31174   0.79372   0.74030   0.00000  Uiso   1.00
C1145  C     0.02162   0.87292   0.75973   0.00000  Uiso   1.00
C1146  C     0.29080   0.83328   0.75034   0.00000  Uiso   1.00
H1147  H     0.05992   0.82848   0.95670   0.00000  Uiso   1.00
H1148  H     0.27180   0.83384   0.61166   0.00000  Uiso   1.00
H1149  H     0.02000   0.83112   0.52562   0.00000  Uiso   1.00
H1150  H     0.30669   0.78706   0.97460   0.00000  Uiso   1.00
H1151  H     0.21793   0.74200   0.80553   0.00000  Uiso   1.00
H1152  H     0.11540   0.92469   0.69460   0.00000  Uiso   1.00
H1153  H     0.11551   0.74200   0.69439   0.00000  Uiso   1.00
H1154  H     0.21784   0.92466   0.80561   0.00000  Uiso   1.00
H1155  H     0.26834   0.79927   0.54276   0.00000  Uiso   1.00
H1156  H     0.03707   0.76312   0.73159   0.00000  Uiso   1.00
H1157  H     0.29628   0.90353   0.76840   0.00000  Uiso   1.00
H1158  H     0.29528   0.76294   0.73246   0.00000  Uiso   1.00
H1159  H     0.03810   0.90365   0.76773   0.00000  Uiso   1.00
H1160  H     0.24695   0.83635   0.85008   0.00000  Uiso   1.00
H1161  H     0.08752   0.85279   0.64960   0.00000  Uiso   1.00
H1162  H     0.06375   0.85780   0.88637   0.00000  Uiso   1.00
N1163  N     0.16667   0.95240   0.75000   0.00000  Uiso   1.00
N1164  N     0.16667   0.71427   0.75000   0.00000  Uiso   1.00
O1165  O     0.10559   0.87154   0.74999   0.00000  Uiso   1.00
O1166  O     0.07447   0.89229   0.59772   0.00000  Uiso   1.00
O1167  O     0.08029   0.80666   0.84829   0.00000  Uiso   1.00
O1168  O     0.24667   0.78873   0.65148   0.00000  Uiso   1.00
O1169  O     0.04651   0.79402   0.57373   0.00000  Uiso   1.00
O1170  O     0.27209   0.76337   0.92379   0.00000  Uiso   1.00
O1171  O     0.22642   0.71097   0.80054   0.00000  Uiso   1.00
O1172  O     0.10690   0.95572   0.69950   0.00000  Uiso   1.00
O1173  O     0.10702   0.71098   0.69933   0.00000  Uiso   1.00
O1174  O     0.22631   0.95569   0.80069   0.00000  Uiso   1.00
O1175  O     0.22774   0.79513   0.75000   0.00000  Uiso   1.00
O1176  O     0.22774   0.87154   0.75000   0.00000  Uiso   1.00
O1177  O     0.10559   0.79513   0.74999   0.00000  Uiso   1.00
O1178  O     0.16666   0.87156   0.68392   0.00000  Uiso   1.00
O1179  O     0.16667   0.79511   0.81607   0.00000  Uiso   1.00
O1180  O     0.16667   0.87156   0.81607   0.00000  Uiso   1.00
O1181  O     0.16666   0.79511   0.68392   0.00000  Uiso   1.00
O1182  O     0.26977   0.86603   0.90479   0.00000  Uiso   1.00
Zn1183 Zn    0.16667   0.88437   0.75000   0.00000  Uiso   1.00
Zn1184 Zn    0.16667   0.78229   0.75000   0.00000  Uiso   1.00
C1185  C     0.42010   0.83336   0.74952   0.00000  Uiso   1.00
C1186  C     0.37587   0.83341   0.74950   0.00000  Uiso   1.00
C1187  C     0.52939   0.69032   0.77451   0.00000  Uiso   1.00
C1188  C     0.47061   0.97636   0.72551   0.00000  Uiso   1.00
C1189  C     0.47063   0.69033   0.72548   0.00000  Uiso   1.00
C1190  C     0.52937   0.97634   0.77453   0.00000  Uiso   1.00
C1191  C     0.50065   0.83325   0.66378   0.00000  Uiso   1.00
C1192  C     0.49945   0.83329   0.83618   0.00000  Uiso   1.00
C1193  C     0.53725   0.83087   0.90787   0.00000  Uiso   1.00
C1194  C     0.46296   0.84043   0.59217   0.00000  Uiso   1.00
C1195  C     0.49905   0.83247   0.88395   0.00000  Uiso   1.00
C1196  C     0.57991   0.83332   0.75025   0.00000  Uiso   1.00
C1197  C     0.50057   0.83231   0.61592   0.00000  Uiso   1.00
C1198  C     0.46060   0.83139   0.90515   0.00000  Uiso   1.00
C1199  C     0.53766   0.82163   0.59447   0.00000  Uiso   1.00
C1200  C     0.46056   0.83020   0.95198   0.00000  Uiso   1.00
C1201  C     0.53711   0.81985   0.54767   0.00000  Uiso   1.00
C1202  C     0.49882   0.82574   0.97638   0.00000  Uiso   1.00
C1203  C     0.49894   0.82570   0.52337   0.00000  Uiso   1.00
C1204  C     0.53699   0.82144   0.95390   0.00000  Uiso   1.00
C1205  C     0.46098   0.83179   0.54590   0.00000  Uiso   1.00
C1206  C     0.42297   0.82989   0.97477   0.00000  Uiso   1.00
C1207  C     0.42266   0.82867   0.52115   0.00000  Uiso   1.00
C1208  C     0.57332   0.80898   0.52476   0.00000  Uiso   1.00
C1209  C     0.57612   0.84426   0.88506   0.00000  Uiso   1.00
C1210  C     0.42794   0.86224   0.61565   0.00000  Uiso   1.00
C1211  C     0.42074   0.83335   0.87841   0.00000  Uiso   1.00
C1212  C     0.57748   0.81547   0.62073   0.00000  Uiso   1.00
C1213  C     0.38196   0.81854   0.54124   0.00000  Uiso   1.00
C1214  C     0.60957   0.78558   0.95791   0.00000  Uiso   1.00
C1215  C     0.57320   0.80751   0.97839   0.00000  Uiso   1.00
C1216  C     0.35439   0.79382   0.73977   0.00000  Uiso   1.00
C1217  C     0.64562   0.87285   0.76016   0.00000  Uiso   1.00
C1218  C     0.64507   0.79372   0.74030   0.00000  Uiso   1.00
C1219  C     0.35495   0.87292   0.75973   0.00000  Uiso   1.00
C1220  C     0.62413   0.83328   0.75034   0.00000  Uiso   1.00
H1221  H     0.39326   0.82848   0.95670   0.00000  Uiso   1.00
H1222  H     0.60514   0.83384   0.61166   0.00000  Uiso   1.00
H1223  H     0.35333   0.83112   0.52562   0.00000  Uiso   1.00
H1224  H     0.64002   0.78706   0.97460   0.00000  Uiso   1.00
H1225  H     0.55126   0.74200   0.80553   0.00000  Uiso   1.00
H1226  H     0.44873   0.92469   0.69460   0.00000  Uiso   1.00
H1227  H     0.44884   0.74200   0.69439   0.00000  Uiso   1.00
H1228  H     0.55117   0.92466   0.80561   0.00000  Uiso   1.00
H1229  H     0.60168   0.79927   0.54276   0.00000  Uiso   1.00
H1230  H     0.37040   0.76312   0.73159   0.00000  Uiso   1.00
H1231  H     0.62961   0.90353   0.76840   0.00000  Uiso   1.00
H1232  H     0.62862   0.76294   0.73246   0.00000  Uiso   1.00
H1233  H     0.37143   0.90365   0.76773   0.00000  Uiso   1.00
H1234  H     0.58028   0.83635   0.85008   0.00000  Uiso   1.00
H1235  H     0.42085   0.85279   0.64960   0.00000  Uiso   1.00
H1236  H     0.39708   0.85780   0.88637   0.00000  Uiso   1.00
N1237  N     0.50000   0.95240   0.75000   0.00000  Uiso   1.00
N1238  N     0.50000   0.71427   0.75000   0.00000  Uiso   1.00
O1239  O     0.43892   0.87154   0.74999   0.00000  Uiso   1.00
O1240  O     0.40781   0.89229   0.59772   0.00000  Uiso   1.00
O1241  O     0.41362   0.80666   0.84829   0.00000  Uiso   1.00
O1242  O     0.58000   0.78873   0.65148   0.00000  Uiso   1.00
O1243  O     0.37984   0.79402   0.57373   0.00000  Uiso   1.00
O1244  O     0.60543   0.76337   0.92379   0.00000  Uiso   1.00
O1245  O     0.55975   0.71097   0.80054   0.00000  Uiso   1.00
O1246  O     0.44024   0.95572   0.69950   0.00000  Uiso   1.00
O1247  O     0.44035   0.71098   0.69933   0.00000  Uiso   1.00
O1248  O     0.55965   0.95569   0.80069   0.00000  Uiso   1.00
O1249  O     0.56108   0.79513   0.75000   0.00000  Uiso   1.00
O1250  O     0.56108   0.87154   0.75000   0.00000  Uiso   1.00
O1251  O     0.43892   0.79513   0.74999   0.00000  Uiso   1.00
O1252  O     0.49999   0.87156   0.68392   0.00000  Uiso   1.00
O1253  O     0.50001   0.79511   0.81607   0.00000  Uiso   1.00
O1254  O     0.50001   0.87156   0.81607   0.00000  Uiso   1.00
O1255  O     0.49999   0.79511   0.68392   0.00000  Uiso   1.00
O1256  O     0.60310   0.86603   0.90479   0.00000  Uiso   1.00
Zn1257 Zn    0.50000   0.88437   0.75000   0.00000  Uiso   1.00
Zn1258 Zn    0.50000   0.78229   0.75000   0.00000  Uiso   1.00
C1259  C     0.75343   0.83336   0.74952   0.00000  Uiso   1.00
C1260  C     0.70921   0.83341   0.74950   0.00000  Uiso   1.00
C1261  C     0.86272   0.69032   0.77451   0.00000  Uiso   1.00
C1262  C     0.80394   0.97636   0.72551   0.00000  Uiso   1.00
C1263  C     0.80396   0.69033   0.72548   0.00000  Uiso   1.00
C1264  C     0.86271   0.97634   0.77453   0.00000  Uiso   1.00
C1265  C     0.83398   0.83325   0.66378   0.00000  Uiso   1.00
C1266  C     0.83279   0.83329   0.83618   0.00000  Uiso   1.00
C1267  C     0.87059   0.83087   0.90787   0.00000  Uiso   1.00
C1268  C     0.79630   0.84043   0.59217   0.00000  Uiso   1.00
C1269  C     0.83238   0.83247   0.88395   0.00000  Uiso   1.00
C1270  C     0.91324   0.83332   0.75025   0.00000  Uiso   1.00
C1271  C     0.83391   0.83231   0.61592   0.00000  Uiso   1.00
C1272  C     0.79393   0.83139   0.90515   0.00000  Uiso   1.00
C1273  C     0.87100   0.82163   0.59447   0.00000  Uiso   1.00
C1274  C     0.79390   0.83020   0.95198   0.00000  Uiso   1.00
C1275  C     0.87044   0.81985   0.54767   0.00000  Uiso   1.00
C1276  C     0.83216   0.82574   0.97638   0.00000  Uiso   1.00
C1277  C     0.83227   0.82570   0.52337   0.00000  Uiso   1.00
C1278  C     0.87033   0.82144   0.95390   0.00000  Uiso   1.00
C1279  C     0.79431   0.83179   0.54590   0.00000  Uiso   1.00
C1280  C     0.75630   0.82989   0.97477   0.00000  Uiso   1.00
C1281  C     0.75599   0.82867   0.52115   0.00000  Uiso   1.00
C1282  C     0.90665   0.80898   0.52476   0.00000  Uiso   1.00
C1283  C     0.90946   0.84426   0.88506   0.00000  Uiso   1.00
C1284  C     0.76127   0.86224   0.61565   0.00000  Uiso   1.00
C1285  C     0.75407   0.83335   0.87841   0.00000  Uiso   1.00
C1286  C     0.91081   0.81547   0.62073   0.00000  Uiso   1.00
C1287  C     0.71530   0.81854   0.54124   0.00000  Uiso   1.00
C1288  C     0.94290   0.78558   0.95791   0.00000  Uiso   1.00
C1289  C     0.90653   0.80751   0.97839   0.00000  Uiso   1.00
C1290  C     0.68773   0.79382   0.73977   0.00000  Uiso   1.00
C1291  C     0.97895   0.87285   0.76016   0.00000  Uiso   1.00
C1292  C     0.97840   0.79372   0.74030   0.00000  Uiso   1.00
C1293  C     0.68829   0.87292   0.75973   0.00000  Uiso   1.00
C1294  C     0.95747   0.83328   0.75034   0.00000  Uiso   1.00
H1295  H     0.72659   0.82848   0.95670   0.00000  Uiso   1.00
H1296  H     0.93847   0.83384   0.61166   0.00000  Uiso   1.00
H1297  H     0.68667   0.83112   0.52562   0.00000  Uiso   1.00
H1298  H     0.97335   0.78706   0.97460   0.00000  Uiso   1.00
H1299  H     0.88459   0.74200   0.80553   0.00000  Uiso   1.00
H1300  H     0.78207   0.92469   0.69460   0.00000  Uiso   1.00
H1301  H     0.78217   0.74200   0.69439   0.00000  Uiso   1.00
H1302  H     0.88450   0.92466   0.80561   0.00000  Uiso   1.00
H1303  H     0.93501   0.79927   0.54276   0.00000  Uiso   1.00
H1304  H     0.70373   0.76312   0.73159   0.00000  Uiso   1.00
H1305  H     0.96294   0.90353   0.76840   0.00000  Uiso   1.00
H1306  H     0.96195   0.76294   0.73246   0.00000  Uiso   1.00
H1307  H     0.70476   0.90365   0.76773   0.00000  Uiso   1.00
H1308  H     0.91362   0.83635   0.85008   0.00000  Uiso   1.00
H1309  H     0.75418   0.85279   0.64960   0.00000  Uiso   1.00
H1310  H     0.73041   0.85780   0.88637   0.00000  Uiso   1.00
N1311  N     0.83333   0.95240   0.75000   0.00000  Uiso   1.00
N1312  N     0.83333   0.71427   0.75000   0.00000  Uiso   1.00
O1313  O     0.77226   0.87154   0.74999   0.00000  Uiso   1.00
O1314  O     0.74114   0.89229   0.59772   0.00000  Uiso   1.00
O1315  O     0.74696   0.80666   0.84829   0.00000  Uiso   1.00
O1316  O     0.91334   0.78873   0.65148   0.00000  Uiso   1.00
O1317  O     0.71317   0.79402   0.57373   0.00000  Uiso   1.00
O1318  O     0.93876   0.76337   0.92379   0.00000  Uiso   1.00
O1319  O     0.89308   0.71097   0.80054   0.00000  Uiso   1.00
O1320  O     0.77357   0.95572   0.69950   0.00000  Uiso   1.00
O1321  O     0.77368   0.71098   0.69933   0.00000  Uiso   1.00
O1322  O     0.89298   0.95569   0.80069   0.00000  Uiso   1.00
O1323  O     0.89441   0.79513   0.75000   0.00000  Uiso   1.00
O1324  O     0.89441   0.87154   0.75000   0.00000  Uiso   1.00
O1325  O     0.77226   0.79513   0.74999   0.00000  Uiso   1.00
O1326  O     0.83333   0.87156   0.68392   0.00000  Uiso   1.00
O1327  O     0.83334   0.79511   0.81607   0.00000  Uiso   1.00
O1328  O     0.83334   0.87156   0.81607   0.00000  Uiso   1.00
O1329  O     0.83333   0.79511   0.68392   0.00000  Uiso   1.00
O1330  O     0.93643   0.86603   0.90479   0.00000  Uiso   1.00
Zn1331 Zn    0.83333   0.88437   0.75000   0.00000  Uiso   1.00
Zn1332 Zn    0.83333   0.78229   0.75000   0.00000  Uiso   1.00
loop_
_geom_bond_atom_site_label_1
_geom_bond_atom_site_label_2
_geom_bond_distance
_geom_bond_site_symmetry_2
_ccdc_geom_bond_type
C1     O55     1.292   .     A
C1     C2      1.419   .     S
C1     O67     1.293   .     A
C2     C35     1.397   .     A
C2     C32     1.397   .     A
C3     O61     1.376   .     S
C3     N54     1.378   .     A
C3     C450    1.415   1_545 S
C4     N53     1.378   .     A
C4     O62     1.375   .     S
C4     C227    1.415   .     S
C5     N54     1.378   .     A
C5     O63     1.375   .     S
C5     C448    1.415   1_545 S
C6     N53     1.378   .     A
C6     O64     1.375   .     S
C6     C225    1.415   .     S
C7     O68     1.295   .     A
C7     O71     1.291   .     A
C7     C13     1.431   .     S
C8     O70     1.294   .     A
C8     C11     1.429   .     S
C8     O69     1.291   .     A
C9     C20     1.406   .     A
C9     C25     1.494   .     S
C9     C11     1.402   .     A
C10    C26     1.492   .     S
C10    C21     1.407   .     A
C10    C13     1.403   .     A
C11    C14     1.404   .     A
C12    C36     1.419   .     S
C12    O65     1.293   .     A
C12    O66     1.293   .     A
C13    C15     1.405   .     A
C14    C27     1.489   .     S
C14    C16     1.401   .     A
C15    C28     1.491   .     S
C15    C17     1.400   .     A
C16    C18     1.416   .     A
C16    C22     1.403   .     A
C17    C24     1.404   .     A
C17    C19     1.416   .     A
C18    C20     1.420   .     A
C18    C685    1.405   .     S
C19    C21     1.421   .     A
C19    C684    1.405   1_554 S
C20    C31     1.417   .     A
C21    C23     1.419   .     A
C22    H37     1.083   .     S
C22    C689    1.388   .     S
C23    C29     1.485   .     S
C23    C688    1.388   1_554 S
C24    H45     1.083   .     S
C24    C697    1.387   1_554 S
C25    H50     1.085   .     S
C25    O72     1.221   .     D
C26    H51     1.085   .     S
C26    O56     1.221   .     D
C27    H52     1.085   .     S
C27    O57     1.220   .     D
C28    O58     1.220   .     D
C28    H38     1.085   .     S
C29    H39     1.085   .     S
C29    O59     1.221   .     D
C30    C31     1.486   .     S
C30    H40     1.085   .     S
C30    O60     1.221   .     D
C31    C690    1.387   .     S
C32    H46     1.083   .     S
C32    C182    1.369   1_455 S
C33    H47     1.083   .     S
C33    C36     1.397   .     A
C33    C109    1.370   .     S
C34    C36     1.397   .     A
C34    H48     1.084   .     S
C34    C106    1.369   .     S
C35    H49     1.084   .     S
C35    C181    1.370   1_455 S
H41    O61     0.980   .     S
H42    O62     0.979   .     S
H43    O63     0.980   .     S
H44    O64     0.980   .     S
N53    Zn73    2.035   .     S
N54    Zn74    2.035   .     S
O55    Zn73    1.997   .     S
O65    Zn74    1.997   .     S
O66    Zn73    1.997   .     S
O67    Zn74    1.997   .     S
O68    Zn73    2.013   .     S
O69    Zn74    2.013   .     S
O70    Zn73    2.013   .     S
O71    Zn74    2.013   .     S
C75    O129    1.292   .     A
C75    C76     1.419   .     S
C75    O141    1.293   .     A
C76    C109    1.397   .     A
C76    C106    1.397   .     A
C77    O135    1.376   .     S
C77    N128    1.378   .     A
C77    C524    1.415   1_545 S
C78    N127    1.378   .     A
C78    O136    1.375   .     S
C78    C301    1.415   .     S
C79    N128    1.378   .     A
C79    O137    1.375   .     S
C79    C522    1.415   1_545 S
C80    N127    1.378   .     A
C80    O138    1.375   .     S
C80    C299    1.415   .     S
C81    O142    1.295   .     A
C81    O145    1.291   .     A
C81    C87     1.431   .     S
C82    O144    1.294   .     A
C82    C85     1.429   .     S
C82    O143    1.291   .     A
C83    C94     1.406   .     A
C83    C99     1.494   .     S
C83    C85     1.402   .     A
C84    C100    1.492   .     S
C84    C95     1.407   .     A
C84    C87     1.403   .     A
C85    C88     1.404   .     A
C86    C110    1.419   .     S
C86    O139    1.293   .     A
C86    O140    1.293   .     A
C87    C89     1.405   .     A
C88    C101    1.489   .     S
C88    C90     1.401   .     A
C89    C102    1.491   .     S
C89    C91     1.400   .     A
C90    C92     1.416   .     A
C90    C96     1.403   .     A
C91    C98     1.404   .     A
C91    C93     1.416   .     A
C92    C94     1.420   .     A
C92    C759    1.405   .     S
C93    C95     1.421   .     A
C93    C758    1.405   1_554 S
C94    C105    1.417   .     A
C95    C97     1.419   .     A
C96    H111    1.083   .     S
C96    C763    1.388   .     S
C97    C103    1.485   .     S
C97    C762    1.388   1_554 S
C98    H119    1.083   .     S
C98    C771    1.387   1_554 S
C99    H124    1.085   .     S
C99    O146    1.221   .     D
C100   H125    1.085   .     S
C100   O130    1.221   .     D
C101   H126    1.085   .     S
C101   O131    1.220   .     D
C102   O132    1.220   .     D
C102   H112    1.085   .     S
C103   H113    1.085   .     S
C103   O133    1.221   .     D
C104   C105    1.486   .     S
C104   H114    1.085   .     S
C104   O134    1.221   .     D
C105   C764    1.387   .     S
C106   H120    1.083   .     S
C107   H121    1.083   .     S
C107   C110    1.397   .     A
C107   C183    1.370   .     S
C108   C110    1.397   .     A
C108   H122    1.084   .     S
C108   C180    1.369   .     S
C109   H123    1.084   .     S
H115   O135    0.980   .     S
H116   O136    0.979   .     S
H117   O137    0.980   .     S
H118   O138    0.980   .     S
N127   Zn147   2.035   .     S
N128   Zn148   2.035   .     S
O129   Zn147   1.997   .     S
O139   Zn148   1.997   .     S
O140   Zn147   1.997   .     S
O141   Zn148   1.997   .     S
O142   Zn147   2.013   .     S
O143   Zn148   2.013   .     S
O144   Zn147   2.013   .     S
O145   Zn148   2.013   .     S
C149   O203    1.292   .     A
C149   C150    1.419   .     S
C149   O215    1.293   .     A
C150   C183    1.397   .     A
C150   C180    1.397   .     A
C151   O209    1.376   .     S
C151   N202    1.378   .     A
C151   C598    1.415   1_545 S
C152   N201    1.378   .     A
C152   O210    1.375   .     S
C152   C375    1.415   .     S
C153   N202    1.378   .     A
C153   O211    1.375   .     S
C153   C596    1.415   1_545 S
C154   N201    1.378   .     A
C154   O212    1.375   .     S
C154   C373    1.415   .     S
C155   O216    1.295   .     A
C155   O219    1.291   .     A
C155   C161    1.431   .     S
C156   O218    1.294   .     A
C156   C159    1.429   .     S
C156   O217    1.291   .     A
C157   C168    1.406   .     A
C157   C173    1.494   .     S
C157   C159    1.402   .     A
C158   C174    1.492   .     S
C158   C169    1.407   .     A
C158   C161    1.403   .     A
C159   C162    1.404   .     A
C160   C184    1.419   .     S
C160   O213    1.293   .     A
C160   O214    1.293   .     A
C161   C163    1.405   .     A
C162   C175    1.489   .     S
C162   C164    1.401   .     A
C163   C176    1.491   .     S
C163   C165    1.400   .     A
C164   C166    1.416   .     A
C164   C170    1.403   .     A
C165   C172    1.404   .     A
C165   C167    1.416   .     A
C166   C168    1.420   .     A
C166   C833    1.405   .     S
C167   C169    1.421   .     A
C167   C832    1.405   1_554 S
C168   C179    1.417   .     A
C169   C171    1.419   .     A
C170   H185    1.083   .     S
C170   C837    1.388   .     S
C171   C177    1.485   .     S
C171   C836    1.388   1_554 S
C172   H193    1.083   .     S
C172   C845    1.387   1_554 S
C173   H198    1.085   .     S
C173   O220    1.221   .     D
C174   H199    1.085   .     S
C174   O204    1.221   .     D
C175   H200    1.085   .     S
C175   O205    1.220   .     D
C176   O206    1.220   .     D
C176   H186    1.085   .     S
C177   H187    1.085   .     S
C177   O207    1.221   .     D
C178   C179    1.486   .     S
C178   H188    1.085   .     S
C178   O208    1.221   .     D
C179   C838    1.387   .     S
C180   H194    1.083   .     S
C181   H195    1.083   .     S
C181   C184    1.397   .     A
C181   C35     1.370   1_655 S
C182   C184    1.397   .     A
C182   H196    1.084   .     S
C182   C32     1.369   1_655 S
C183   H197    1.084   .     S
H189   O209    0.980   .     S
H190   O210    0.979   .     S
H191   O211    0.980   .     S
H192   O212    0.980   .     S
N201   Zn221   2.035   .     S
N202   Zn222   2.035   .     S
O203   Zn221   1.997   .     S
O213   Zn222   1.997   .     S
O214   Zn221   1.997   .     S
O215   Zn222   1.997   .     S
O216   Zn221   2.013   .     S
O217   Zn222   2.013   .     S
O218   Zn221   2.013   .     S
O219   Zn222   2.013   .     S
C223   O277    1.292   .     A
C223   C224    1.419   .     S
C223   O289    1.293   .     A
C224   C257    1.397   .     A
C224   C254    1.397   .     A
C225   O283    1.376   .     S
C225   N276    1.378   .     A
C226   N275    1.378   .     A
C226   O284    1.375   .     S
C226   C449    1.415   .     S
C227   N276    1.378   .     A
C227   O285    1.375   .     S
C228   N275    1.378   .     A
C228   O286    1.375   .     S
C228   C447    1.415   .     S
C229   O290    1.295   .     A
C229   O293    1.291   .     A
C229   C235    1.431   .     S
C230   O292    1.294   .     A
C230   C233    1.429   .     S
C230   O291    1.291   .     A
C231   C242    1.406   .     A
C231   C247    1.494   .     S
C231   C233    1.402   .     A
C232   C248    1.492   .     S
C232   C243    1.407   .     A
C232   C235    1.403   .     A
C233   C236    1.404   .     A
C234   C258    1.419   .     S
C234   O287    1.293   .     A
C234   O288    1.293   .     A
C235   C237    1.405   .     A
C236   C249    1.489   .     S
C236   C238    1.401   .     A
C237   C250    1.491   .     S
C237   C239    1.400   .     A
C238   C240    1.416   .     A
C238   C244    1.403   .     A
C239   C246    1.404   .     A
C239   C241    1.416   .     A
C240   C242    1.420   .     A
C240   C907    1.405   .     S
C241   C243    1.421   .     A
C241   C906    1.405   1_554 S
C242   C253    1.417   .     A
C243   C245    1.419   .     A
C244   H259    1.083   .     S
C244   C911    1.388   .     S
C245   C251    1.485   .     S
C245   C910    1.388   1_554 S
C246   H267    1.083   .     S
C246   C919    1.387   1_554 S
C247   H272    1.085   .     S
C247   O294    1.221   .     D
C248   H273    1.085   .     S
C248   O278    1.221   .     D
C249   H274    1.085   .     S
C249   O279    1.220   .     D
C250   O280    1.220   .     D
C250   H260    1.085   .     S
C251   H261    1.085   .     S
C251   O281    1.221   .     D
C252   C253    1.486   .     S
C252   H262    1.085   .     S
C252   O282    1.221   .     D
C253   C912    1.387   .     S
C254   H268    1.083   .     S
C254   C404    1.369   1_455 S
C255   H269    1.083   .     S
C255   C258    1.397   .     A
C255   C331    1.370   .     S
C256   C258    1.397   .     A
C256   H270    1.084   .     S
C256   C328    1.369   .     S
C257   H271    1.084   .     S
C257   C403    1.370   1_455 S
H263   O283    0.980   .     S
H264   O284    0.979   .     S
H265   O285    0.980   .     S
H266   O286    0.980   .     S
N275   Zn295   2.035   .     S
N276   Zn296   2.035   .     S
O277   Zn295   1.997   .     S
O287   Zn296   1.997   .     S
O288   Zn295   1.997   .     S
O289   Zn296   1.997   .     S
O290   Zn295   2.013   .     S
O291   Zn296   2.013   .     S
O292   Zn295   2.013   .     S
O293   Zn296   2.013   .     S
C297   O351    1.292   .     A
C297   C298    1.419   .     S
C297   O363    1.293   .     A
C298   C331    1.397   .     A
C298   C328    1.397   .     A
C299   O357    1.376   .     S
C299   N350    1.378   .     A
C300   N349    1.378   .     A
C300   O358    1.375   .     S
C300   C523    1.415   .     S
C301   N350    1.378   .     A
C301   O359    1.375   .     S
C302   N349    1.378   .     A
C302   O360    1.375   .     S
C302   C521    1.415   .     S
C303   O364    1.295   .     A
C303   O367    1.291   .     A
C303   C309    1.431   .     S
C304   O366    1.294   .     A
C304   C307    1.429   .     S
C304   O365    1.291   .     A
C305   C316    1.406   .     A
C305   C321    1.494   .     S
C305   C307    1.402   .     A
C306   C322    1.492   .     S
C306   C317    1.407   .     A
C306   C309    1.403   .     A
C307   C310    1.404   .     A
C308   C332    1.419   .     S
C308   O361    1.293   .     A
C308   O362    1.293   .     A
C309   C311    1.405   .     A
C310   C323    1.489   .     S
C310   C312    1.401   .     A
C311   C324    1.491   .     S
C311   C313    1.400   .     A
C312   C314    1.416   .     A
C312   C318    1.403   .     A
C313   C320    1.404   .     A
C313   C315    1.416   .     A
C314   C316    1.420   .     A
C314   C981    1.405   .     S
C315   C317    1.421   .     A
C315   C980    1.405   1_554 S
C316   C327    1.417   .     A
C317   C319    1.419   .     A
C318   H333    1.083   .     S
C318   C985    1.388   .     S
C319   C325    1.485   .     S
C319   C984    1.388   1_554 S
C320   H341    1.083   .     S
C320   C993    1.387   1_554 S
C321   H346    1.085   .     S
C321   O368    1.221   .     D
C322   H347    1.085   .     S
C322   O352    1.221   .     D
C323   H348    1.085   .     S
C323   O353    1.220   .     D
C324   O354    1.220   .     D
C324   H334    1.085   .     S
C325   H335    1.085   .     S
C325   O355    1.221   .     D
C326   C327    1.486   .     S
C326   H336    1.085   .     S
C326   O356    1.221   .     D
C327   C986    1.387   .     S
C328   H342    1.083   .     S
C329   H343    1.083   .     S
C329   C332    1.397   .     A
C329   C405    1.370   .     S
C330   C332    1.397   .     A
C330   H344    1.084   .     S
C330   C402    1.369   .     S
C331   H345    1.084   .     S
H337   O357    0.980   .     S
H338   O358    0.979   .     S
H339   O359    0.980   .     S
H340   O360    0.980   .     S
N349   Zn369   2.035   .     S
N350   Zn370   2.035   .     S
O351   Zn369   1.997   .     S
O361   Zn370   1.997   .     S
O362   Zn369   1.997   .     S
O363   Zn370   1.997   .     S
O364   Zn369   2.013   .     S
O365   Zn370   2.013   .     S
O366   Zn369   2.013   .     S
O367   Zn370   2.013   .     S
C371   O425    1.292   .     A
C371   C372    1.419   .     S
C371   O437    1.293   .     A
C372   C405    1.397   .     A
C372   C402    1.397   .     A
C373   O431    1.376   .     S
C373   N424    1.378   .     A
C374   N423    1.378   .     A
C374   O432    1.375   .     S
C374   C597    1.415   .     S
C375   N424    1.378   .     A
C375   O433    1.375   .     S
C376   N423    1.378   .     A
C376   O434    1.375   .     S
C376   C595    1.415   .     S
C377   O438    1.295   .     A
C377   O441    1.291   .     A
C377   C383    1.431   .     S
C378   O440    1.294   .     A
C378   C381    1.429   .     S
C378   O439    1.291   .     A
C379   C390    1.406   .     A
C379   C395    1.494   .     S
C379   C381    1.402   .     A
C380   C396    1.492   .     S
C380   C391    1.407   .     A
C380   C383    1.403   .     A
C381   C384    1.404   .     A
C382   C406    1.419   .     S
C382   O435    1.293   .     A
C382   O436    1.293   .     A
C383   C385    1.405   .     A
C384   C397    1.489   .     S
C384   C386    1.401   .     A
C385   C398    1.491   .     S
C385   C387    1.400   .     A
C386   C388    1.416   .     A
C386   C392    1.403   .     A
C387   C394    1.404   .     A
C387   C389    1.416   .     A
C388   C390    1.420   .     A
C388   C1055   1.405   .     S
C389   C391    1.421   .     A
C389   C1054   1.405   1_554 S
C390   C401    1.417   .     A
C391   C393    1.419   .     A
C392   H407    1.083   .     S
C392   C1059   1.388   .     S
C393   C399    1.485   .     S
C393   C1058   1.388   1_554 S
C394   H415    1.083   .     S
C394   C1067   1.387   1_554 S
C395   H420    1.085   .     S
C395   O442    1.221   .     D
C396   H421    1.085   .     S
C396   O426    1.221   .     D
C397   H422    1.085   .     S
C397   O427    1.220   .     D
C398   O428    1.220   .     D
C398   H408    1.085   .     S
C399   H409    1.085   .     S
C399   O429    1.221   .     D
C400   C401    1.486   .     S
C400   H410    1.085   .     S
C400   O430    1.221   .     D
C401   C1060   1.387   .     S
C402   H416    1.083   .     S
C403   H417    1.083   .     S
C403   C406    1.397   .     A
C403   C257    1.370   1_655 S
C404   C406    1.397   .     A
C404   H418    1.084   .     S
C404   C254    1.369   1_655 S
C405   H419    1.084   .     S
H411   O431    0.980   .     S
H412   O432    0.979   .     S
H413   O433    0.980   .     S
H414   O434    0.980   .     S
N423   Zn443   2.035   .     S
N424   Zn444   2.035   .     S
O425   Zn443   1.997   .     S
O435   Zn444   1.997   .     S
O436   Zn443   1.997   .     S
O437   Zn444   1.997   .     S
O438   Zn443   2.013   .     S
O439   Zn444   2.013   .     S
O440   Zn443   2.013   .     S
O441   Zn444   2.013   .     S
C445   O499    1.292   .     A
C445   C446    1.419   .     S
C445   O511    1.293   .     A
C446   C479    1.397   .     A
C446   C476    1.397   .     A
C447   O505    1.376   .     S
C447   N498    1.378   .     A
C448   N497    1.378   .     A
C448   O506    1.375   .     S
C448   C5      1.415   1_565 S
C449   N498    1.378   .     A
C449   O507    1.375   .     S
C450   N497    1.378   .     A
C450   O508    1.375   .     S
C450   C3      1.415   1_565 S
C451   O512    1.295   .     A
C451   O515    1.291   .     A
C451   C457    1.431   .     S
C452   O514    1.294   .     A
C452   C455    1.429   .     S
C452   O513    1.291   .     A
C453   C464    1.406   .     A
C453   C469    1.494   .     S
C453   C455    1.402   .     A
C454   C470    1.492   .     S
C454   C465    1.407   .     A
C454   C457    1.403   .     A
C455   C458    1.404   .     A
C456   C480    1.419   .     S
C456   O509    1.293   .     A
C456   O510    1.293   .     A
C457   C459    1.405   .     A
C458   C471    1.489   .     S
C458   C460    1.401   .     A
C459   C472    1.491   .     S
C459   C461    1.400   .     A
C460   C462    1.416   .     A
C460   C466    1.403   .     A
C461   C468    1.404   .     A
C461   C463    1.416   .     A
C462   C464    1.420   .     A
C462   C1129   1.405   .     S
C463   C465    1.421   .     A
C463   C1128   1.405   1_554 S
C464   C475    1.417   .     A
C465   C467    1.419   .     A
C466   H481    1.083   .     S
C466   C1133   1.388   .     S
C467   C473    1.485   .     S
C467   C1132   1.388   1_554 S
C468   H489    1.083   .     S
C468   C1141   1.387   1_554 S
C469   H494    1.085   .     S
C469   O516    1.221   .     D
C470   H495    1.085   .     S
C470   O500    1.221   .     D
C471   H496    1.085   .     S
C471   O501    1.220   .     D
C472   O502    1.220   .     D
C472   H482    1.085   .     S
C473   H483    1.085   .     S
C473   O503    1.221   .     D
C474   C475    1.486   .     S
C474   H484    1.085   .     S
C474   O504    1.221   .     D
C475   C1134   1.387   .     S
C476   H490    1.083   .     S
C476   C626    1.369   1_455 S
C477   H491    1.083   .     S
C477   C480    1.397   .     A
C477   C553    1.370   .     S
C478   C480    1.397   .     A
C478   H492    1.084   .     S
C478   C550    1.369   .     S
C479   H493    1.084   .     S
C479   C625    1.370   1_455 S
H485   O505    0.980   .     S
H486   O506    0.979   .     S
H487   O507    0.980   .     S
H488   O508    0.980   .     S
N497   Zn517   2.035   .     S
N498   Zn518   2.035   .     S
O499   Zn517   1.997   .     S
O509   Zn518   1.997   .     S
O510   Zn517   1.997   .     S
O511   Zn518   1.997   .     S
O512   Zn517   2.013   .     S
O513   Zn518   2.013   .     S
O514   Zn517   2.013   .     S
O515   Zn518   2.013   .     S
C519   O573    1.292   .     A
C519   C520    1.419   .     S
C519   O585    1.293   .     A
C520   C553    1.397   .     A
C520   C550    1.397   .     A
C521   O579    1.376   .     S
C521   N572    1.378   .     A
C522   N571    1.378   .     A
C522   O580    1.375   .     S
C522   C79     1.415   1_565 S
C523   N572    1.378   .     A
C523   O581    1.375   .     S
C524   N571    1.378   .     A
C524   O582    1.375   .     S
C524   C77     1.415   1_565 S
C525   O586    1.295   .     A
C525   O589    1.291   .     A
C525   C531    1.431   .     S
C526   O588    1.294   .     A
C526   C529    1.429   .     S
C526   O587    1.291   .     A
C527   C538    1.406   .     A
C527   C543    1.494   .     S
C527   C529    1.402   .     A
C528   C544    1.492   .     S
C528   C539    1.407   .     A
C528   C531    1.403   .     A
C529   C532    1.404   .     A
C530   C554    1.419   .     S
C530   O583    1.293   .     A
C530   O584    1.293   .     A
C531   C533    1.405   .     A
C532   C545    1.489   .     S
C532   C534    1.401   .     A
C533   C546    1.491   .     S
C533   C535    1.400   .     A
C534   C536    1.416   .     A
C534   C540    1.403   .     A
C535   C542    1.404   .     A
C535   C537    1.416   .     A
C536   C538    1.420   .     A
C536   C1203   1.405   .     S
C537   C539    1.421   .     A
C537   C1202   1.405   1_554 S
C538   C549    1.417   .     A
C539   C541    1.419   .     A
C540   H555    1.083   .     S
C540   C1207   1.388   .     S
C541   C547    1.485   .     S
C541   C1206   1.388   1_554 S
C542   H563    1.083   .     S
C542   C1215   1.387   1_554 S
C543   H568    1.085   .     S
C543   O590    1.221   .     D
C544   H569    1.085   .     S
C544   O574    1.221   .     D
C545   H570    1.085   .     S
C545   O575    1.220   .     D
C546   O576    1.220   .     D
C546   H556    1.085   .     S
C547   H557    1.085   .     S
C547   O577    1.221   .     D
C548   C549    1.486   .     S
C548   H558    1.085   .     S
C548   O578    1.221   .     D
C549   C1208   1.387   .     S
C550   H564    1.083   .     S
C551   H565    1.083   .     S
C551   C554    1.397   .     A
C551   C627    1.370   .     S
C552   C554    1.397   .     A
C552   H566    1.084   .     S
C552   C624    1.369   .     S
C553   H567    1.084   .     S
H559   O579    0.980   .     S
H560   O580    0.979   .     S
H561   O581    0.980   .     S
H562   O582    0.980   .     S
N571   Zn591   2.035   .     S
N572   Zn592   2.035   .     S
O573   Zn591   1.997   .     S
O583   Zn592   1.997   .     S
O584   Zn591   1.997   .     S
O585   Zn592   1.997   .     S
O586   Zn591   2.013   .     S
O587   Zn592   2.013   .     S
O588   Zn591   2.013   .     S
O589   Zn592   2.013   .     S
C593   O647    1.292   .     A
C593   C594    1.419   .     S
C593   O659    1.293   .     A
C594   C627    1.397   .     A
C594   C624    1.397   .     A
C595   O653    1.376   .     S
C595   N646    1.378   .     A
C596   N645    1.378   .     A
C596   O654    1.375   .     S
C596   C153    1.415   1_565 S
C597   N646    1.378   .     A
C597   O655    1.375   .     S
C598   N645    1.378   .     A
C598   O656    1.375   .     S
C598   C151    1.415   1_565 S
C599   O660    1.295   .     A
C599   O663    1.291   .     A
C599   C605    1.431   .     S
C600   O662    1.294   .     A
C600   C603    1.429   .     S
C600   O661    1.291   .     A
C601   C612    1.406   .     A
C601   C617    1.494   .     S
C601   C603    1.402   .     A
C602   C618    1.492   .     S
C602   C613    1.407   .     A
C602   C605    1.403   .     A
C603   C606    1.404   .     A
C604   C628    1.419   .     S
C604   O657    1.293   .     A
C604   O658    1.293   .     A
C605   C607    1.405   .     A
C606   C619    1.489   .     S
C606   C608    1.401   .     A
C607   C620    1.491   .     S
C607   C609    1.400   .     A
C608   C610    1.416   .     A
C608   C614    1.403   .     A
C609   C616    1.404   .     A
C609   C611    1.416   .     A
C610   C612    1.420   .     A
C610   C1277   1.405   .     S
C611   C613    1.421   .     A
C611   C1276   1.405   1_554 S
C612   C623    1.417   .     A
C613   C615    1.419   .     A
C614   H629    1.083   .     S
C614   C1281   1.388   .     S
C615   C621    1.485   .     S
C615   C1280   1.388   1_554 S
C616   H637    1.083   .     S
C616   C1289   1.387   1_554 S
C617   H642    1.085   .     S
C617   O664    1.221   .     D
C618   H643    1.085   .     S
C618   O648    1.221   .     D
C619   H644    1.085   .     S
C619   O649    1.220   .     D
C620   O650    1.220   .     D
C620   H630    1.085   .     S
C621   H631    1.085   .     S
C621   O651    1.221   .     D
C622   C623    1.486   .     S
C622   H632    1.085   .     S
C622   O652    1.221   .     D
C623   C1282   1.387   .     S
C624   H638    1.083   .     S
C625   H639    1.083   .     S
C625   C628    1.397   .     A
C625   C479    1.370   1_655 S
C626   C628    1.397   .     A
C626   H640    1.084   .     S
C626   C476    1.369   1_655 S
C627   H641    1.084   .     S
H633   O653    0.980   .     S
H634   O654    0.979   .     S
H635   O655    0.980   .     S
H636   O656    0.980   .     S
N645   Zn665   2.035   .     S
N646   Zn666   2.035   .     S
O647   Zn665   1.997   .     S
O657   Zn666   1.997   .     S
O658   Zn665   1.997   .     S
O659   Zn666   1.997   .     S
O660   Zn665   2.013   .     S
O661   Zn666   2.013   .     S
O662   Zn665   2.013   .     S
O663   Zn666   2.013   .     S
C667   O721    1.292   .     A
C667   C668    1.419   .     S
C667   O733    1.293   .     A
C668   C701    1.397   .     A
C668   C698    1.397   .     A
C669   O727    1.376   .     S
C669   N720    1.378   .     A
C669   C1116   1.415   1_545 S
C670   N719    1.378   .     A
C670   O728    1.375   .     S
C670   C893    1.415   .     S
C671   N720    1.378   .     A
C671   O729    1.375   .     S
C671   C1114   1.415   1_545 S
C672   N719    1.378   .     A
C672   O730    1.375   .     S
C672   C891    1.415   .     S
C673   O734    1.295   .     A
C673   O737    1.291   .     A
C673   C679    1.431   .     S
C674   O736    1.294   .     A
C674   C677    1.429   .     S
C674   O735    1.291   .     A
C675   C686    1.406   .     A
C675   C691    1.494   .     S
C675   C677    1.402   .     A
C676   C692    1.492   .     S
C676   C687    1.407   .     A
C676   C679    1.403   .     A
C677   C680    1.404   .     A
C678   C702    1.419   .     S
C678   O731    1.293   .     A
C678   O732    1.293   .     A
C679   C681    1.405   .     A
C680   C693    1.489   .     S
C680   C682    1.401   .     A
C681   C694    1.491   .     S
C681   C683    1.400   .     A
C682   C684    1.416   .     A
C682   C688    1.403   .     A
C683   C690    1.404   .     A
C683   C685    1.416   .     A
C684   C686    1.420   .     A
C684   C19     1.405   1_556 S
C685   C687    1.421   .     A
C686   C697    1.417   .     A
C687   C689    1.419   .     A
C688   H703    1.083   .     S
C688   C23     1.388   1_556 S
C689   C695    1.485   .     S
C690   H711    1.083   .     S
C691   H716    1.085   .     S
C691   O738    1.221   .     D
C692   H717    1.085   .     S
C692   O722    1.221   .     D
C693   H718    1.085   .     S
C693   O723    1.220   .     D
C694   O724    1.220   .     D
C694   H704    1.085   .     S
C695   H705    1.085   .     S
C695   O725    1.221   .     D
C696   C697    1.486   .     S
C696   H706    1.085   .     S
C696   O726    1.221   .     D
C697   C24     1.387   1_556 S
C698   H712    1.083   .     S
C698   C848    1.369   1_455 S
C699   H713    1.083   .     S
C699   C702    1.397   .     A
C699   C775    1.370   .     S
C700   C702    1.397   .     A
C700   H714    1.084   .     S
C700   C772    1.369   .     S
C701   H715    1.084   .     S
C701   C847    1.370   1_455 S
H707   O727    0.980   .     S
H708   O728    0.979   .     S
H709   O729    0.980   .     S
H710   O730    0.980   .     S
N719   Zn739   2.035   .     S
N720   Zn740   2.035   .     S
O721   Zn739   1.997   .     S
O731   Zn740   1.997   .     S
O732   Zn739   1.997   .     S
O733   Zn740   1.997   .     S
O734   Zn739   2.013   .     S
O735   Zn740   2.013   .     S
O736   Zn739   2.013   .     S
O737   Zn740   2.013   .     S
C741   O795    1.292   .     A
C741   C742    1.419   .     S
C741   O807    1.293   .     A
C742   C775    1.397   .     A
C742   C772    1.397   .     A
C743   O801    1.376   .     S
C743   N794    1.378   .     A
C743   C1190   1.415   1_545 S
C744   N793    1.378   .     A
C744   O802    1.375   .     S
C744   C967    1.415   .     S
C745   N794    1.378   .     A
C745   O803    1.375   .     S
C745   C1188   1.415   1_545 S
C746   N793    1.378   .     A
C746   O804    1.375   .     S
C746   C965    1.415   .     S
C747   O808    1.295   .     A
C747   O811    1.291   .     A
C747   C753    1.431   .     S
C748   O810    1.294   .     A
C748   C751    1.429   .     S
C748   O809    1.291   .     A
C749   C760    1.406   .     A
C749   C765    1.494   .     S
C749   C751    1.402   .     A
C750   C766    1.492   .     S
C750   C761    1.407   .     A
C750   C753    1.403   .     A
C751   C754    1.404   .     A
C752   C776    1.419   .     S
C752   O805    1.293   .     A
C752   O806    1.293   .     A
C753   C755    1.405   .     A
C754   C767    1.489   .     S
C754   C756    1.401   .     A
C755   C768    1.491   .     S
C755   C757    1.400   .     A
C756   C758    1.416   .     A
C756   C762    1.403   .     A
C757   C764    1.404   .     A
C757   C759    1.416   .     A
C758   C760    1.420   .     A
C758   C93     1.405   1_556 S
C759   C761    1.421   .     A
C760   C771    1.417   .     A
C761   C763    1.419   .     A
C762   H777    1.083   .     S
C762   C97     1.388   1_556 S
C763   C769    1.485   .     S
C764   H785    1.083   .     S
C765   H790    1.085   .     S
C765   O812    1.221   .     D
C766   H791    1.085   .     S
C766   O796    1.221   .     D
C767   H792    1.085   .     S
C767   O797    1.220   .     D
C768   O798    1.220   .     D
C768   H778    1.085   .     S
C769   H779    1.085   .     S
C769   O799    1.221   .     D
C770   C771    1.486   .     S
C770   H780    1.085   .     S
C770   O800    1.221   .     D
C771   C98     1.387   1_556 S
C772   H786    1.083   .     S
C773   H787    1.083   .     S
C773   C776    1.397   .     A
C773   C849    1.370   .     S
C774   C776    1.397   .     A
C774   H788    1.084   .     S
C774   C846    1.369   .     S
C775   H789    1.084   .     S
H781   O801    0.980   .     S
H782   O802    0.979   .     S
H783   O803    0.980   .     S
H784   O804    0.980   .     S
N793   Zn813   2.035   .     S
N794   Zn814   2.035   .     S
O795   Zn813   1.997   .     S
O805   Zn814   1.997   .     S
O806   Zn813   1.997   .     S
O807   Zn814   1.997   .     S
O808   Zn813   2.013   .     S
O809   Zn814   2.013   .     S
O810   Zn813   2.013   .     S
O811   Zn814   2.013   .     S
C815   O869    1.292   .     A
C815   C816    1.419   .     S
C815   O881    1.293   .     A
C816   C849    1.397   .     A
C816   C846    1.397   .     A
C817   O875    1.376   .     S
C817   N868    1.378   .     A
C817   C1264   1.415   1_545 S
C818   N867    1.378   .     A
C818   O876    1.375   .     S
C818   C1041   1.415   .     S
C819   N868    1.378   .     A
C819   O877    1.375   .     S
C819   C1262   1.415   1_545 S
C820   N867    1.378   .     A
C820   O878    1.375   .     S
C820   C1039   1.415   .     S
C821   O882    1.295   .     A
C821   O885    1.291   .     A
C821   C827    1.431   .     S
C822   O884    1.294   .     A
C822   C825    1.429   .     S
C822   O883    1.291   .     A
C823   C834    1.406   .     A
C823   C839    1.494   .     S
C823   C825    1.402   .     A
C824   C840    1.492   .     S
C824   C835    1.407   .     A
C824   C827    1.403   .     A
C825   C828    1.404   .     A
C826   C850    1.419   .     S
C826   O879    1.293   .     A
C826   O880    1.293   .     A
C827   C829    1.405   .     A
C828   C841    1.489   .     S
C828   C830    1.401   .     A
C829   C842    1.491   .     S
C829   C831    1.400   .     A
C830   C832    1.416   .     A
C830   C836    1.403   .     A
C831   C838    1.404   .     A
C831   C833    1.416   .     A
C832   C834    1.420   .     A
C832   C167    1.405   1_556 S
C833   C835    1.421   .     A
C834   C845    1.417   .     A
C835   C837    1.419   .     A
C836   H851    1.083   .     S
C836   C171    1.388   1_556 S
C837   C843    1.485   .     S
C838   H859    1.083   .     S
C839   H864    1.085   .     S
C839   O886    1.221   .     D
C840   H865    1.085   .     S
C840   O870    1.221   .     D
C841   H866    1.085   .     S
C841   O871    1.220   .     D
C842   O872    1.220   .     D
C842   H852    1.085   .     S
C843   H853    1.085   .     S
C843   O873    1.221   .     D
C844   C845    1.486   .     S
C844   H854    1.085   .     S
C844   O874    1.221   .     D
C845   C172    1.387   1_556 S
C846   H860    1.083   .     S
C847   H861    1.083   .     S
C847   C850    1.397   .     A
C847   C701    1.370   1_655 S
C848   C850    1.397   .     A
C848   H862    1.084   .     S
C848   C698    1.369   1_655 S
C849   H863    1.084   .     S
H855   O875    0.980   .     S
H856   O876    0.979   .     S
H857   O877    0.980   .     S
H858   O878    0.980   .     S
N867   Zn887   2.035   .     S
N868   Zn888   2.035   .     S
O869   Zn887   1.997   .     S
O879   Zn888   1.997   .     S
O880   Zn887   1.997   .     S
O881   Zn888   1.997   .     S
O882   Zn887   2.013   .     S
O883   Zn888   2.013   .     S
O884   Zn887   2.013   .     S
O885   Zn888   2.013   .     S
C889   O943    1.292   .     A
C889   C890    1.419   .     S
C889   O955    1.293   .     A
C890   C923    1.397   .     A
C890   C920    1.397   .     A
C891   O949    1.376   .     S
C891   N942    1.378   .     A
C892   N941    1.378   .     A
C892   O950    1.375   .     S
C892   C1115   1.415   .     S
C893   N942    1.378   .     A
C893   O951    1.375   .     S
C894   N941    1.378   .     A
C894   O952    1.375   .     S
C894   C1113   1.415   .     S
C895   O956    1.295   .     A
C895   O959    1.291   .     A
C895   C901    1.431   .     S
C896   O958    1.294   .     A
C896   C899    1.429   .     S
C896   O957    1.291   .     A
C897   C908    1.406   .     A
C897   C913    1.494   .     S
C897   C899    1.402   .     A
C898   C914    1.492   .     S
C898   C909    1.407   .     A
C898   C901    1.403   .     A
C899   C902    1.404   .     A
C900   C924    1.419   .     S
C900   O953    1.293   .     A
C900   O954    1.293   .     A
C901   C903    1.405   .     A
C902   C915    1.489   .     S
C902   C904    1.401   .     A
C903   C916    1.491   .     S
C903   C905    1.400   .     A
C904   C906    1.416   .     A
C904   C910    1.403   .     A
C905   C912    1.404   .     A
C905   C907    1.416   .     A
C906   C908    1.420   .     A
C906   C241    1.405   1_556 S
C907   C909    1.421   .     A
C908   C919    1.417   .     A
C909   C911    1.419   .     A
C910   H925    1.083   .     S
C910   C245    1.388   1_556 S
C911   C917    1.485   .     S
C912   H933    1.083   .     S
C913   H938    1.085   .     S
C913   O960    1.221   .     D
C914   H939    1.085   .     S
C914   O944    1.221   .     D
C915   H940    1.085   .     S
C915   O945    1.220   .     D
C916   O946    1.220   .     D
C916   H926    1.085   .     S
C917   H927    1.085   .     S
C917   O947    1.221   .     D
C918   C919    1.486   .     S
C918   H928    1.085   .     S
C918   O948    1.221   .     D
C919   C246    1.387   1_556 S
C920   H934    1.083   .     S
C920   C1070   1.369   1_455 S
C921   H935    1.083   .     S
C921   C924    1.397   .     A
C921   C997    1.370   .     S
C922   C924    1.397   .     A
C922   H936    1.084   .     S
C922   C994    1.369   .     S
C923   H937    1.084   .     S
C923   C1069   1.370   1_455 S
H929   O949    0.980   .     S
H930   O950    0.979   .     S
H931   O951    0.980   .     S
H932   O952    0.980   .     S
N941   Zn961   2.035   .     S
N942   Zn962   2.035   .     S
O943   Zn961   1.997   .     S
O953   Zn962   1.997   .     S
O954   Zn961   1.997   .     S
O955   Zn962   1.997   .     S
O956   Zn961   2.013   .     S
O957   Zn962   2.013   .     S
O958   Zn961   2.013   .     S
O959   Zn962   2.013   .     S
C963   O1017   1.292   .     A
C963   C964    1.419   .     S
C963   O1029   1.293   .     A
C964   C997    1.397   .     A
C964   C994    1.397   .     A
C965   O1023   1.376   .     S
C965   N1016   1.378   .     A
C966   N1015   1.378   .     A
C966   O1024   1.375   .     S
C966   C1189   1.415   .     S
C967   N1016   1.378   .     A
C967   O1025   1.375   .     S
C968   N1015   1.378   .     A
C968   O1026   1.375   .     S
C968   C1187   1.415   .     S
C969   O1030   1.295   .     A
C969   O1033   1.291   .     A
C969   C975    1.431   .     S
C970   O1032   1.294   .     A
C970   C973    1.429   .     S
C970   O1031   1.291   .     A
C971   C982    1.406   .     A
C971   C987    1.494   .     S
C971   C973    1.402   .     A
C972   C988    1.492   .     S
C972   C983    1.407   .     A
C972   C975    1.403   .     A
C973   C976    1.404   .     A
C974   C998    1.419   .     S
C974   O1027   1.293   .     A
C974   O1028   1.293   .     A
C975   C977    1.405   .     A
C976   C989    1.489   .     S
C976   C978    1.401   .     A
C977   C990    1.491   .     S
C977   C979    1.400   .     A
C978   C980    1.416   .     A
C978   C984    1.403   .     A
C979   C986    1.404   .     A
C979   C981    1.416   .     A
C980   C982    1.420   .     A
C980   C315    1.405   1_556 S
C981   C983    1.421   .     A
C982   C993    1.417   .     A
C983   C985    1.419   .     A
C984   H999    1.083   .     S
C984   C319    1.388   1_556 S
C985   C991    1.485   .     S
C986   H1007   1.083   .     S
C987   H1012   1.085   .     S
C987   O1034   1.221   .     D
C988   H1013   1.085   .     S
C988   O1018   1.221   .     D
C989   H1014   1.085   .     S
C989   O1019   1.220   .     D
C990   O1020   1.220   .     D
C990   H1000   1.085   .     S
C991   H1001   1.085   .     S
C991   O1021   1.221   .     D
C992   C993    1.486   .     S
C992   H1002   1.085   .     S
C992   O1022   1.221   .     D
C993   C320    1.387   1_556 S
C994   H1008   1.083   .     S
C995   H1009   1.083   .     S
C995   C998    1.397   .     A
C995   C1071   1.370   .     S
C996   C998    1.397   .     A
C996   H1010   1.084   .     S
C996   C1068   1.369   .     S
C997   H1011   1.084   .     S
H1003  O1023   0.980   .     S
H1004  O1024   0.979   .     S
H1005  O1025   0.980   .     S
H1006  O1026   0.980   .     S
N1015  Zn1035  2.035   .     S
N1016  Zn1036  2.035   .     S
O1017  Zn1035  1.997   .     S
O1027  Zn1036  1.997   .     S
O1028  Zn1035  1.997   .     S
O1029  Zn1036  1.997   .     S
O1030  Zn1035  2.013   .     S
O1031  Zn1036  2.013   .     S
O1032  Zn1035  2.013   .     S
O1033  Zn1036  2.013   .     S
C1037  O1091   1.292   .     A
C1037  C1038   1.419   .     S
C1037  O1103   1.293   .     A
C1038  C1071   1.397   .     A
C1038  C1068   1.397   .     A
C1039  O1097   1.376   .     S
C1039  N1090   1.378   .     A
C1040  N1089   1.378   .     A
C1040  O1098   1.375   .     S
C1040  C1263   1.415   .     S
C1041  N1090   1.378   .     A
C1041  O1099   1.375   .     S
C1042  N1089   1.378   .     A
C1042  O1100   1.375   .     S
C1042  C1261   1.415   .     S
C1043  O1104   1.295   .     A
C1043  O1107   1.291   .     A
C1043  C1049   1.431   .     S
C1044  O1106   1.294   .     A
C1044  C1047   1.429   .     S
C1044  O1105   1.291   .     A
C1045  C1056   1.406   .     A
C1045  C1061   1.494   .     S
C1045  C1047   1.402   .     A
C1046  C1062   1.492   .     S
C1046  C1057   1.407   .     A
C1046  C1049   1.403   .     A
C1047  C1050   1.404   .     A
C1048  C1072   1.419   .     S
C1048  O1101   1.293   .     A
C1048  O1102   1.293   .     A
C1049  C1051   1.405   .     A
C1050  C1063   1.489   .     S
C1050  C1052   1.401   .     A
C1051  C1064   1.491   .     S
C1051  C1053   1.400   .     A
C1052  C1054   1.416   .     A
C1052  C1058   1.403   .     A
C1053  C1060   1.404   .     A
C1053  C1055   1.416   .     A
C1054  C1056   1.420   .     A
C1054  C389    1.405   1_556 S
C1055  C1057   1.421   .     A
C1056  C1067   1.417   .     A
C1057  C1059   1.419   .     A
C1058  H1073   1.083   .     S
C1058  C393    1.388   1_556 S
C1059  C1065   1.485   .     S
C1060  H1081   1.083   .     S
C1061  H1086   1.085   .     S
C1061  O1108   1.221   .     D
C1062  H1087   1.085   .     S
C1062  O1092   1.221   .     D
C1063  H1088   1.085   .     S
C1063  O1093   1.220   .     D
C1064  O1094   1.220   .     D
C1064  H1074   1.085   .     S
C1065  H1075   1.085   .     S
C1065  O1095   1.221   .     D
C1066  C1067   1.486   .     S
C1066  H1076   1.085   .     S
C1066  O1096   1.221   .     D
C1067  C394    1.387   1_556 S
C1068  H1082   1.083   .     S
C1069  H1083   1.083   .     S
C1069  C1072   1.397   .     A
C1069  C923    1.370   1_655 S
C1070  C1072   1.397   .     A
C1070  H1084   1.084   .     S
C1070  C920    1.369   1_655 S
C1071  H1085   1.084   .     S
H1077  O1097   0.980   .     S
H1078  O1098   0.979   .     S
H1079  O1099   0.980   .     S
H1080  O1100   0.980   .     S
N1089  Zn1109  2.035   .     S
N1090  Zn1110  2.035   .     S
O1091  Zn1109  1.997   .     S
O1101  Zn1110  1.997   .     S
O1102  Zn1109  1.997   .     S
O1103  Zn1110  1.997   .     S
O1104  Zn1109  2.013   .     S
O1105  Zn1110  2.013   .     S
O1106  Zn1109  2.013   .     S
O1107  Zn1110  2.013   .     S
C1111  O1165   1.292   .     A
C1111  C1112   1.419   .     S
C1111  O1177   1.293   .     A
C1112  C1145   1.397   .     A
C1112  C1142   1.397   .     A
C1113  O1171   1.376   .     S
C1113  N1164   1.378   .     A
C1114  N1163   1.378   .     A
C1114  O1172   1.375   .     S
C1114  C671    1.415   1_565 S
C1115  N1164   1.378   .     A
C1115  O1173   1.375   .     S
C1116  N1163   1.378   .     A
C1116  O1174   1.375   .     S
C1116  C669    1.415   1_565 S
C1117  O1178   1.295   .     A
C1117  O1181   1.291   .     A
C1117  C1123   1.431   .     S
C1118  O1180   1.294   .     A
C1118  C1121   1.429   .     S
C1118  O1179   1.291   .     A
C1119  C1130   1.406   .     A
C1119  C1135   1.494   .     S
C1119  C1121   1.402   .     A
C1120  C1136   1.492   .     S
C1120  C1131   1.407   .     A
C1120  C1123   1.403   .     A
C1121  C1124   1.404   .     A
C1122  C1146   1.419   .     S
C1122  O1175   1.293   .     A
C1122  O1176   1.293   .     A
C1123  C1125   1.405   .     A
C1124  C1137   1.489   .     S
C1124  C1126   1.401   .     A
C1125  C1138   1.491   .     S
C1125  C1127   1.400   .     A
C1126  C1128   1.416   .     A
C1126  C1132   1.403   .     A
C1127  C1134   1.404   .     A
C1127  C1129   1.416   .     A
C1128  C1130   1.420   .     A
C1128  C463    1.405   1_556 S
C1129  C1131   1.421   .     A
C1130  C1141   1.417   .     A
C1131  C1133   1.419   .     A
C1132  H1147   1.083   .     S
C1132  C467    1.388   1_556 S
C1133  C1139   1.485   .     S
C1134  H1155   1.083   .     S
C1135  H1160   1.085   .     S
C1135  O1182   1.221   .     D
C1136  H1161   1.085   .     S
C1136  O1166   1.221   .     D
C1137  H1162   1.085   .     S
C1137  O1167   1.220   .     D
C1138  O1168   1.220   .     D
C1138  H1148   1.085   .     S
C1139  H1149   1.085   .     S
C1139  O1169   1.221   .     D
C1140  C1141   1.486   .     S
C1140  H1150   1.085   .     S
C1140  O1170   1.221   .     D
C1141  C468    1.387   1_556 S
C1142  H1156   1.083   .     S
C1142  C1292   1.369   1_455 S
C1143  H1157   1.083   .     S
C1143  C1146   1.397   .     A
C1143  C1219   1.370   .     S
C1144  C1146   1.397   .     A
C1144  H1158   1.084   .     S
C1144  C1216   1.369   .     S
C1145  H1159   1.084   .     S
C1145  C1291   1.370   1_455 S
H1151  O1171   0.980   .     S
H1152  O1172   0.979   .     S
H1153  O1173   0.980   .     S
H1154  O1174   0.980   .     S
N1163  Zn1183  2.035   .     S
N1164  Zn1184  2.035   .     S
O1165  Zn1183  1.997   .     S
O1175  Zn1184  1.997   .     S
O1176  Zn1183  1.997   .     S
O1177  Zn1184  1.997   .     S
O1178  Zn1183  2.013   .     S
O1179  Zn1184  2.013   .     S
O1180  Zn1183  2.013   .     S
O1181  Zn1184  2.013   .     S
C1185  O1239   1.292   .     A
C1185  C1186   1.419   .     S
C1185  O1251   1.293   .     A
C1186  C1219   1.397   .     A
C1186  C1216   1.397   .     A
C1187  O1245   1.376   .     S
C1187  N1238   1.378   .     A
C1188  N1237   1.378   .     A
C1188  O1246   1.375   .     S
C1188  C745    1.415   1_565 S
C1189  N1238   1.378   .     A
C1189  O1247   1.375   .     S
C1190  N1237   1.378   .     A
C1190  O1248   1.375   .     S
C1190  C743    1.415   1_565 S
C1191  O1252   1.295   .     A
C1191  O1255   1.291   .     A
C1191  C1197   1.431   .     S
C1192  O1254   1.294   .     A
C1192  C1195   1.429   .     S
C1192  O1253   1.291   .     A
C1193  C1204   1.406   .     A
C1193  C1209   1.494   .     S
C1193  C1195   1.402   .     A
C1194  C1210   1.492   .     S
C1194  C1205   1.407   .     A
C1194  C1197   1.403   .     A
C1195  C1198   1.404   .     A
C1196  C1220   1.419   .     S
C1196  O1249   1.293   .     A
C1196  O1250   1.293   .     A
C1197  C1199   1.405   .     A
C1198  C1211   1.489   .     S
C1198  C1200   1.401   .     A
C1199  C1212   1.491   .     S
C1199  C1201   1.400   .     A
C1200  C1202   1.416   .     A
C1200  C1206   1.403   .     A
C1201  C1208   1.404   .     A
C1201  C1203   1.416   .     A
C1202  C1204   1.420   .     A
C1202  C537    1.405   1_556 S
C1203  C1205   1.421   .     A
C1204  C1215   1.417   .     A
C1205  C1207   1.419   .     A
C1206  H1221   1.083   .     S
C1206  C541    1.388   1_556 S
C1207  C1213   1.485   .     S
C1208  H1229   1.083   .     S
C1209  H1234   1.085   .     S
C1209  O1256   1.221   .     D
C1210  H1235   1.085   .     S
C1210  O1240   1.221   .     D
C1211  H1236   1.085   .     S
C1211  O1241   1.220   .     D
C1212  O1242   1.220   .     D
C1212  H1222   1.085   .     S
C1213  H1223   1.085   .     S
C1213  O1243   1.221   .     D
C1214  C1215   1.486   .     S
C1214  H1224   1.085   .     S
C1214  O1244   1.221   .     D
C1215  C542    1.387   1_556 S
C1216  H1230   1.083   .     S
C1217  H1231   1.083   .     S
C1217  C1220   1.397   .     A
C1217  C1293   1.370   .     S
C1218  C1220   1.397   .     A
C1218  H1232   1.084   .     S
C1218  C1290   1.369   .     S
C1219  H1233   1.084   .     S
H1225  O1245   0.980   .     S
H1226  O1246   0.979   .     S
H1227  O1247   0.980   .     S
H1228  O1248   0.980   .     S
N1237  Zn1257  2.035   .     S
N1238  Zn1258  2.035   .     S
O1239  Zn1257  1.997   .     S
O1249  Zn1258  1.997   .     S
O1250  Zn1257  1.997   .     S
O1251  Zn1258  1.997   .     S
O1252  Zn1257  2.013   .     S
O1253  Zn1258  2.013   .     S
O1254  Zn1257  2.013   .     S
O1255  Zn1258  2.013   .     S
C1259  O1313   1.292   .     A
C1259  C1260   1.419   .     S
C1259  O1325   1.293   .     A
C1260  C1293   1.397   .     A
C1260  C1290   1.397   .     A
C1261  O1319   1.376   .     S
C1261  N1312   1.378   .     A
C1262  N1311   1.378   .     A
C1262  O1320   1.375   .     S
C1262  C819    1.415   1_565 S
C1263  N1312   1.378   .     A
C1263  O1321   1.375   .     S
C1264  N1311   1.378   .     A
C1264  O1322   1.375   .     S
C1264  C817    1.415   1_565 S
C1265  O1326   1.295   .     A
C1265  O1329   1.291   .     A
C1265  C1271   1.431   .     S
C1266  O1328   1.294   .     A
C1266  C1269   1.429   .     S
C1266  O1327   1.291   .     A
C1267  C1278   1.406   .     A
C1267  C1283   1.494   .     S
C1267  C1269   1.402   .     A
C1268  C1284   1.492   .     S
C1268  C1279   1.407   .     A
C1268  C1271   1.403   .     A
C1269  C1272   1.404   .     A
C1270  C1294   1.419   .     S
C1270  O1323   1.293   .     A
C1270  O1324   1.293   .     A
C1271  C1273   1.405   .     A
C1272  C1285   1.489   .     S
C1272  C1274   1.401   .     A
C1273  C1286   1.491   .     S
C1273  C1275   1.400   .     A
C1274  C1276   1.416   .     A
C1274  C1280   1.403   .     A
C1275  C1282   1.404   .     A
C1275  C1277   1.416   .     A
C1276  C1278   1.420   .     A
C1276  C611    1.405   1_556 S
C1277  C1279   1.421   .     A
C1278  C1289   1.417   .     A
C1279  C1281   1.419   .     A
C1280  H1295   1.083   .     S
C1280  C615    1.388   1_556 S
C1281  C1287   1.485   .     S
C1282  H1303   1.083   .     S
C1283  H1308   1.085   .     S
C1283  O1330   1.221   .     D
C1284  H1309   1.085   .     S
C1284  O1314   1.221   .     D
C1285  H1310   1.085   .     S
C1285  O1315   1.220   .     D
C1286  O1316   1.220   .     D
C1286  H1296   1.085   .     S
C1287  H1297   1.085   .     S
C1287  O1317   1.221   .     D
C1288  C1289   1.486   .     S
C1288  H1298   1.085   .     S
C1288  O1318   1.221   .     D
C1289  C616    1.387   1_556 S
C1290  H1304   1.083   .     S
C1291  H1305   1.083   .     S
C1291  C1294   1.397   .     A
C1291  C1145   1.370   1_655 S
C1292  C1294   1.397   .     A
C1292  H1306   1.084   .     S
C1292  C1142   1.369   1_655 S
C1293  H1307   1.084   .     S
H1299  O1319   0.980   .     S
H1300  O1320   0.979   .     S
H1301  O1321   0.980   .     S
H1302  O1322   0.980   .     S
N1311  Zn1331  2.035   .     S
N1312  Zn1332  2.035   .     S
O1313  Zn1331  1.997   .     S
O1323  Zn1332  1.997   .     S
O1324  Zn1331  1.997   .     S
O1325  Zn1332  1.997   .     S
O1326  Zn1331  2.013   .     S
O1327  Zn1332  2.013   .     S
O1328  Zn1331  2.013   .     S
O1329  Zn1332  2.013   .     S
