data_str_m3_o2_o5_pcu_sym.65
_audit_creation_date              2020-01-03
_audit_creation_method            'Materials Studio'
_symmetry_space_group_name_H-M    'P1'
_symmetry_Int_Tables_number       1
_symmetry_cell_setting            triclinic
loop_
_symmetry_equiv_pos_as_xyz
  x,y,z
_cell_length_a                    30.0245
_cell_length_b                    28.3638
_cell_length_c                    26.7584
_cell_angle_alpha                 90.0001
_cell_angle_beta                  90.0354
_cell_angle_gamma                 90.0000
loop_
_atom_site_label
_atom_site_type_symbol
_atom_site_fract_x
_atom_site_fract_y
_atom_site_fract_z
_atom_site_U_iso_or_equiv
_atom_site_adp_type
_atom_site_occupancy
C1     C     0.16389   0.25000   0.16665   0.00000  Uiso   1.00
C2     C     0.21460   0.44738   0.14555   0.00000  Uiso   1.00
C3     C     0.24999   0.25000   0.07285   0.00000  Uiso   1.00
C4     C     0.25001   0.25000   0.26049   0.00000  Uiso   1.00
C5     C     0.25000   0.02669   0.16667   0.00000  Uiso   1.00
C6     C     0.25000   0.47332   0.16667   0.00000  Uiso   1.00
C7     C     0.24999   0.24999   0.02178   0.00000  Uiso   1.00
C8     C     0.25001   0.24999   0.31155   0.00000  Uiso   1.00
C9     C     0.04705   0.28966   0.14916   0.00000  Uiso   1.00
C10    C     0.45295   0.21046   0.14916   0.00000  Uiso   1.00
C11    C     0.45295   0.28966   0.18416   0.00000  Uiso   1.00
C12    C     0.33611   0.25000   0.16668   0.00000  Uiso   1.00
C13    C     0.04705   0.21046   0.18416   0.00000  Uiso   1.00
C14    C     0.09303   0.28975   0.14942   0.00000  Uiso   1.00
C15    C     0.40698   0.21032   0.14946   0.00000  Uiso   1.00
C16    C     0.40697   0.28975   0.18390   0.00000  Uiso   1.00
C17    C     0.09302   0.21032   0.18387   0.00000  Uiso   1.00
C18    C     0.11600   0.25002   0.16664   0.00000  Uiso   1.00
C19    C     0.38400   0.25002   0.16669   0.00000  Uiso   1.00
C20    C     0.02405   0.25007   0.16667   0.00000  Uiso   1.00
C21    C     0.47595   0.25007   0.16666   0.00000  Uiso   1.00
C22    C     0.22973   0.10223   0.12884   0.00000  Uiso   1.00
C23    C     0.28467   0.39778   0.18753   0.00000  Uiso   1.00
C24    C     0.27027   0.10223   0.20450   0.00000  Uiso   1.00
C25    C     0.21533   0.39778   0.14581   0.00000  Uiso   1.00
C26    C     0.22947   0.05263   0.12802   0.00000  Uiso   1.00
C27    C     0.28540   0.44738   0.18779   0.00000  Uiso   1.00
C28    C     0.27053   0.05263   0.20531   0.00000  Uiso   1.00
H29    H     0.21377   0.12157   0.09895   0.00000  Uiso   1.00
H30    H     0.47054   0.17995   0.13490   0.00000  Uiso   1.00
H31    H     0.47054   0.32018   0.19842   0.00000  Uiso   1.00
H32    H     0.02945   0.17995   0.19843   0.00000  Uiso   1.00
H33    H     0.11055   0.32049   0.13559   0.00000  Uiso   1.00
H34    H     0.38946   0.17957   0.13564   0.00000  Uiso   1.00
H35    H     0.38945   0.32049   0.19773   0.00000  Uiso   1.00
H36    H     0.11054   0.17957   0.19769   0.00000  Uiso   1.00
H37    H     0.31206   0.37846   0.20397   0.00000  Uiso   1.00
H38    H     0.28623   0.12157   0.23439   0.00000  Uiso   1.00
H39    H     0.18794   0.37846   0.12937   0.00000  Uiso   1.00
H40    H     0.21378   0.03489   0.09684   0.00000  Uiso   1.00
H41    H     0.31392   0.46511   0.20384   0.00000  Uiso   1.00
H42    H     0.28622   0.03490   0.23649   0.00000  Uiso   1.00
H43    H     0.18608   0.46511   0.12949   0.00000  Uiso   1.00
H44    H     0.02946   0.32018   0.13491   0.00000  Uiso   1.00
N45    N     0.25000   0.12624   0.16667   0.00000  Uiso   1.00
N46    N     0.25000   0.37377   0.16667   0.00000  Uiso   1.00
O47    O     0.18453   0.28974   0.16667   0.00000  Uiso   1.00
O48    O     0.31547   0.21026   0.16666   0.00000  Uiso   1.00
O49    O     0.31547   0.28974   0.16666   0.00000  Uiso   1.00
O50    O     0.18453   0.21026   0.16667   0.00000  Uiso   1.00
O51    O     0.25000   0.28973   0.09511   0.00000  Uiso   1.00
O52    O     0.25000   0.21027   0.23822   0.00000  Uiso   1.00
O53    O     0.25000   0.28973   0.23822   0.00000  Uiso   1.00
O54    O     0.25000   0.21027   0.09511   0.00000  Uiso   1.00
Zn55   Zn    0.25000   0.30307   0.16667   0.00000  Uiso   1.00
Zn56   Zn    0.25000   0.19693   0.16667   0.00000  Uiso   1.00
C57    C     0.66389   0.25000   0.16665   0.00000  Uiso   1.00
C58    C     0.71460   0.44738   0.14555   0.00000  Uiso   1.00
C59    C     0.74999   0.25000   0.07285   0.00000  Uiso   1.00
C60    C     0.75001   0.25000   0.26049   0.00000  Uiso   1.00
C61    C     0.75000   0.02669   0.16667   0.00000  Uiso   1.00
C62    C     0.75000   0.47332   0.16667   0.00000  Uiso   1.00
C63    C     0.74999   0.24999   0.02178   0.00000  Uiso   1.00
C64    C     0.75001   0.24999   0.31155   0.00000  Uiso   1.00
C65    C     0.54705   0.28966   0.14916   0.00000  Uiso   1.00
C66    C     0.95295   0.21046   0.14916   0.00000  Uiso   1.00
C67    C     0.95295   0.28966   0.18416   0.00000  Uiso   1.00
C68    C     0.83611   0.25000   0.16668   0.00000  Uiso   1.00
C69    C     0.54705   0.21046   0.18416   0.00000  Uiso   1.00
C70    C     0.59303   0.28975   0.14942   0.00000  Uiso   1.00
C71    C     0.90698   0.21032   0.14946   0.00000  Uiso   1.00
C72    C     0.90697   0.28975   0.18390   0.00000  Uiso   1.00
C73    C     0.59302   0.21032   0.18387   0.00000  Uiso   1.00
C74    C     0.61600   0.25002   0.16664   0.00000  Uiso   1.00
C75    C     0.88400   0.25002   0.16669   0.00000  Uiso   1.00
C76    C     0.52405   0.25007   0.16667   0.00000  Uiso   1.00
C77    C     0.97595   0.25007   0.16666   0.00000  Uiso   1.00
C78    C     0.72973   0.10223   0.12884   0.00000  Uiso   1.00
C79    C     0.78467   0.39778   0.18753   0.00000  Uiso   1.00
C80    C     0.77027   0.10223   0.20450   0.00000  Uiso   1.00
C81    C     0.71533   0.39778   0.14581   0.00000  Uiso   1.00
C82    C     0.72947   0.05263   0.12802   0.00000  Uiso   1.00
C83    C     0.78540   0.44738   0.18779   0.00000  Uiso   1.00
C84    C     0.77053   0.05263   0.20531   0.00000  Uiso   1.00
H85    H     0.71377   0.12157   0.09895   0.00000  Uiso   1.00
H86    H     0.97054   0.17995   0.13490   0.00000  Uiso   1.00
H87    H     0.97054   0.32018   0.19842   0.00000  Uiso   1.00
H88    H     0.52945   0.17995   0.19843   0.00000  Uiso   1.00
H89    H     0.61055   0.32049   0.13559   0.00000  Uiso   1.00
H90    H     0.88946   0.17957   0.13564   0.00000  Uiso   1.00
H91    H     0.88945   0.32049   0.19773   0.00000  Uiso   1.00
H92    H     0.61054   0.17957   0.19769   0.00000  Uiso   1.00
H93    H     0.81206   0.37846   0.20397   0.00000  Uiso   1.00
H94    H     0.78623   0.12157   0.23439   0.00000  Uiso   1.00
H95    H     0.68794   0.37846   0.12937   0.00000  Uiso   1.00
H96    H     0.71378   0.03489   0.09684   0.00000  Uiso   1.00
H97    H     0.81392   0.46511   0.20384   0.00000  Uiso   1.00
H98    H     0.78622   0.03490   0.23649   0.00000  Uiso   1.00
H99    H     0.68608   0.46511   0.12949   0.00000  Uiso   1.00
H100   H     0.52946   0.32018   0.13491   0.00000  Uiso   1.00
N101   N     0.75000   0.12624   0.16667   0.00000  Uiso   1.00
N102   N     0.75000   0.37377   0.16667   0.00000  Uiso   1.00
O103   O     0.68453   0.28974   0.16667   0.00000  Uiso   1.00
O104   O     0.81547   0.21026   0.16666   0.00000  Uiso   1.00
O105   O     0.81547   0.28974   0.16666   0.00000  Uiso   1.00
O106   O     0.68453   0.21026   0.16667   0.00000  Uiso   1.00
O107   O     0.75000   0.28973   0.09511   0.00000  Uiso   1.00
O108   O     0.75000   0.21027   0.23822   0.00000  Uiso   1.00
O109   O     0.75000   0.28973   0.23822   0.00000  Uiso   1.00
O110   O     0.75000   0.21027   0.09511   0.00000  Uiso   1.00
Zn111  Zn    0.75000   0.30307   0.16667   0.00000  Uiso   1.00
Zn112  Zn    0.75000   0.19693   0.16667   0.00000  Uiso   1.00
C113   C     0.16389   0.75000   0.16665   0.00000  Uiso   1.00
C114   C     0.21460   0.94738   0.14555   0.00000  Uiso   1.00
C115   C     0.24999   0.75000   0.07285   0.00000  Uiso   1.00
C116   C     0.25001   0.75000   0.26049   0.00000  Uiso   1.00
C117   C     0.25000   0.52669   0.16667   0.00000  Uiso   1.00
C118   C     0.25000   0.97332   0.16667   0.00000  Uiso   1.00
C119   C     0.24999   0.74999   0.02178   0.00000  Uiso   1.00
C120   C     0.25001   0.74999   0.31155   0.00000  Uiso   1.00
C121   C     0.04705   0.78966   0.14916   0.00000  Uiso   1.00
C122   C     0.45295   0.71046   0.14916   0.00000  Uiso   1.00
C123   C     0.45295   0.78966   0.18416   0.00000  Uiso   1.00
C124   C     0.33611   0.75000   0.16668   0.00000  Uiso   1.00
C125   C     0.04705   0.71046   0.18416   0.00000  Uiso   1.00
C126   C     0.09303   0.78975   0.14942   0.00000  Uiso   1.00
C127   C     0.40698   0.71032   0.14946   0.00000  Uiso   1.00
C128   C     0.40697   0.78975   0.18390   0.00000  Uiso   1.00
C129   C     0.09302   0.71032   0.18387   0.00000  Uiso   1.00
C130   C     0.11600   0.75002   0.16664   0.00000  Uiso   1.00
C131   C     0.38400   0.75002   0.16669   0.00000  Uiso   1.00
C132   C     0.02405   0.75007   0.16667   0.00000  Uiso   1.00
C133   C     0.47595   0.75007   0.16666   0.00000  Uiso   1.00
C134   C     0.22973   0.60223   0.12884   0.00000  Uiso   1.00
C135   C     0.28467   0.89778   0.18753   0.00000  Uiso   1.00
C136   C     0.27027   0.60223   0.20450   0.00000  Uiso   1.00
C137   C     0.21533   0.89778   0.14581   0.00000  Uiso   1.00
C138   C     0.22947   0.55263   0.12802   0.00000  Uiso   1.00
C139   C     0.28540   0.94738   0.18779   0.00000  Uiso   1.00
C140   C     0.27053   0.55263   0.20531   0.00000  Uiso   1.00
H141   H     0.21377   0.62157   0.09895   0.00000  Uiso   1.00
H142   H     0.47054   0.67995   0.13490   0.00000  Uiso   1.00
H143   H     0.47054   0.82018   0.19842   0.00000  Uiso   1.00
H144   H     0.02945   0.67995   0.19843   0.00000  Uiso   1.00
H145   H     0.11055   0.82049   0.13559   0.00000  Uiso   1.00
H146   H     0.38946   0.67957   0.13564   0.00000  Uiso   1.00
H147   H     0.38945   0.82049   0.19773   0.00000  Uiso   1.00
H148   H     0.11054   0.67957   0.19769   0.00000  Uiso   1.00
H149   H     0.31206   0.87846   0.20397   0.00000  Uiso   1.00
H150   H     0.28623   0.62157   0.23439   0.00000  Uiso   1.00
H151   H     0.18794   0.87846   0.12937   0.00000  Uiso   1.00
H152   H     0.21378   0.53489   0.09684   0.00000  Uiso   1.00
H153   H     0.31392   0.96511   0.20384   0.00000  Uiso   1.00
H154   H     0.28622   0.53490   0.23649   0.00000  Uiso   1.00
H155   H     0.18608   0.96511   0.12949   0.00000  Uiso   1.00
H156   H     0.02946   0.82018   0.13491   0.00000  Uiso   1.00
N157   N     0.25000   0.62624   0.16667   0.00000  Uiso   1.00
N158   N     0.25000   0.87377   0.16667   0.00000  Uiso   1.00
O159   O     0.18453   0.78974   0.16667   0.00000  Uiso   1.00
O160   O     0.31547   0.71026   0.16666   0.00000  Uiso   1.00
O161   O     0.31547   0.78974   0.16666   0.00000  Uiso   1.00
O162   O     0.18453   0.71026   0.16667   0.00000  Uiso   1.00
O163   O     0.25000   0.78973   0.09511   0.00000  Uiso   1.00
O164   O     0.25000   0.71027   0.23822   0.00000  Uiso   1.00
O165   O     0.25000   0.78973   0.23822   0.00000  Uiso   1.00
O166   O     0.25000   0.71027   0.09511   0.00000  Uiso   1.00
Zn167  Zn    0.25000   0.80307   0.16667   0.00000  Uiso   1.00
Zn168  Zn    0.25000   0.69693   0.16667   0.00000  Uiso   1.00
C169   C     0.66389   0.75000   0.16665   0.00000  Uiso   1.00
C170   C     0.71460   0.94738   0.14555   0.00000  Uiso   1.00
C171   C     0.74999   0.75000   0.07285   0.00000  Uiso   1.00
C172   C     0.75001   0.75000   0.26049   0.00000  Uiso   1.00
C173   C     0.75000   0.52669   0.16667   0.00000  Uiso   1.00
C174   C     0.75000   0.97332   0.16667   0.00000  Uiso   1.00
C175   C     0.74999   0.74999   0.02178   0.00000  Uiso   1.00
C176   C     0.75001   0.74999   0.31155   0.00000  Uiso   1.00
C177   C     0.54705   0.78966   0.14916   0.00000  Uiso   1.00
C178   C     0.95295   0.71046   0.14916   0.00000  Uiso   1.00
C179   C     0.95295   0.78966   0.18416   0.00000  Uiso   1.00
C180   C     0.83611   0.75000   0.16668   0.00000  Uiso   1.00
C181   C     0.54705   0.71046   0.18416   0.00000  Uiso   1.00
C182   C     0.59303   0.78975   0.14942   0.00000  Uiso   1.00
C183   C     0.90698   0.71032   0.14946   0.00000  Uiso   1.00
C184   C     0.90697   0.78975   0.18390   0.00000  Uiso   1.00
C185   C     0.59302   0.71032   0.18387   0.00000  Uiso   1.00
C186   C     0.61600   0.75002   0.16664   0.00000  Uiso   1.00
C187   C     0.88400   0.75002   0.16669   0.00000  Uiso   1.00
C188   C     0.52405   0.75007   0.16667   0.00000  Uiso   1.00
C189   C     0.97595   0.75007   0.16666   0.00000  Uiso   1.00
C190   C     0.72973   0.60223   0.12884   0.00000  Uiso   1.00
C191   C     0.78467   0.89778   0.18753   0.00000  Uiso   1.00
C192   C     0.77027   0.60223   0.20450   0.00000  Uiso   1.00
C193   C     0.71533   0.89778   0.14581   0.00000  Uiso   1.00
C194   C     0.72947   0.55263   0.12802   0.00000  Uiso   1.00
C195   C     0.78540   0.94738   0.18779   0.00000  Uiso   1.00
C196   C     0.77053   0.55263   0.20531   0.00000  Uiso   1.00
H197   H     0.71377   0.62157   0.09895   0.00000  Uiso   1.00
H198   H     0.97054   0.67995   0.13490   0.00000  Uiso   1.00
H199   H     0.97054   0.82018   0.19842   0.00000  Uiso   1.00
H200   H     0.52945   0.67995   0.19843   0.00000  Uiso   1.00
H201   H     0.61055   0.82049   0.13559   0.00000  Uiso   1.00
H202   H     0.88946   0.67957   0.13564   0.00000  Uiso   1.00
H203   H     0.88945   0.82049   0.19773   0.00000  Uiso   1.00
H204   H     0.61054   0.67957   0.19769   0.00000  Uiso   1.00
H205   H     0.81206   0.87846   0.20397   0.00000  Uiso   1.00
H206   H     0.78623   0.62157   0.23439   0.00000  Uiso   1.00
H207   H     0.68794   0.87846   0.12937   0.00000  Uiso   1.00
H208   H     0.71378   0.53489   0.09684   0.00000  Uiso   1.00
H209   H     0.81392   0.96511   0.20384   0.00000  Uiso   1.00
H210   H     0.78622   0.53490   0.23649   0.00000  Uiso   1.00
H211   H     0.68608   0.96511   0.12949   0.00000  Uiso   1.00
H212   H     0.52946   0.82018   0.13491   0.00000  Uiso   1.00
N213   N     0.75000   0.62624   0.16667   0.00000  Uiso   1.00
N214   N     0.75000   0.87377   0.16667   0.00000  Uiso   1.00
O215   O     0.68453   0.78974   0.16667   0.00000  Uiso   1.00
O216   O     0.81547   0.71026   0.16666   0.00000  Uiso   1.00
O217   O     0.81547   0.78974   0.16666   0.00000  Uiso   1.00
O218   O     0.68453   0.71026   0.16667   0.00000  Uiso   1.00
O219   O     0.75000   0.78973   0.09511   0.00000  Uiso   1.00
O220   O     0.75000   0.71027   0.23822   0.00000  Uiso   1.00
O221   O     0.75000   0.78973   0.23822   0.00000  Uiso   1.00
O222   O     0.75000   0.71027   0.09511   0.00000  Uiso   1.00
Zn223  Zn    0.75000   0.80307   0.16667   0.00000  Uiso   1.00
Zn224  Zn    0.75000   0.69693   0.16667   0.00000  Uiso   1.00
C225   C     0.16389   0.25000   0.49998   0.00000  Uiso   1.00
C226   C     0.21460   0.44738   0.47888   0.00000  Uiso   1.00
C227   C     0.24999   0.25000   0.40618   0.00000  Uiso   1.00
C228   C     0.25001   0.25000   0.59382   0.00000  Uiso   1.00
C229   C     0.25000   0.02669   0.50000   0.00000  Uiso   1.00
C230   C     0.25000   0.47332   0.50000   0.00000  Uiso   1.00
C231   C     0.24999   0.24999   0.35511   0.00000  Uiso   1.00
C232   C     0.25001   0.24999   0.64489   0.00000  Uiso   1.00
C233   C     0.04705   0.28966   0.48250   0.00000  Uiso   1.00
C234   C     0.45295   0.21046   0.48250   0.00000  Uiso   1.00
C235   C     0.45295   0.28966   0.51749   0.00000  Uiso   1.00
C236   C     0.33611   0.25000   0.50002   0.00000  Uiso   1.00
C237   C     0.04705   0.21046   0.51750   0.00000  Uiso   1.00
C238   C     0.09303   0.28975   0.48276   0.00000  Uiso   1.00
C239   C     0.40698   0.21032   0.48279   0.00000  Uiso   1.00
C240   C     0.40697   0.28975   0.51724   0.00000  Uiso   1.00
C241   C     0.09302   0.21032   0.51720   0.00000  Uiso   1.00
C242   C     0.11600   0.25002   0.49997   0.00000  Uiso   1.00
C243   C     0.38400   0.25002   0.50002   0.00000  Uiso   1.00
C244   C     0.02405   0.25007   0.50000   0.00000  Uiso   1.00
C245   C     0.47595   0.25007   0.49999   0.00000  Uiso   1.00
C246   C     0.22973   0.10223   0.46217   0.00000  Uiso   1.00
C247   C     0.28467   0.39778   0.52086   0.00000  Uiso   1.00
C248   C     0.27027   0.10223   0.53783   0.00000  Uiso   1.00
C249   C     0.21533   0.39778   0.47914   0.00000  Uiso   1.00
C250   C     0.22947   0.05263   0.46136   0.00000  Uiso   1.00
C251   C     0.28540   0.44738   0.52112   0.00000  Uiso   1.00
C252   C     0.27053   0.05263   0.53864   0.00000  Uiso   1.00
H253   H     0.21377   0.12157   0.43228   0.00000  Uiso   1.00
H254   H     0.47054   0.17995   0.46823   0.00000  Uiso   1.00
H255   H     0.47054   0.32018   0.53175   0.00000  Uiso   1.00
H256   H     0.02945   0.17995   0.53177   0.00000  Uiso   1.00
H257   H     0.11055   0.32049   0.46893   0.00000  Uiso   1.00
H258   H     0.38946   0.17957   0.46897   0.00000  Uiso   1.00
H259   H     0.38945   0.32049   0.53107   0.00000  Uiso   1.00
H260   H     0.11054   0.17957   0.53103   0.00000  Uiso   1.00
H261   H     0.31206   0.37846   0.53730   0.00000  Uiso   1.00
H262   H     0.28623   0.12157   0.56772   0.00000  Uiso   1.00
H263   H     0.18794   0.37846   0.46270   0.00000  Uiso   1.00
H264   H     0.21378   0.03489   0.43018   0.00000  Uiso   1.00
H265   H     0.31392   0.46511   0.53717   0.00000  Uiso   1.00
H266   H     0.28622   0.03490   0.56982   0.00000  Uiso   1.00
H267   H     0.18608   0.46511   0.46283   0.00000  Uiso   1.00
H268   H     0.02946   0.32018   0.46824   0.00000  Uiso   1.00
N269   N     0.25000   0.12624   0.50000   0.00000  Uiso   1.00
N270   N     0.25000   0.37377   0.50000   0.00000  Uiso   1.00
O271   O     0.18453   0.28974   0.50000   0.00000  Uiso   1.00
O272   O     0.31547   0.21026   0.50000   0.00000  Uiso   1.00
O273   O     0.31547   0.28974   0.50000   0.00000  Uiso   1.00
O274   O     0.18453   0.21026   0.50000   0.00000  Uiso   1.00
O275   O     0.25000   0.28973   0.42845   0.00000  Uiso   1.00
O276   O     0.25000   0.21027   0.57155   0.00000  Uiso   1.00
O277   O     0.25000   0.28973   0.57155   0.00000  Uiso   1.00
O278   O     0.25000   0.21027   0.42845   0.00000  Uiso   1.00
Zn279  Zn    0.25000   0.30307   0.50000   0.00000  Uiso   1.00
Zn280  Zn    0.25000   0.19693   0.50000   0.00000  Uiso   1.00
C281   C     0.66389   0.25000   0.49998   0.00000  Uiso   1.00
C282   C     0.71460   0.44738   0.47888   0.00000  Uiso   1.00
C283   C     0.74999   0.25000   0.40618   0.00000  Uiso   1.00
C284   C     0.75001   0.25000   0.59382   0.00000  Uiso   1.00
C285   C     0.75000   0.02669   0.50000   0.00000  Uiso   1.00
C286   C     0.75000   0.47332   0.50000   0.00000  Uiso   1.00
C287   C     0.74999   0.24999   0.35511   0.00000  Uiso   1.00
C288   C     0.75001   0.24999   0.64489   0.00000  Uiso   1.00
C289   C     0.54705   0.28966   0.48250   0.00000  Uiso   1.00
C290   C     0.95295   0.21046   0.48250   0.00000  Uiso   1.00
C291   C     0.95295   0.28966   0.51749   0.00000  Uiso   1.00
C292   C     0.83611   0.25000   0.50002   0.00000  Uiso   1.00
C293   C     0.54705   0.21046   0.51750   0.00000  Uiso   1.00
C294   C     0.59303   0.28975   0.48276   0.00000  Uiso   1.00
C295   C     0.90698   0.21032   0.48279   0.00000  Uiso   1.00
C296   C     0.90697   0.28975   0.51724   0.00000  Uiso   1.00
C297   C     0.59302   0.21032   0.51720   0.00000  Uiso   1.00
C298   C     0.61600   0.25002   0.49997   0.00000  Uiso   1.00
C299   C     0.88400   0.25002   0.50002   0.00000  Uiso   1.00
C300   C     0.52405   0.25007   0.50000   0.00000  Uiso   1.00
C301   C     0.97595   0.25007   0.49999   0.00000  Uiso   1.00
C302   C     0.72973   0.10223   0.46217   0.00000  Uiso   1.00
C303   C     0.78467   0.39778   0.52086   0.00000  Uiso   1.00
C304   C     0.77027   0.10223   0.53783   0.00000  Uiso   1.00
C305   C     0.71533   0.39778   0.47914   0.00000  Uiso   1.00
C306   C     0.72947   0.05263   0.46136   0.00000  Uiso   1.00
C307   C     0.78540   0.44738   0.52112   0.00000  Uiso   1.00
C308   C     0.77053   0.05263   0.53864   0.00000  Uiso   1.00
H309   H     0.71377   0.12157   0.43228   0.00000  Uiso   1.00
H310   H     0.97054   0.17995   0.46823   0.00000  Uiso   1.00
H311   H     0.97054   0.32018   0.53175   0.00000  Uiso   1.00
H312   H     0.52945   0.17995   0.53177   0.00000  Uiso   1.00
H313   H     0.61055   0.32049   0.46893   0.00000  Uiso   1.00
H314   H     0.88946   0.17957   0.46897   0.00000  Uiso   1.00
H315   H     0.88945   0.32049   0.53107   0.00000  Uiso   1.00
H316   H     0.61054   0.17957   0.53103   0.00000  Uiso   1.00
H317   H     0.81206   0.37846   0.53730   0.00000  Uiso   1.00
H318   H     0.78623   0.12157   0.56772   0.00000  Uiso   1.00
H319   H     0.68794   0.37846   0.46270   0.00000  Uiso   1.00
H320   H     0.71378   0.03489   0.43018   0.00000  Uiso   1.00
H321   H     0.81392   0.46511   0.53717   0.00000  Uiso   1.00
H322   H     0.78622   0.03490   0.56982   0.00000  Uiso   1.00
H323   H     0.68608   0.46511   0.46283   0.00000  Uiso   1.00
H324   H     0.52946   0.32018   0.46824   0.00000  Uiso   1.00
N325   N     0.75000   0.12624   0.50000   0.00000  Uiso   1.00
N326   N     0.75000   0.37377   0.50000   0.00000  Uiso   1.00
O327   O     0.68453   0.28974   0.50000   0.00000  Uiso   1.00
O328   O     0.81547   0.21026   0.50000   0.00000  Uiso   1.00
O329   O     0.81547   0.28974   0.50000   0.00000  Uiso   1.00
O330   O     0.68453   0.21026   0.50000   0.00000  Uiso   1.00
O331   O     0.75000   0.28973   0.42845   0.00000  Uiso   1.00
O332   O     0.75000   0.21027   0.57155   0.00000  Uiso   1.00
O333   O     0.75000   0.28973   0.57155   0.00000  Uiso   1.00
O334   O     0.75000   0.21027   0.42845   0.00000  Uiso   1.00
Zn335  Zn    0.75000   0.30307   0.50000   0.00000  Uiso   1.00
Zn336  Zn    0.75000   0.19693   0.50000   0.00000  Uiso   1.00
C337   C     0.16389   0.75000   0.49998   0.00000  Uiso   1.00
C338   C     0.21460   0.94738   0.47888   0.00000  Uiso   1.00
C339   C     0.24999   0.75000   0.40618   0.00000  Uiso   1.00
C340   C     0.25001   0.75000   0.59382   0.00000  Uiso   1.00
C341   C     0.25000   0.52669   0.50000   0.00000  Uiso   1.00
C342   C     0.25000   0.97332   0.50000   0.00000  Uiso   1.00
C343   C     0.24999   0.74999   0.35511   0.00000  Uiso   1.00
C344   C     0.25001   0.74999   0.64489   0.00000  Uiso   1.00
C345   C     0.04705   0.78966   0.48250   0.00000  Uiso   1.00
C346   C     0.45295   0.71046   0.48250   0.00000  Uiso   1.00
C347   C     0.45295   0.78966   0.51749   0.00000  Uiso   1.00
C348   C     0.33611   0.75000   0.50002   0.00000  Uiso   1.00
C349   C     0.04705   0.71046   0.51750   0.00000  Uiso   1.00
C350   C     0.09303   0.78975   0.48276   0.00000  Uiso   1.00
C351   C     0.40698   0.71032   0.48279   0.00000  Uiso   1.00
C352   C     0.40697   0.78975   0.51724   0.00000  Uiso   1.00
C353   C     0.09302   0.71032   0.51720   0.00000  Uiso   1.00
C354   C     0.11600   0.75002   0.49997   0.00000  Uiso   1.00
C355   C     0.38400   0.75002   0.50002   0.00000  Uiso   1.00
C356   C     0.02405   0.75007   0.50000   0.00000  Uiso   1.00
C357   C     0.47595   0.75007   0.49999   0.00000  Uiso   1.00
C358   C     0.22973   0.60223   0.46217   0.00000  Uiso   1.00
C359   C     0.28467   0.89778   0.52086   0.00000  Uiso   1.00
C360   C     0.27027   0.60223   0.53783   0.00000  Uiso   1.00
C361   C     0.21533   0.89778   0.47914   0.00000  Uiso   1.00
C362   C     0.22947   0.55263   0.46136   0.00000  Uiso   1.00
C363   C     0.28540   0.94738   0.52112   0.00000  Uiso   1.00
C364   C     0.27053   0.55263   0.53864   0.00000  Uiso   1.00
H365   H     0.21377   0.62157   0.43228   0.00000  Uiso   1.00
H366   H     0.47054   0.67995   0.46823   0.00000  Uiso   1.00
H367   H     0.47054   0.82018   0.53175   0.00000  Uiso   1.00
H368   H     0.02945   0.67995   0.53177   0.00000  Uiso   1.00
H369   H     0.11055   0.82049   0.46893   0.00000  Uiso   1.00
H370   H     0.38946   0.67957   0.46897   0.00000  Uiso   1.00
H371   H     0.38945   0.82049   0.53107   0.00000  Uiso   1.00
H372   H     0.11054   0.67957   0.53103   0.00000  Uiso   1.00
H373   H     0.31206   0.87846   0.53730   0.00000  Uiso   1.00
H374   H     0.28623   0.62157   0.56772   0.00000  Uiso   1.00
H375   H     0.18794   0.87846   0.46270   0.00000  Uiso   1.00
H376   H     0.21378   0.53489   0.43018   0.00000  Uiso   1.00
H377   H     0.31392   0.96511   0.53717   0.00000  Uiso   1.00
H378   H     0.28622   0.53490   0.56982   0.00000  Uiso   1.00
H379   H     0.18608   0.96511   0.46283   0.00000  Uiso   1.00
H380   H     0.02946   0.82018   0.46824   0.00000  Uiso   1.00
N381   N     0.25000   0.62624   0.50000   0.00000  Uiso   1.00
N382   N     0.25000   0.87377   0.50000   0.00000  Uiso   1.00
O383   O     0.18453   0.78974   0.50000   0.00000  Uiso   1.00
O384   O     0.31547   0.71026   0.50000   0.00000  Uiso   1.00
O385   O     0.31547   0.78974   0.50000   0.00000  Uiso   1.00
O386   O     0.18453   0.71026   0.50000   0.00000  Uiso   1.00
O387   O     0.25000   0.78973   0.42845   0.00000  Uiso   1.00
O388   O     0.25000   0.71027   0.57155   0.00000  Uiso   1.00
O389   O     0.25000   0.78973   0.57155   0.00000  Uiso   1.00
O390   O     0.25000   0.71027   0.42845   0.00000  Uiso   1.00
Zn391  Zn    0.25000   0.80307   0.50000   0.00000  Uiso   1.00
Zn392  Zn    0.25000   0.69693   0.50000   0.00000  Uiso   1.00
C393   C     0.66389   0.75000   0.49998   0.00000  Uiso   1.00
C394   C     0.71460   0.94738   0.47888   0.00000  Uiso   1.00
C395   C     0.74999   0.75000   0.40618   0.00000  Uiso   1.00
C396   C     0.75001   0.75000   0.59382   0.00000  Uiso   1.00
C397   C     0.75000   0.52669   0.50000   0.00000  Uiso   1.00
C398   C     0.75000   0.97332   0.50000   0.00000  Uiso   1.00
C399   C     0.74999   0.74999   0.35511   0.00000  Uiso   1.00
C400   C     0.75001   0.74999   0.64489   0.00000  Uiso   1.00
C401   C     0.54705   0.78966   0.48250   0.00000  Uiso   1.00
C402   C     0.95295   0.71046   0.48250   0.00000  Uiso   1.00
C403   C     0.95295   0.78966   0.51749   0.00000  Uiso   1.00
C404   C     0.83611   0.75000   0.50002   0.00000  Uiso   1.00
C405   C     0.54705   0.71046   0.51750   0.00000  Uiso   1.00
C406   C     0.59303   0.78975   0.48276   0.00000  Uiso   1.00
C407   C     0.90698   0.71032   0.48279   0.00000  Uiso   1.00
C408   C     0.90697   0.78975   0.51724   0.00000  Uiso   1.00
C409   C     0.59302   0.71032   0.51720   0.00000  Uiso   1.00
C410   C     0.61600   0.75002   0.49997   0.00000  Uiso   1.00
C411   C     0.88400   0.75002   0.50002   0.00000  Uiso   1.00
C412   C     0.52405   0.75007   0.50000   0.00000  Uiso   1.00
C413   C     0.97595   0.75007   0.49999   0.00000  Uiso   1.00
C414   C     0.72973   0.60223   0.46217   0.00000  Uiso   1.00
C415   C     0.78467   0.89778   0.52086   0.00000  Uiso   1.00
C416   C     0.77027   0.60223   0.53783   0.00000  Uiso   1.00
C417   C     0.71533   0.89778   0.47914   0.00000  Uiso   1.00
C418   C     0.72947   0.55263   0.46136   0.00000  Uiso   1.00
C419   C     0.78540   0.94738   0.52112   0.00000  Uiso   1.00
C420   C     0.77053   0.55263   0.53864   0.00000  Uiso   1.00
H421   H     0.71377   0.62157   0.43228   0.00000  Uiso   1.00
H422   H     0.97054   0.67995   0.46823   0.00000  Uiso   1.00
H423   H     0.97054   0.82018   0.53175   0.00000  Uiso   1.00
H424   H     0.52945   0.67995   0.53177   0.00000  Uiso   1.00
H425   H     0.61055   0.82049   0.46893   0.00000  Uiso   1.00
H426   H     0.88946   0.67957   0.46897   0.00000  Uiso   1.00
H427   H     0.88945   0.82049   0.53107   0.00000  Uiso   1.00
H428   H     0.61054   0.67957   0.53103   0.00000  Uiso   1.00
H429   H     0.81206   0.87846   0.53730   0.00000  Uiso   1.00
H430   H     0.78623   0.62157   0.56772   0.00000  Uiso   1.00
H431   H     0.68794   0.87846   0.46270   0.00000  Uiso   1.00
H432   H     0.71378   0.53489   0.43018   0.00000  Uiso   1.00
H433   H     0.81392   0.96511   0.53717   0.00000  Uiso   1.00
H434   H     0.78622   0.53490   0.56982   0.00000  Uiso   1.00
H435   H     0.68608   0.96511   0.46283   0.00000  Uiso   1.00
H436   H     0.52946   0.82018   0.46824   0.00000  Uiso   1.00
N437   N     0.75000   0.62624   0.50000   0.00000  Uiso   1.00
N438   N     0.75000   0.87377   0.50000   0.00000  Uiso   1.00
O439   O     0.68453   0.78974   0.50000   0.00000  Uiso   1.00
O440   O     0.81547   0.71026   0.50000   0.00000  Uiso   1.00
O441   O     0.81547   0.78974   0.50000   0.00000  Uiso   1.00
O442   O     0.68453   0.71026   0.50000   0.00000  Uiso   1.00
O443   O     0.75000   0.78973   0.42845   0.00000  Uiso   1.00
O444   O     0.75000   0.71027   0.57155   0.00000  Uiso   1.00
O445   O     0.75000   0.78973   0.57155   0.00000  Uiso   1.00
O446   O     0.75000   0.71027   0.42845   0.00000  Uiso   1.00
Zn447  Zn    0.75000   0.80307   0.50000   0.00000  Uiso   1.00
Zn448  Zn    0.75000   0.69693   0.50000   0.00000  Uiso   1.00
C449   C     0.16389   0.25000   0.83332   0.00000  Uiso   1.00
C450   C     0.21460   0.44738   0.81221   0.00000  Uiso   1.00
C451   C     0.24999   0.25000   0.73951   0.00000  Uiso   1.00
C452   C     0.25001   0.25000   0.92715   0.00000  Uiso   1.00
C453   C     0.25000   0.02669   0.83333   0.00000  Uiso   1.00
C454   C     0.25000   0.47332   0.83333   0.00000  Uiso   1.00
C455   C     0.24999   0.24999   0.68845   0.00000  Uiso   1.00
C456   C     0.25001   0.24999   0.97822   0.00000  Uiso   1.00
C457   C     0.04705   0.28966   0.81583   0.00000  Uiso   1.00
C458   C     0.45295   0.21046   0.81583   0.00000  Uiso   1.00
C459   C     0.45295   0.28966   0.85083   0.00000  Uiso   1.00
C460   C     0.33611   0.25000   0.83335   0.00000  Uiso   1.00
C461   C     0.04705   0.21046   0.85083   0.00000  Uiso   1.00
C462   C     0.09303   0.28975   0.81609   0.00000  Uiso   1.00
C463   C     0.40698   0.21032   0.81613   0.00000  Uiso   1.00
C464   C     0.40697   0.28975   0.85057   0.00000  Uiso   1.00
C465   C     0.09302   0.21032   0.85054   0.00000  Uiso   1.00
C466   C     0.11600   0.25002   0.83331   0.00000  Uiso   1.00
C467   C     0.38400   0.25002   0.83336   0.00000  Uiso   1.00
C468   C     0.02405   0.25007   0.83333   0.00000  Uiso   1.00
C469   C     0.47595   0.25007   0.83332   0.00000  Uiso   1.00
C470   C     0.22973   0.10223   0.79550   0.00000  Uiso   1.00
C471   C     0.28467   0.39778   0.85419   0.00000  Uiso   1.00
C472   C     0.27027   0.10223   0.87116   0.00000  Uiso   1.00
C473   C     0.21533   0.39778   0.81247   0.00000  Uiso   1.00
C474   C     0.22947   0.05263   0.79469   0.00000  Uiso   1.00
C475   C     0.28540   0.44738   0.85445   0.00000  Uiso   1.00
C476   C     0.27053   0.05263   0.87198   0.00000  Uiso   1.00
H477   H     0.21377   0.12157   0.76561   0.00000  Uiso   1.00
H478   H     0.47054   0.17995   0.80156   0.00000  Uiso   1.00
H479   H     0.47054   0.32018   0.86508   0.00000  Uiso   1.00
H480   H     0.02945   0.17995   0.86510   0.00000  Uiso   1.00
H481   H     0.11055   0.32049   0.80226   0.00000  Uiso   1.00
H482   H     0.38946   0.17957   0.80231   0.00000  Uiso   1.00
H483   H     0.38945   0.32049   0.86440   0.00000  Uiso   1.00
H484   H     0.11054   0.17957   0.86436   0.00000  Uiso   1.00
H485   H     0.31206   0.37846   0.87063   0.00000  Uiso   1.00
H486   H     0.28623   0.12157   0.90105   0.00000  Uiso   1.00
H487   H     0.18794   0.37846   0.79603   0.00000  Uiso   1.00
H488   H     0.21378   0.03489   0.76351   0.00000  Uiso   1.00
H489   H     0.31392   0.46511   0.87051   0.00000  Uiso   1.00
H490   H     0.28622   0.03490   0.90316   0.00000  Uiso   1.00
H491   H     0.18608   0.46511   0.79616   0.00000  Uiso   1.00
H492   H     0.02946   0.32018   0.80157   0.00000  Uiso   1.00
N493   N     0.25000   0.12624   0.83333   0.00000  Uiso   1.00
N494   N     0.25000   0.37377   0.83333   0.00000  Uiso   1.00
O495   O     0.18453   0.28974   0.83334   0.00000  Uiso   1.00
O496   O     0.31547   0.21026   0.83333   0.00000  Uiso   1.00
O497   O     0.31547   0.28974   0.83333   0.00000  Uiso   1.00
O498   O     0.18453   0.21026   0.83334   0.00000  Uiso   1.00
O499   O     0.25000   0.28973   0.76178   0.00000  Uiso   1.00
O500   O     0.25000   0.21027   0.90489   0.00000  Uiso   1.00
O501   O     0.25000   0.28973   0.90489   0.00000  Uiso   1.00
O502   O     0.25000   0.21027   0.76178   0.00000  Uiso   1.00
Zn503  Zn    0.25000   0.30307   0.83333   0.00000  Uiso   1.00
Zn504  Zn    0.25000   0.19693   0.83333   0.00000  Uiso   1.00
C505   C     0.66389   0.25000   0.83332   0.00000  Uiso   1.00
C506   C     0.71460   0.44738   0.81221   0.00000  Uiso   1.00
C507   C     0.74999   0.25000   0.73951   0.00000  Uiso   1.00
C508   C     0.75001   0.25000   0.92715   0.00000  Uiso   1.00
C509   C     0.75000   0.02669   0.83333   0.00000  Uiso   1.00
C510   C     0.75000   0.47332   0.83333   0.00000  Uiso   1.00
C511   C     0.74999   0.24999   0.68845   0.00000  Uiso   1.00
C512   C     0.75001   0.24999   0.97822   0.00000  Uiso   1.00
C513   C     0.54705   0.28966   0.81583   0.00000  Uiso   1.00
C514   C     0.95295   0.21046   0.81583   0.00000  Uiso   1.00
C515   C     0.95295   0.28966   0.85083   0.00000  Uiso   1.00
C516   C     0.83611   0.25000   0.83335   0.00000  Uiso   1.00
C517   C     0.54705   0.21046   0.85083   0.00000  Uiso   1.00
C518   C     0.59303   0.28975   0.81609   0.00000  Uiso   1.00
C519   C     0.90698   0.21032   0.81613   0.00000  Uiso   1.00
C520   C     0.90697   0.28975   0.85057   0.00000  Uiso   1.00
C521   C     0.59302   0.21032   0.85054   0.00000  Uiso   1.00
C522   C     0.61600   0.25002   0.83331   0.00000  Uiso   1.00
C523   C     0.88400   0.25002   0.83336   0.00000  Uiso   1.00
C524   C     0.52405   0.25007   0.83333   0.00000  Uiso   1.00
C525   C     0.97595   0.25007   0.83332   0.00000  Uiso   1.00
C526   C     0.72973   0.10223   0.79550   0.00000  Uiso   1.00
C527   C     0.78467   0.39778   0.85419   0.00000  Uiso   1.00
C528   C     0.77027   0.10223   0.87116   0.00000  Uiso   1.00
C529   C     0.71533   0.39778   0.81247   0.00000  Uiso   1.00
C530   C     0.72947   0.05263   0.79469   0.00000  Uiso   1.00
C531   C     0.78540   0.44738   0.85445   0.00000  Uiso   1.00
C532   C     0.77053   0.05263   0.87198   0.00000  Uiso   1.00
H533   H     0.71377   0.12157   0.76561   0.00000  Uiso   1.00
H534   H     0.97054   0.17995   0.80156   0.00000  Uiso   1.00
H535   H     0.97054   0.32018   0.86508   0.00000  Uiso   1.00
H536   H     0.52945   0.17995   0.86510   0.00000  Uiso   1.00
H537   H     0.61055   0.32049   0.80226   0.00000  Uiso   1.00
H538   H     0.88946   0.17957   0.80231   0.00000  Uiso   1.00
H539   H     0.88945   0.32049   0.86440   0.00000  Uiso   1.00
H540   H     0.61054   0.17957   0.86436   0.00000  Uiso   1.00
H541   H     0.81206   0.37846   0.87063   0.00000  Uiso   1.00
H542   H     0.78623   0.12157   0.90105   0.00000  Uiso   1.00
H543   H     0.68794   0.37846   0.79603   0.00000  Uiso   1.00
H544   H     0.71378   0.03489   0.76351   0.00000  Uiso   1.00
H545   H     0.81392   0.46511   0.87051   0.00000  Uiso   1.00
H546   H     0.78622   0.03490   0.90316   0.00000  Uiso   1.00
H547   H     0.68608   0.46511   0.79616   0.00000  Uiso   1.00
H548   H     0.52946   0.32018   0.80157   0.00000  Uiso   1.00
N549   N     0.75000   0.12624   0.83333   0.00000  Uiso   1.00
N550   N     0.75000   0.37377   0.83333   0.00000  Uiso   1.00
O551   O     0.68453   0.28974   0.83334   0.00000  Uiso   1.00
O552   O     0.81547   0.21026   0.83333   0.00000  Uiso   1.00
O553   O     0.81547   0.28974   0.83333   0.00000  Uiso   1.00
O554   O     0.68453   0.21026   0.83334   0.00000  Uiso   1.00
O555   O     0.75000   0.28973   0.76178   0.00000  Uiso   1.00
O556   O     0.75000   0.21027   0.90489   0.00000  Uiso   1.00
O557   O     0.75000   0.28973   0.90489   0.00000  Uiso   1.00
O558   O     0.75000   0.21027   0.76178   0.00000  Uiso   1.00
Zn559  Zn    0.75000   0.30307   0.83333   0.00000  Uiso   1.00
Zn560  Zn    0.75000   0.19693   0.83333   0.00000  Uiso   1.00
C561   C     0.16389   0.75000   0.83332   0.00000  Uiso   1.00
C562   C     0.21460   0.94738   0.81221   0.00000  Uiso   1.00
C563   C     0.24999   0.75000   0.73951   0.00000  Uiso   1.00
C564   C     0.25001   0.75000   0.92715   0.00000  Uiso   1.00
C565   C     0.25000   0.52669   0.83333   0.00000  Uiso   1.00
C566   C     0.25000   0.97332   0.83333   0.00000  Uiso   1.00
C567   C     0.24999   0.74999   0.68845   0.00000  Uiso   1.00
C568   C     0.25001   0.74999   0.97822   0.00000  Uiso   1.00
C569   C     0.04705   0.78966   0.81583   0.00000  Uiso   1.00
C570   C     0.45295   0.71046   0.81583   0.00000  Uiso   1.00
C571   C     0.45295   0.78966   0.85083   0.00000  Uiso   1.00
C572   C     0.33611   0.75000   0.83335   0.00000  Uiso   1.00
C573   C     0.04705   0.71046   0.85083   0.00000  Uiso   1.00
C574   C     0.09303   0.78975   0.81609   0.00000  Uiso   1.00
C575   C     0.40698   0.71032   0.81613   0.00000  Uiso   1.00
C576   C     0.40697   0.78975   0.85057   0.00000  Uiso   1.00
C577   C     0.09302   0.71032   0.85054   0.00000  Uiso   1.00
C578   C     0.11600   0.75002   0.83331   0.00000  Uiso   1.00
C579   C     0.38400   0.75002   0.83336   0.00000  Uiso   1.00
C580   C     0.02405   0.75007   0.83333   0.00000  Uiso   1.00
C581   C     0.47595   0.75007   0.83332   0.00000  Uiso   1.00
C582   C     0.22973   0.60223   0.79550   0.00000  Uiso   1.00
C583   C     0.28467   0.89778   0.85419   0.00000  Uiso   1.00
C584   C     0.27027   0.60223   0.87116   0.00000  Uiso   1.00
C585   C     0.21533   0.89778   0.81247   0.00000  Uiso   1.00
C586   C     0.22947   0.55263   0.79469   0.00000  Uiso   1.00
C587   C     0.28540   0.94738   0.85445   0.00000  Uiso   1.00
C588   C     0.27053   0.55263   0.87198   0.00000  Uiso   1.00
H589   H     0.21377   0.62157   0.76561   0.00000  Uiso   1.00
H590   H     0.47054   0.67995   0.80156   0.00000  Uiso   1.00
H591   H     0.47054   0.82018   0.86508   0.00000  Uiso   1.00
H592   H     0.02945   0.67995   0.86510   0.00000  Uiso   1.00
H593   H     0.11055   0.82049   0.80226   0.00000  Uiso   1.00
H594   H     0.38946   0.67957   0.80231   0.00000  Uiso   1.00
H595   H     0.38945   0.82049   0.86440   0.00000  Uiso   1.00
H596   H     0.11054   0.67957   0.86436   0.00000  Uiso   1.00
H597   H     0.31206   0.87846   0.87063   0.00000  Uiso   1.00
H598   H     0.28623   0.62157   0.90105   0.00000  Uiso   1.00
H599   H     0.18794   0.87846   0.79603   0.00000  Uiso   1.00
H600   H     0.21378   0.53489   0.76351   0.00000  Uiso   1.00
H601   H     0.31392   0.96511   0.87051   0.00000  Uiso   1.00
H602   H     0.28622   0.53490   0.90316   0.00000  Uiso   1.00
H603   H     0.18608   0.96511   0.79616   0.00000  Uiso   1.00
H604   H     0.02946   0.82018   0.80157   0.00000  Uiso   1.00
N605   N     0.25000   0.62624   0.83333   0.00000  Uiso   1.00
N606   N     0.25000   0.87377   0.83333   0.00000  Uiso   1.00
O607   O     0.18453   0.78974   0.83334   0.00000  Uiso   1.00
O608   O     0.31547   0.71026   0.83333   0.00000  Uiso   1.00
O609   O     0.31547   0.78974   0.83333   0.00000  Uiso   1.00
O610   O     0.18453   0.71026   0.83334   0.00000  Uiso   1.00
O611   O     0.25000   0.78973   0.76178   0.00000  Uiso   1.00
O612   O     0.25000   0.71027   0.90489   0.00000  Uiso   1.00
O613   O     0.25000   0.78973   0.90489   0.00000  Uiso   1.00
O614   O     0.25000   0.71027   0.76178   0.00000  Uiso   1.00
Zn615  Zn    0.25000   0.80307   0.83333   0.00000  Uiso   1.00
Zn616  Zn    0.25000   0.69693   0.83333   0.00000  Uiso   1.00
C617   C     0.66389   0.75000   0.83332   0.00000  Uiso   1.00
C618   C     0.71460   0.94738   0.81221   0.00000  Uiso   1.00
C619   C     0.74999   0.75000   0.73951   0.00000  Uiso   1.00
C620   C     0.75001   0.75000   0.92715   0.00000  Uiso   1.00
C621   C     0.75000   0.52669   0.83333   0.00000  Uiso   1.00
C622   C     0.75000   0.97332   0.83333   0.00000  Uiso   1.00
C623   C     0.74999   0.74999   0.68845   0.00000  Uiso   1.00
C624   C     0.75001   0.74999   0.97822   0.00000  Uiso   1.00
C625   C     0.54705   0.78966   0.81583   0.00000  Uiso   1.00
C626   C     0.95295   0.71046   0.81583   0.00000  Uiso   1.00
C627   C     0.95295   0.78966   0.85083   0.00000  Uiso   1.00
C628   C     0.83611   0.75000   0.83335   0.00000  Uiso   1.00
C629   C     0.54705   0.71046   0.85083   0.00000  Uiso   1.00
C630   C     0.59303   0.78975   0.81609   0.00000  Uiso   1.00
C631   C     0.90698   0.71032   0.81613   0.00000  Uiso   1.00
C632   C     0.90697   0.78975   0.85057   0.00000  Uiso   1.00
C633   C     0.59302   0.71032   0.85054   0.00000  Uiso   1.00
C634   C     0.61600   0.75002   0.83331   0.00000  Uiso   1.00
C635   C     0.88400   0.75002   0.83336   0.00000  Uiso   1.00
C636   C     0.52405   0.75007   0.83333   0.00000  Uiso   1.00
C637   C     0.97595   0.75007   0.83332   0.00000  Uiso   1.00
C638   C     0.72973   0.60223   0.79550   0.00000  Uiso   1.00
C639   C     0.78467   0.89778   0.85419   0.00000  Uiso   1.00
C640   C     0.77027   0.60223   0.87116   0.00000  Uiso   1.00
C641   C     0.71533   0.89778   0.81247   0.00000  Uiso   1.00
C642   C     0.72947   0.55263   0.79469   0.00000  Uiso   1.00
C643   C     0.78540   0.94738   0.85445   0.00000  Uiso   1.00
C644   C     0.77053   0.55263   0.87198   0.00000  Uiso   1.00
H645   H     0.71377   0.62157   0.76561   0.00000  Uiso   1.00
H646   H     0.97054   0.67995   0.80156   0.00000  Uiso   1.00
H647   H     0.97054   0.82018   0.86508   0.00000  Uiso   1.00
H648   H     0.52945   0.67995   0.86510   0.00000  Uiso   1.00
H649   H     0.61055   0.82049   0.80226   0.00000  Uiso   1.00
H650   H     0.88946   0.67957   0.80231   0.00000  Uiso   1.00
H651   H     0.88945   0.82049   0.86440   0.00000  Uiso   1.00
H652   H     0.61054   0.67957   0.86436   0.00000  Uiso   1.00
H653   H     0.81206   0.87846   0.87063   0.00000  Uiso   1.00
H654   H     0.78623   0.62157   0.90105   0.00000  Uiso   1.00
H655   H     0.68794   0.87846   0.79603   0.00000  Uiso   1.00
H656   H     0.71378   0.53489   0.76351   0.00000  Uiso   1.00
H657   H     0.81392   0.96511   0.87051   0.00000  Uiso   1.00
H658   H     0.78622   0.53490   0.90316   0.00000  Uiso   1.00
H659   H     0.68608   0.96511   0.79616   0.00000  Uiso   1.00
H660   H     0.52946   0.82018   0.80157   0.00000  Uiso   1.00
N661   N     0.75000   0.62624   0.83333   0.00000  Uiso   1.00
N662   N     0.75000   0.87377   0.83333   0.00000  Uiso   1.00
O663   O     0.68453   0.78974   0.83334   0.00000  Uiso   1.00
O664   O     0.81547   0.71026   0.83333   0.00000  Uiso   1.00
O665   O     0.81547   0.78974   0.83333   0.00000  Uiso   1.00
O666   O     0.68453   0.71026   0.83334   0.00000  Uiso   1.00
O667   O     0.75000   0.78973   0.76178   0.00000  Uiso   1.00
O668   O     0.75000   0.71027   0.90489   0.00000  Uiso   1.00
O669   O     0.75000   0.78973   0.90489   0.00000  Uiso   1.00
O670   O     0.75000   0.71027   0.76178   0.00000  Uiso   1.00
Zn671  Zn    0.75000   0.80307   0.83333   0.00000  Uiso   1.00
Zn672  Zn    0.75000   0.69693   0.83333   0.00000  Uiso   1.00
loop_
_geom_bond_atom_site_label_1
_geom_bond_atom_site_label_2
_geom_bond_distance
_geom_bond_site_symmetry_2
_ccdc_geom_bond_type
C1     O50     1.286   .     A
C1     C18     1.438   .     S
C1     O47     1.286   .     A
C2     H43     1.082   .     S
C2     C6      1.411   .     A
C2     C25     1.407   .     A
C3     C7      1.366   .     S
C3     O54     1.275   .     A
C3     O51     1.275   .     A
C4     O53     1.275   .     A
C4     C8      1.366   .     S
C4     O52     1.275   .     A
C5     C28     1.411   .     A
C5     C26     1.411   .     A
C5     C118    1.514   1_545 S
C6     C27     1.411   .     A
C6     C117    1.514   .     S
C7     C456    1.166   1_554 S
C8     C231    1.166   .     S
C9     C14     1.381   .     A
C9     H44     1.083   .     S
C9     C20     1.399   .     A
C10    C15     1.381   .     A
C10    C21     1.399   .     A
C10    H30     1.083   .     S
C11    H31     1.083   .     S
C11    C16     1.381   .     A
C11    C21     1.399   .     A
C12    C19     1.438   .     S
C12    O48     1.286   .     A
C12    O49     1.286   .     A
C13    C17     1.381   .     A
C13    C20     1.399   .     A
C13    H32     1.083   .     S
C14    C18     1.399   .     A
C14    H33     1.084   .     S
C15    H34     1.084   .     S
C15    C19     1.399   .     A
C16    H35     1.084   .     S
C16    C19     1.399   .     A
C17    H36     1.083   .     S
C17    C18     1.399   .     A
C20    C77     1.444   1_455 S
C21    C76     1.444   .     S
C22    H29     1.082   .     S
C22    C26     1.407   .     A
C22    N45     1.363   .     A
C23    C27     1.407   .     A
C23    N46     1.363   .     A
C23    H37     1.082   .     S
C24    H38     1.082   .     S
C24    N45     1.363   .     A
C24    C28     1.407   .     A
C25    H39     1.082   .     S
C25    N46     1.363   .     A
C26    H40     1.082   .     S
C27    H41     1.082   .     S
C28    H42     1.082   .     S
N45    Zn56    2.005   .     S
N46    Zn55    2.005   .     S
O47    Zn55    2.002   .     S
O48    Zn56    2.002   .     S
O49    Zn55    2.002   .     S
O50    Zn56    2.002   .     S
O51    Zn55    1.952   .     S
O52    Zn56    1.952   .     S
O53    Zn55    1.952   .     S
O54    Zn56    1.952   .     S
C57    O106    1.286   .     A
C57    C74     1.438   .     S
C57    O103    1.286   .     A
C58    H99     1.082   .     S
C58    C62     1.411   .     A
C58    C81     1.407   .     A
C59    C63     1.366   .     S
C59    O110    1.275   .     A
C59    O107    1.275   .     A
C60    O109    1.275   .     A
C60    C64     1.366   .     S
C60    O108    1.275   .     A
C61    C84     1.411   .     A
C61    C82     1.411   .     A
C61    C174    1.514   1_545 S
C62    C83     1.411   .     A
C62    C173    1.514   .     S
C63    C512    1.166   1_554 S
C64    C287    1.166   .     S
C65    C70     1.381   .     A
C65    H100    1.083   .     S
C65    C76     1.399   .     A
C66    C71     1.381   .     A
C66    C77     1.399   .     A
C66    H86     1.083   .     S
C67    H87     1.083   .     S
C67    C72     1.381   .     A
C67    C77     1.399   .     A
C68    C75     1.438   .     S
C68    O104    1.286   .     A
C68    O105    1.286   .     A
C69    C73     1.381   .     A
C69    C76     1.399   .     A
C69    H88     1.083   .     S
C70    C74     1.399   .     A
C70    H89     1.084   .     S
C71    H90     1.084   .     S
C71    C75     1.399   .     A
C72    H91     1.084   .     S
C72    C75     1.399   .     A
C73    H92     1.083   .     S
C73    C74     1.399   .     A
C77    C20     1.444   1_655 S
C78    H85     1.082   .     S
C78    C82     1.407   .     A
C78    N101    1.363   .     A
C79    C83     1.407   .     A
C79    N102    1.363   .     A
C79    H93     1.082   .     S
C80    H94     1.082   .     S
C80    N101    1.363   .     A
C80    C84     1.407   .     A
C81    H95     1.082   .     S
C81    N102    1.363   .     A
C82    H96     1.082   .     S
C83    H97     1.082   .     S
C84    H98     1.082   .     S
N101   Zn112   2.005   .     S
N102   Zn111   2.005   .     S
O103   Zn111   2.002   .     S
O104   Zn112   2.002   .     S
O105   Zn111   2.002   .     S
O106   Zn112   2.002   .     S
O107   Zn111   1.952   .     S
O108   Zn112   1.952   .     S
O109   Zn111   1.952   .     S
O110   Zn112   1.952   .     S
C113   O162    1.286   .     A
C113   C130    1.438   .     S
C113   O159    1.286   .     A
C114   H155    1.082   .     S
C114   C118    1.411   .     A
C114   C137    1.407   .     A
C115   C119    1.366   .     S
C115   O166    1.275   .     A
C115   O163    1.275   .     A
C116   O165    1.275   .     A
C116   C120    1.366   .     S
C116   O164    1.275   .     A
C117   C140    1.411   .     A
C117   C138    1.411   .     A
C118   C139    1.411   .     A
C118   C5      1.514   1_565 S
C119   C568    1.166   1_554 S
C120   C343    1.166   .     S
C121   C126    1.381   .     A
C121   H156    1.083   .     S
C121   C132    1.399   .     A
C122   C127    1.381   .     A
C122   C133    1.399   .     A
C122   H142    1.083   .     S
C123   H143    1.083   .     S
C123   C128    1.381   .     A
C123   C133    1.399   .     A
C124   C131    1.438   .     S
C124   O160    1.286   .     A
C124   O161    1.286   .     A
C125   C129    1.381   .     A
C125   C132    1.399   .     A
C125   H144    1.083   .     S
C126   C130    1.399   .     A
C126   H145    1.084   .     S
C127   H146    1.084   .     S
C127   C131    1.399   .     A
C128   H147    1.084   .     S
C128   C131    1.399   .     A
C129   H148    1.083   .     S
C129   C130    1.399   .     A
C132   C189    1.444   1_455 S
C133   C188    1.444   .     S
C134   H141    1.082   .     S
C134   C138    1.407   .     A
C134   N157    1.363   .     A
C135   C139    1.407   .     A
C135   N158    1.363   .     A
C135   H149    1.082   .     S
C136   H150    1.082   .     S
C136   N157    1.363   .     A
C136   C140    1.407   .     A
C137   H151    1.082   .     S
C137   N158    1.363   .     A
C138   H152    1.082   .     S
C139   H153    1.082   .     S
C140   H154    1.082   .     S
N157   Zn168   2.005   .     S
N158   Zn167   2.005   .     S
O159   Zn167   2.002   .     S
O160   Zn168   2.002   .     S
O161   Zn167   2.002   .     S
O162   Zn168   2.002   .     S
O163   Zn167   1.952   .     S
O164   Zn168   1.952   .     S
O165   Zn167   1.952   .     S
O166   Zn168   1.952   .     S
C169   O218    1.286   .     A
C169   C186    1.438   .     S
C169   O215    1.286   .     A
C170   H211    1.082   .     S
C170   C174    1.411   .     A
C170   C193    1.407   .     A
C171   C175    1.366   .     S
C171   O222    1.275   .     A
C171   O219    1.275   .     A
C172   O221    1.275   .     A
C172   C176    1.366   .     S
C172   O220    1.275   .     A
C173   C196    1.411   .     A
C173   C194    1.411   .     A
C174   C195    1.411   .     A
C174   C61     1.514   1_565 S
C175   C624    1.166   1_554 S
C176   C399    1.166   .     S
C177   C182    1.381   .     A
C177   H212    1.083   .     S
C177   C188    1.399   .     A
C178   C183    1.381   .     A
C178   C189    1.399   .     A
C178   H198    1.083   .     S
C179   H199    1.083   .     S
C179   C184    1.381   .     A
C179   C189    1.399   .     A
C180   C187    1.438   .     S
C180   O216    1.286   .     A
C180   O217    1.286   .     A
C181   C185    1.381   .     A
C181   C188    1.399   .     A
C181   H200    1.083   .     S
C182   C186    1.399   .     A
C182   H201    1.084   .     S
C183   H202    1.084   .     S
C183   C187    1.399   .     A
C184   H203    1.084   .     S
C184   C187    1.399   .     A
C185   H204    1.083   .     S
C185   C186    1.399   .     A
C189   C132    1.444   1_655 S
C190   H197    1.082   .     S
C190   C194    1.407   .     A
C190   N213    1.363   .     A
C191   C195    1.407   .     A
C191   N214    1.363   .     A
C191   H205    1.082   .     S
C192   H206    1.082   .     S
C192   N213    1.363   .     A
C192   C196    1.407   .     A
C193   H207    1.082   .     S
C193   N214    1.363   .     A
C194   H208    1.082   .     S
C195   H209    1.082   .     S
C196   H210    1.082   .     S
N213   Zn224   2.005   .     S
N214   Zn223   2.005   .     S
O215   Zn223   2.002   .     S
O216   Zn224   2.002   .     S
O217   Zn223   2.002   .     S
O218   Zn224   2.002   .     S
O219   Zn223   1.952   .     S
O220   Zn224   1.952   .     S
O221   Zn223   1.952   .     S
O222   Zn224   1.952   .     S
C225   O274    1.286   .     A
C225   C242    1.438   .     S
C225   O271    1.286   .     A
C226   H267    1.082   .     S
C226   C230    1.411   .     A
C226   C249    1.407   .     A
C227   C231    1.366   .     S
C227   O278    1.275   .     A
C227   O275    1.275   .     A
C228   O277    1.275   .     A
C228   C232    1.366   .     S
C228   O276    1.275   .     A
C229   C252    1.411   .     A
C229   C250    1.411   .     A
C229   C342    1.514   1_545 S
C230   C251    1.411   .     A
C230   C341    1.514   .     S
C232   C455    1.166   .     S
C233   C238    1.381   .     A
C233   H268    1.083   .     S
C233   C244    1.399   .     A
C234   C239    1.381   .     A
C234   C245    1.399   .     A
C234   H254    1.083   .     S
C235   H255    1.083   .     S
C235   C240    1.381   .     A
C235   C245    1.399   .     A
C236   C243    1.438   .     S
C236   O272    1.286   .     A
C236   O273    1.286   .     A
C237   C241    1.381   .     A
C237   C244    1.399   .     A
C237   H256    1.083   .     S
C238   C242    1.399   .     A
C238   H257    1.084   .     S
C239   H258    1.084   .     S
C239   C243    1.399   .     A
C240   H259    1.084   .     S
C240   C243    1.399   .     A
C241   H260    1.083   .     S
C241   C242    1.399   .     A
C244   C301    1.444   1_455 S
C245   C300    1.444   .     S
C246   H253    1.082   .     S
C246   C250    1.407   .     A
C246   N269    1.363   .     A
C247   C251    1.407   .     A
C247   N270    1.363   .     A
C247   H261    1.082   .     S
C248   H262    1.082   .     S
C248   N269    1.363   .     A
C248   C252    1.407   .     A
C249   H263    1.082   .     S
C249   N270    1.363   .     A
C250   H264    1.082   .     S
C251   H265    1.082   .     S
C252   H266    1.082   .     S
N269   Zn280   2.005   .     S
N270   Zn279   2.005   .     S
O271   Zn279   2.002   .     S
O272   Zn280   2.002   .     S
O273   Zn279   2.002   .     S
O274   Zn280   2.002   .     S
O275   Zn279   1.952   .     S
O276   Zn280   1.952   .     S
O277   Zn279   1.952   .     S
O278   Zn280   1.952   .     S
C281   O330    1.286   .     A
C281   C298    1.438   .     S
C281   O327    1.286   .     A
C282   H323    1.082   .     S
C282   C286    1.411   .     A
C282   C305    1.407   .     A
C283   C287    1.366   .     S
C283   O334    1.275   .     A
C283   O331    1.275   .     A
C284   O333    1.275   .     A
C284   C288    1.366   .     S
C284   O332    1.275   .     A
C285   C308    1.411   .     A
C285   C306    1.411   .     A
C285   C398    1.514   1_545 S
C286   C307    1.411   .     A
C286   C397    1.514   .     S
C288   C511    1.166   .     S
C289   C294    1.381   .     A
C289   H324    1.083   .     S
C289   C300    1.399   .     A
C290   C295    1.381   .     A
C290   C301    1.399   .     A
C290   H310    1.083   .     S
C291   H311    1.083   .     S
C291   C296    1.381   .     A
C291   C301    1.399   .     A
C292   C299    1.438   .     S
C292   O328    1.286   .     A
C292   O329    1.286   .     A
C293   C297    1.381   .     A
C293   C300    1.399   .     A
C293   H312    1.083   .     S
C294   C298    1.399   .     A
C294   H313    1.084   .     S
C295   H314    1.084   .     S
C295   C299    1.399   .     A
C296   H315    1.084   .     S
C296   C299    1.399   .     A
C297   H316    1.083   .     S
C297   C298    1.399   .     A
C301   C244    1.444   1_655 S
C302   H309    1.082   .     S
C302   C306    1.407   .     A
C302   N325    1.363   .     A
C303   C307    1.407   .     A
C303   N326    1.363   .     A
C303   H317    1.082   .     S
C304   H318    1.082   .     S
C304   N325    1.363   .     A
C304   C308    1.407   .     A
C305   H319    1.082   .     S
C305   N326    1.363   .     A
C306   H320    1.082   .     S
C307   H321    1.082   .     S
C308   H322    1.082   .     S
N325   Zn336   2.005   .     S
N326   Zn335   2.005   .     S
O327   Zn335   2.002   .     S
O328   Zn336   2.002   .     S
O329   Zn335   2.002   .     S
O330   Zn336   2.002   .     S
O331   Zn335   1.952   .     S
O332   Zn336   1.952   .     S
O333   Zn335   1.952   .     S
O334   Zn336   1.952   .     S
C337   O386    1.286   .     A
C337   C354    1.438   .     S
C337   O383    1.286   .     A
C338   H379    1.082   .     S
C338   C342    1.411   .     A
C338   C361    1.407   .     A
C339   C343    1.366   .     S
C339   O390    1.275   .     A
C339   O387    1.275   .     A
C340   O389    1.275   .     A
C340   C344    1.366   .     S
C340   O388    1.275   .     A
C341   C364    1.411   .     A
C341   C362    1.411   .     A
C342   C363    1.411   .     A
C342   C229    1.514   1_565 S
C344   C567    1.166   .     S
C345   C350    1.381   .     A
C345   H380    1.083   .     S
C345   C356    1.399   .     A
C346   C351    1.381   .     A
C346   C357    1.399   .     A
C346   H366    1.083   .     S
C347   H367    1.083   .     S
C347   C352    1.381   .     A
C347   C357    1.399   .     A
C348   C355    1.438   .     S
C348   O384    1.286   .     A
C348   O385    1.286   .     A
C349   C353    1.381   .     A
C349   C356    1.399   .     A
C349   H368    1.083   .     S
C350   C354    1.399   .     A
C350   H369    1.084   .     S
C351   H370    1.084   .     S
C351   C355    1.399   .     A
C352   H371    1.084   .     S
C352   C355    1.399   .     A
C353   H372    1.083   .     S
C353   C354    1.399   .     A
C356   C413    1.444   1_455 S
C357   C412    1.444   .     S
C358   H365    1.082   .     S
C358   C362    1.407   .     A
C358   N381    1.363   .     A
C359   C363    1.407   .     A
C359   N382    1.363   .     A
C359   H373    1.082   .     S
C360   H374    1.082   .     S
C360   N381    1.363   .     A
C360   C364    1.407   .     A
C361   H375    1.082   .     S
C361   N382    1.363   .     A
C362   H376    1.082   .     S
C363   H377    1.082   .     S
C364   H378    1.082   .     S
N381   Zn392   2.005   .     S
N382   Zn391   2.005   .     S
O383   Zn391   2.002   .     S
O384   Zn392   2.002   .     S
O385   Zn391   2.002   .     S
O386   Zn392   2.002   .     S
O387   Zn391   1.952   .     S
O388   Zn392   1.952   .     S
O389   Zn391   1.952   .     S
O390   Zn392   1.952   .     S
C393   O442    1.286   .     A
C393   C410    1.438   .     S
C393   O439    1.286   .     A
C394   H435    1.082   .     S
C394   C398    1.411   .     A
C394   C417    1.407   .     A
C395   C399    1.366   .     S
C395   O446    1.275   .     A
C395   O443    1.275   .     A
C396   O445    1.275   .     A
C396   C400    1.366   .     S
C396   O444    1.275   .     A
C397   C420    1.411   .     A
C397   C418    1.411   .     A
C398   C419    1.411   .     A
C398   C285    1.514   1_565 S
C400   C623    1.166   .     S
C401   C406    1.381   .     A
C401   H436    1.083   .     S
C401   C412    1.399   .     A
C402   C407    1.381   .     A
C402   C413    1.399   .     A
C402   H422    1.083   .     S
C403   H423    1.083   .     S
C403   C408    1.381   .     A
C403   C413    1.399   .     A
C404   C411    1.438   .     S
C404   O440    1.286   .     A
C404   O441    1.286   .     A
C405   C409    1.381   .     A
C405   C412    1.399   .     A
C405   H424    1.083   .     S
C406   C410    1.399   .     A
C406   H425    1.084   .     S
C407   H426    1.084   .     S
C407   C411    1.399   .     A
C408   H427    1.084   .     S
C408   C411    1.399   .     A
C409   H428    1.083   .     S
C409   C410    1.399   .     A
C413   C356    1.444   1_655 S
C414   H421    1.082   .     S
C414   C418    1.407   .     A
C414   N437    1.363   .     A
C415   C419    1.407   .     A
C415   N438    1.363   .     A
C415   H429    1.082   .     S
C416   H430    1.082   .     S
C416   N437    1.363   .     A
C416   C420    1.407   .     A
C417   H431    1.082   .     S
C417   N438    1.363   .     A
C418   H432    1.082   .     S
C419   H433    1.082   .     S
C420   H434    1.082   .     S
N437   Zn448   2.005   .     S
N438   Zn447   2.005   .     S
O439   Zn447   2.002   .     S
O440   Zn448   2.002   .     S
O441   Zn447   2.002   .     S
O442   Zn448   2.002   .     S
O443   Zn447   1.952   .     S
O444   Zn448   1.952   .     S
O445   Zn447   1.952   .     S
O446   Zn448   1.952   .     S
C449   O498    1.286   .     A
C449   C466    1.438   .     S
C449   O495    1.286   .     A
C450   H491    1.082   .     S
C450   C454    1.411   .     A
C450   C473    1.407   .     A
C451   C455    1.366   .     S
C451   O502    1.275   .     A
C451   O499    1.275   .     A
C452   O501    1.275   .     A
C452   C456    1.366   .     S
C452   O500    1.275   .     A
C453   C476    1.411   .     A
C453   C474    1.411   .     A
C453   C566    1.514   1_545 S
C454   C475    1.411   .     A
C454   C565    1.514   .     S
C456   C7      1.166   1_556 S
C457   C462    1.381   .     A
C457   H492    1.083   .     S
C457   C468    1.399   .     A
C458   C463    1.381   .     A
C458   C469    1.399   .     A
C458   H478    1.083   .     S
C459   H479    1.083   .     S
C459   C464    1.381   .     A
C459   C469    1.399   .     A
C460   C467    1.438   .     S
C460   O496    1.286   .     A
C460   O497    1.286   .     A
C461   C465    1.381   .     A
C461   C468    1.399   .     A
C461   H480    1.083   .     S
C462   C466    1.399   .     A
C462   H481    1.084   .     S
C463   H482    1.084   .     S
C463   C467    1.399   .     A
C464   H483    1.084   .     S
C464   C467    1.399   .     A
C465   H484    1.083   .     S
C465   C466    1.399   .     A
C468   C525    1.444   1_455 S
C469   C524    1.444   .     S
C470   H477    1.082   .     S
C470   C474    1.407   .     A
C470   N493    1.363   .     A
C471   C475    1.407   .     A
C471   N494    1.363   .     A
C471   H485    1.082   .     S
C472   H486    1.082   .     S
C472   N493    1.363   .     A
C472   C476    1.407   .     A
C473   H487    1.082   .     S
C473   N494    1.363   .     A
C474   H488    1.082   .     S
C475   H489    1.082   .     S
C476   H490    1.082   .     S
N493   Zn504   2.005   .     S
N494   Zn503   2.005   .     S
O495   Zn503   2.002   .     S
O496   Zn504   2.002   .     S
O497   Zn503   2.002   .     S
O498   Zn504   2.002   .     S
O499   Zn503   1.952   .     S
O500   Zn504   1.952   .     S
O501   Zn503   1.952   .     S
O502   Zn504   1.952   .     S
C505   O554    1.286   .     A
C505   C522    1.438   .     S
C505   O551    1.286   .     A
C506   H547    1.082   .     S
C506   C510    1.411   .     A
C506   C529    1.407   .     A
C507   C511    1.366   .     S
C507   O558    1.275   .     A
C507   O555    1.275   .     A
C508   O557    1.275   .     A
C508   C512    1.366   .     S
C508   O556    1.275   .     A
C509   C532    1.411   .     A
C509   C530    1.411   .     A
C509   C622    1.514   1_545 S
C510   C531    1.411   .     A
C510   C621    1.514   .     S
C512   C63     1.166   1_556 S
C513   C518    1.381   .     A
C513   H548    1.083   .     S
C513   C524    1.399   .     A
C514   C519    1.381   .     A
C514   C525    1.399   .     A
C514   H534    1.083   .     S
C515   H535    1.083   .     S
C515   C520    1.381   .     A
C515   C525    1.399   .     A
C516   C523    1.438   .     S
C516   O552    1.286   .     A
C516   O553    1.286   .     A
C517   C521    1.381   .     A
C517   C524    1.399   .     A
C517   H536    1.083   .     S
C518   C522    1.399   .     A
C518   H537    1.084   .     S
C519   H538    1.084   .     S
C519   C523    1.399   .     A
C520   H539    1.084   .     S
C520   C523    1.399   .     A
C521   H540    1.083   .     S
C521   C522    1.399   .     A
C525   C468    1.444   1_655 S
C526   H533    1.082   .     S
C526   C530    1.407   .     A
C526   N549    1.363   .     A
C527   C531    1.407   .     A
C527   N550    1.363   .     A
C527   H541    1.082   .     S
C528   H542    1.082   .     S
C528   N549    1.363   .     A
C528   C532    1.407   .     A
C529   H543    1.082   .     S
C529   N550    1.363   .     A
C530   H544    1.082   .     S
C531   H545    1.082   .     S
C532   H546    1.082   .     S
N549   Zn560   2.005   .     S
N550   Zn559   2.005   .     S
O551   Zn559   2.002   .     S
O552   Zn560   2.002   .     S
O553   Zn559   2.002   .     S
O554   Zn560   2.002   .     S
O555   Zn559   1.952   .     S
O556   Zn560   1.952   .     S
O557   Zn559   1.952   .     S
O558   Zn560   1.952   .     S
C561   O610    1.286   .     A
C561   C578    1.438   .     S
C561   O607    1.286   .     A
C562   H603    1.082   .     S
C562   C566    1.411   .     A
C562   C585    1.407   .     A
C563   C567    1.366   .     S
C563   O614    1.275   .     A
C563   O611    1.275   .     A
C564   O613    1.275   .     A
C564   C568    1.366   .     S
C564   O612    1.275   .     A
C565   C588    1.411   .     A
C565   C586    1.411   .     A
C566   C587    1.411   .     A
C566   C453    1.514   1_565 S
C568   C119    1.166   1_556 S
C569   C574    1.381   .     A
C569   H604    1.083   .     S
C569   C580    1.399   .     A
C570   C575    1.381   .     A
C570   C581    1.399   .     A
C570   H590    1.083   .     S
C571   H591    1.083   .     S
C571   C576    1.381   .     A
C571   C581    1.399   .     A
C572   C579    1.438   .     S
C572   O608    1.286   .     A
C572   O609    1.286   .     A
C573   C577    1.381   .     A
C573   C580    1.399   .     A
C573   H592    1.083   .     S
C574   C578    1.399   .     A
C574   H593    1.084   .     S
C575   H594    1.084   .     S
C575   C579    1.399   .     A
C576   H595    1.084   .     S
C576   C579    1.399   .     A
C577   H596    1.083   .     S
C577   C578    1.399   .     A
C580   C637    1.444   1_455 S
C581   C636    1.444   .     S
C582   H589    1.082   .     S
C582   C586    1.407   .     A
C582   N605    1.363   .     A
C583   C587    1.407   .     A
C583   N606    1.363   .     A
C583   H597    1.082   .     S
C584   H598    1.082   .     S
C584   N605    1.363   .     A
C584   C588    1.407   .     A
C585   H599    1.082   .     S
C585   N606    1.363   .     A
C586   H600    1.082   .     S
C587   H601    1.082   .     S
C588   H602    1.082   .     S
N605   Zn616   2.005   .     S
N606   Zn615   2.005   .     S
O607   Zn615   2.002   .     S
O608   Zn616   2.002   .     S
O609   Zn615   2.002   .     S
O610   Zn616   2.002   .     S
O611   Zn615   1.952   .     S
O612   Zn616   1.952   .     S
O613   Zn615   1.952   .     S
O614   Zn616   1.952   .     S
C617   O666    1.286   .     A
C617   C634    1.438   .     S
C617   O663    1.286   .     A
C618   H659    1.082   .     S
C618   C622    1.411   .     A
C618   C641    1.407   .     A
C619   C623    1.366   .     S
C619   O670    1.275   .     A
C619   O667    1.275   .     A
C620   O669    1.275   .     A
C620   C624    1.366   .     S
C620   O668    1.275   .     A
C621   C644    1.411   .     A
C621   C642    1.411   .     A
C622   C643    1.411   .     A
C622   C509    1.514   1_565 S
C624   C175    1.166   1_556 S
C625   C630    1.381   .     A
C625   H660    1.083   .     S
C625   C636    1.399   .     A
C626   C631    1.381   .     A
C626   C637    1.399   .     A
C626   H646    1.083   .     S
C627   H647    1.083   .     S
C627   C632    1.381   .     A
C627   C637    1.399   .     A
C628   C635    1.438   .     S
C628   O664    1.286   .     A
C628   O665    1.286   .     A
C629   C633    1.381   .     A
C629   C636    1.399   .     A
C629   H648    1.083   .     S
C630   C634    1.399   .     A
C630   H649    1.084   .     S
C631   H650    1.084   .     S
C631   C635    1.399   .     A
C632   H651    1.084   .     S
C632   C635    1.399   .     A
C633   H652    1.083   .     S
C633   C634    1.399   .     A
C637   C580    1.444   1_655 S
C638   H645    1.082   .     S
C638   C642    1.407   .     A
C638   N661    1.363   .     A
C639   C643    1.407   .     A
C639   N662    1.363   .     A
C639   H653    1.082   .     S
C640   H654    1.082   .     S
C640   N661    1.363   .     A
C640   C644    1.407   .     A
C641   H655    1.082   .     S
C641   N662    1.363   .     A
C642   H656    1.082   .     S
C643   H657    1.082   .     S
C644   H658    1.082   .     S
N661   Zn672   2.005   .     S
N662   Zn671   2.005   .     S
O663   Zn671   2.002   .     S
O664   Zn672   2.002   .     S
O665   Zn671   2.002   .     S
O666   Zn672   2.002   .     S
O667   Zn671   1.952   .     S
O668   Zn672   1.952   .     S
O669   Zn671   1.952   .     S
O670   Zn672   1.952   .     S
