data_str_m3_o1_o16_pcu_sym.93
_audit_creation_date              2020-01-03
_audit_creation_method            'Materials Studio'
_symmetry_space_group_name_H-M    'P1'
_symmetry_Int_Tables_number       1
_symmetry_cell_setting            triclinic
loop_
_symmetry_equiv_pos_as_xyz
  x,y,z
_cell_length_a                    29.7423
_cell_length_b                    31.8241
_cell_length_c                    26.7119
_cell_angle_alpha                 91.6130
_cell_angle_beta                  71.5598
_cell_angle_gamma                 90.8116
loop_
_atom_site_label
_atom_site_type_symbol
_atom_site_fract_x
_atom_site_fract_y
_atom_site_fract_z
_atom_site_U_iso_or_equiv
_atom_site_adp_type
_atom_site_occupancy
C1     C     0.16658   0.24649   0.25104   0.00000  Uiso   1.00
C2     C     0.15377   0.15911   0.48408   0.00000  Uiso   1.00
C3     C     0.15641   0.17689   0.43594   0.00000  Uiso   1.00
C4     C     0.18405   0.17485   0.01182   0.00000  Uiso   1.00
C5     C     0.22275   0.20160   0.48736   0.00000  Uiso   1.00
C6     C     0.22309   0.22118   0.44060   0.00000  Uiso   1.00
C7     C     0.18944   0.20955   0.41649   0.00000  Uiso   1.00
C8     C     0.17211   0.16967   0.06602   0.00000  Uiso   1.00
C9     C     0.24990   0.19599   0.06422   0.00000  Uiso   1.00
C10    C     0.12610   0.16163   0.40800   0.00000  Uiso   1.00
C11    C     0.16922   0.31312   0.29591   0.00000  Uiso   1.00
C12    C     0.14072   0.16704   0.35132   0.00000  Uiso   1.00
C13    C     0.17210   0.02300   0.29393   0.00000  Uiso   1.00
C14    C     0.16661   0.04260   0.24987   0.00000  Uiso   1.00
C15    C     0.16231   0.02034   0.20547   0.00000  Uiso   1.00
C16    C     0.16298   0.30990   0.20672   0.00000  Uiso   1.00
C17    C     0.16653   0.29060   0.25136   0.00000  Uiso   1.00
C18    C     0.31750   0.13807   0.21973   0.00000  Uiso   1.00
C19    C     0.03199   0.13814   0.21966   0.00000  Uiso   1.00
C20    C     0.01576   0.19513   0.28027   0.00000  Uiso   1.00
C21    C     0.30204   0.19696   0.27752   0.00000  Uiso   1.00
C22    C     0.16663   0.08682   0.24959   0.00000  Uiso   1.00
C23    C     0.19246   0.16876   0.14855   0.00000  Uiso   1.00
C24    C     0.25741   0.20981   0.01269   0.00000  Uiso   1.00
C25    C     0.20639   0.17660   0.09174   0.00000  Uiso   1.00
C26    C     0.08989   0.13227   0.43076   0.00000  Uiso   1.00
C27    C     0.08781   0.11468   0.47869   0.00000  Uiso   1.00
C28    C     0.12139   0.12567   0.00294   0.00000  Uiso   1.00
H29    H     0.16149   0.29029   0.17348   0.00000  Uiso   1.00
H30    H     0.12132   0.10780   0.03678   0.00000  Uiso   1.00
H31    H     0.06084   0.09163   0.49667   0.00000  Uiso   1.00
H32    H     0.18946   0.22644   0.38205   0.00000  Uiso   1.00
N33    N     0.04760   0.16668   0.25002   0.00000  Uiso   1.00
N34    N     0.28573   0.16665   0.25001   0.00000  Uiso   1.00
O35    O     0.12846   0.22775   0.25001   0.00000  Uiso   1.00
O36    O     0.20490   0.22774   0.25001   0.00000  Uiso   1.00
O37    O     0.10947   0.16666   0.32681   0.00000  Uiso   1.00
O38    O     0.18591   0.16665   0.32681   0.00000  Uiso   1.00
O39    O     0.12843   0.10559   0.25000   0.00000  Uiso   1.00
O40    O     0.20488   0.10558   0.25000   0.00000  Uiso   1.00
O41    O     0.14742   0.16668   0.17319   0.00000  Uiso   1.00
O42    O     0.22387   0.16667   0.17319   0.00000  Uiso   1.00
Zn43   Zn    0.11562   0.16667   0.25000   0.00000  Uiso   1.00
Zn44   Zn    0.21771   0.16666   0.25000   0.00000  Uiso   1.00
Cl45   Cl    0.29328   0.20906   0.09477   0.00000  Uiso   1.00
Cl46   Cl    0.18286   0.05172   0.34683   0.00000  Uiso   1.00
O47    O     0.16154   0.04329   0.16178   0.00000  Uiso   1.00
C48    C     0.14843   0.01950   0.12318   0.00000  Uiso   1.00
H49    H     0.14292   0.04138   0.09407   0.00000  Uiso   1.00
H50    H     0.11439   0.00241   0.14072   0.00000  Uiso   1.00
H51    H     0.17736   0.33114   0.10126   0.00000  Uiso   1.00
Cl52   Cl    0.29989   0.10260   0.17764   0.00000  Uiso   1.00
Cl53   Cl    0.07111   0.10064   0.18033   0.00000  Uiso   1.00
Cl54   Cl    0.03252   0.22887   0.32442   0.00000  Uiso   1.00
O55    O     0.27259   0.22962   0.30206   0.00000  Uiso   1.00
C56    C     0.28740   0.26607   0.27186   0.00000  Uiso   1.00
H57    H     0.26249   0.29188   0.28985   0.00000  Uiso   1.00
H58    H     0.28743   0.26098   0.23044   0.00000  Uiso   1.00
H59    H     0.32298   0.27714   0.27173   0.00000  Uiso   1.00
Cl60   Cl    0.25909   0.26506   0.41499   0.00000  Uiso   1.00
O61    O     0.29791   0.23275   0.48856   0.00000  Uiso   1.00
C62    C     0.00015   0.20461   0.45986   0.00000  Uiso   1.00
H63    H     0.00908   0.18215   0.48640   0.00000  Uiso   1.00
H64    H     0.03273   0.22285   0.44023   0.00000  Uiso   1.00
H65    H     0.32283   0.18721   0.42863   0.00000  Uiso   1.00
O66    O     0.12499   0.16234   0.09471   0.00000  Uiso   1.00
C67    C     0.09968   0.20051   0.10142   0.00000  Uiso   1.00
H68    H     0.06307   0.19509   0.12790   0.00000  Uiso   1.00
H69    H     0.09700   0.21143   0.06330   0.00000  Uiso   1.00
H70    H     0.11589   0.22556   0.12024   0.00000  Uiso   1.00
O71    O     0.05493   0.12325   0.40783   0.00000  Uiso   1.00
C72    C     0.05924   0.08148   0.38805   0.00000  Uiso   1.00
H73    H     0.05752   0.05825   0.41892   0.00000  Uiso   1.00
H74    H     0.09226   0.07763   0.35441   0.00000  Uiso   1.00
H75    H     0.02925   0.07452   0.37278   0.00000  Uiso   1.00
O76    O     0.17118   0.29292   0.34032   0.00000  Uiso   1.00
C77    C     0.12468   0.28944   0.37568   0.00000  Uiso   1.00
H78    H     0.10446   0.26509   0.36115   0.00000  Uiso   1.00
H79    H     0.10538   0.31989   0.38279   0.00000  Uiso   1.00
H80    H     0.12656   0.27937   0.41436   0.00000  Uiso   1.00
C81    C     0.49992   0.24649   0.25104   0.00000  Uiso   1.00
C82    C     0.48711   0.15911   0.48408   0.00000  Uiso   1.00
C83    C     0.48974   0.17689   0.43594   0.00000  Uiso   1.00
C84    C     0.51739   0.17485   0.01182   0.00000  Uiso   1.00
C85    C     0.55608   0.20160   0.48736   0.00000  Uiso   1.00
C86    C     0.55642   0.22118   0.44060   0.00000  Uiso   1.00
C87    C     0.52278   0.20955   0.41649   0.00000  Uiso   1.00
C88    C     0.50545   0.16967   0.06602   0.00000  Uiso   1.00
C89    C     0.58323   0.19599   0.06422   0.00000  Uiso   1.00
C90    C     0.45943   0.16163   0.40800   0.00000  Uiso   1.00
C91    C     0.50255   0.31312   0.29591   0.00000  Uiso   1.00
C92    C     0.47406   0.16704   0.35132   0.00000  Uiso   1.00
C93    C     0.50544   0.02300   0.29393   0.00000  Uiso   1.00
C94    C     0.49994   0.04260   0.24987   0.00000  Uiso   1.00
C95    C     0.49565   0.02034   0.20547   0.00000  Uiso   1.00
C96    C     0.49631   0.30990   0.20672   0.00000  Uiso   1.00
C97    C     0.49986   0.29060   0.25136   0.00000  Uiso   1.00
C98    C     0.65084   0.13807   0.21973   0.00000  Uiso   1.00
C99    C     0.36532   0.13814   0.21966   0.00000  Uiso   1.00
C100   C     0.34910   0.19513   0.28027   0.00000  Uiso   1.00
C101   C     0.63537   0.19696   0.27752   0.00000  Uiso   1.00
C102   C     0.49996   0.08682   0.24959   0.00000  Uiso   1.00
C103   C     0.52579   0.16876   0.14855   0.00000  Uiso   1.00
C104   C     0.59074   0.20981   0.01269   0.00000  Uiso   1.00
C105   C     0.53972   0.17660   0.09174   0.00000  Uiso   1.00
C106   C     0.42322   0.13227   0.43076   0.00000  Uiso   1.00
C107   C     0.42115   0.11468   0.47869   0.00000  Uiso   1.00
C108   C     0.45472   0.12567   0.00294   0.00000  Uiso   1.00
H109   H     0.49482   0.29029   0.17348   0.00000  Uiso   1.00
H110   H     0.45465   0.10780   0.03678   0.00000  Uiso   1.00
H111   H     0.39417   0.09163   0.49667   0.00000  Uiso   1.00
H112   H     0.52280   0.22644   0.38205   0.00000  Uiso   1.00
N113   N     0.38093   0.16668   0.25002   0.00000  Uiso   1.00
N114   N     0.61906   0.16665   0.25001   0.00000  Uiso   1.00
O115   O     0.46179   0.22775   0.25001   0.00000  Uiso   1.00
O116   O     0.53823   0.22774   0.25001   0.00000  Uiso   1.00
O117   O     0.44280   0.16666   0.32681   0.00000  Uiso   1.00
O118   O     0.51924   0.16665   0.32681   0.00000  Uiso   1.00
O119   O     0.46177   0.10559   0.25000   0.00000  Uiso   1.00
O120   O     0.53821   0.10558   0.25000   0.00000  Uiso   1.00
O121   O     0.48076   0.16668   0.17319   0.00000  Uiso   1.00
O122   O     0.55720   0.16667   0.17319   0.00000  Uiso   1.00
Zn123  Zn    0.44896   0.16667   0.25000   0.00000  Uiso   1.00
Zn124  Zn    0.55104   0.16666   0.25000   0.00000  Uiso   1.00
Cl125  Cl    0.62661   0.20906   0.09477   0.00000  Uiso   1.00
Cl126  Cl    0.51619   0.05172   0.34683   0.00000  Uiso   1.00
O127   O     0.49487   0.04329   0.16178   0.00000  Uiso   1.00
C128   C     0.48176   0.01950   0.12318   0.00000  Uiso   1.00
H129   H     0.47626   0.04138   0.09407   0.00000  Uiso   1.00
H130   H     0.44772   0.00241   0.14072   0.00000  Uiso   1.00
H131   H     0.51069   0.33114   0.10126   0.00000  Uiso   1.00
Cl132  Cl    0.63322   0.10260   0.17764   0.00000  Uiso   1.00
Cl133  Cl    0.40444   0.10064   0.18033   0.00000  Uiso   1.00
Cl134  Cl    0.36585   0.22887   0.32442   0.00000  Uiso   1.00
O135   O     0.60593   0.22962   0.30206   0.00000  Uiso   1.00
C136   C     0.62074   0.26607   0.27186   0.00000  Uiso   1.00
H137   H     0.59582   0.29188   0.28985   0.00000  Uiso   1.00
H138   H     0.62076   0.26098   0.23044   0.00000  Uiso   1.00
H139   H     0.65631   0.27714   0.27173   0.00000  Uiso   1.00
Cl140  Cl    0.59242   0.26506   0.41499   0.00000  Uiso   1.00
O141   O     0.63124   0.23275   0.48856   0.00000  Uiso   1.00
C142   C     0.33348   0.20461   0.45986   0.00000  Uiso   1.00
H143   H     0.34242   0.18215   0.48640   0.00000  Uiso   1.00
H144   H     0.36606   0.22285   0.44023   0.00000  Uiso   1.00
H145   H     0.65616   0.18721   0.42863   0.00000  Uiso   1.00
O146   O     0.45832   0.16234   0.09471   0.00000  Uiso   1.00
C147   C     0.43301   0.20051   0.10142   0.00000  Uiso   1.00
H148   H     0.39641   0.19509   0.12790   0.00000  Uiso   1.00
H149   H     0.43034   0.21143   0.06330   0.00000  Uiso   1.00
H150   H     0.44922   0.22556   0.12024   0.00000  Uiso   1.00
O151   O     0.38826   0.12325   0.40783   0.00000  Uiso   1.00
C152   C     0.39257   0.08148   0.38805   0.00000  Uiso   1.00
H153   H     0.39085   0.05825   0.41892   0.00000  Uiso   1.00
H154   H     0.42559   0.07763   0.35441   0.00000  Uiso   1.00
H155   H     0.36259   0.07452   0.37278   0.00000  Uiso   1.00
O156   O     0.50452   0.29292   0.34032   0.00000  Uiso   1.00
C157   C     0.45801   0.28944   0.37568   0.00000  Uiso   1.00
H158   H     0.43779   0.26509   0.36115   0.00000  Uiso   1.00
H159   H     0.43872   0.31989   0.38279   0.00000  Uiso   1.00
H160   H     0.45989   0.27937   0.41436   0.00000  Uiso   1.00
C161   C     0.83325   0.24649   0.25104   0.00000  Uiso   1.00
C162   C     0.82044   0.15911   0.48408   0.00000  Uiso   1.00
C163   C     0.82307   0.17689   0.43594   0.00000  Uiso   1.00
C164   C     0.85072   0.17485   0.01182   0.00000  Uiso   1.00
C165   C     0.88941   0.20160   0.48736   0.00000  Uiso   1.00
C166   C     0.88976   0.22118   0.44060   0.00000  Uiso   1.00
C167   C     0.85611   0.20955   0.41649   0.00000  Uiso   1.00
C168   C     0.83878   0.16967   0.06602   0.00000  Uiso   1.00
C169   C     0.91657   0.19599   0.06422   0.00000  Uiso   1.00
C170   C     0.79277   0.16163   0.40800   0.00000  Uiso   1.00
C171   C     0.83589   0.31312   0.29591   0.00000  Uiso   1.00
C172   C     0.80739   0.16704   0.35132   0.00000  Uiso   1.00
C173   C     0.83877   0.02300   0.29393   0.00000  Uiso   1.00
C174   C     0.83327   0.04260   0.24987   0.00000  Uiso   1.00
C175   C     0.82898   0.02034   0.20547   0.00000  Uiso   1.00
C176   C     0.82964   0.30990   0.20672   0.00000  Uiso   1.00
C177   C     0.83320   0.29060   0.25136   0.00000  Uiso   1.00
C178   C     0.98417   0.13807   0.21973   0.00000  Uiso   1.00
C179   C     0.69866   0.13814   0.21966   0.00000  Uiso   1.00
C180   C     0.68243   0.19513   0.28027   0.00000  Uiso   1.00
C181   C     0.96870   0.19696   0.27752   0.00000  Uiso   1.00
C182   C     0.83329   0.08682   0.24959   0.00000  Uiso   1.00
C183   C     0.85912   0.16876   0.14855   0.00000  Uiso   1.00
C184   C     0.92408   0.20981   0.01269   0.00000  Uiso   1.00
C185   C     0.87306   0.17660   0.09174   0.00000  Uiso   1.00
C186   C     0.75655   0.13227   0.43076   0.00000  Uiso   1.00
C187   C     0.75448   0.11468   0.47869   0.00000  Uiso   1.00
C188   C     0.78805   0.12567   0.00294   0.00000  Uiso   1.00
H189   H     0.82815   0.29029   0.17348   0.00000  Uiso   1.00
H190   H     0.78798   0.10780   0.03678   0.00000  Uiso   1.00
H191   H     0.72751   0.09163   0.49667   0.00000  Uiso   1.00
H192   H     0.85613   0.22644   0.38205   0.00000  Uiso   1.00
N193   N     0.71426   0.16668   0.25002   0.00000  Uiso   1.00
N194   N     0.95239   0.16665   0.25001   0.00000  Uiso   1.00
O195   O     0.79512   0.22775   0.25001   0.00000  Uiso   1.00
O196   O     0.87157   0.22774   0.25001   0.00000  Uiso   1.00
O197   O     0.77613   0.16666   0.32681   0.00000  Uiso   1.00
O198   O     0.85258   0.16665   0.32681   0.00000  Uiso   1.00
O199   O     0.79510   0.10559   0.25000   0.00000  Uiso   1.00
O200   O     0.87154   0.10558   0.25000   0.00000  Uiso   1.00
O201   O     0.81409   0.16668   0.17319   0.00000  Uiso   1.00
O202   O     0.89053   0.16667   0.17319   0.00000  Uiso   1.00
Zn203  Zn    0.78229   0.16667   0.25000   0.00000  Uiso   1.00
Zn204  Zn    0.88438   0.16666   0.25000   0.00000  Uiso   1.00
Cl205  Cl    0.95995   0.20906   0.09477   0.00000  Uiso   1.00
Cl206  Cl    0.84953   0.05172   0.34683   0.00000  Uiso   1.00
O207   O     0.82821   0.04329   0.16178   0.00000  Uiso   1.00
C208   C     0.81509   0.01950   0.12318   0.00000  Uiso   1.00
H209   H     0.80959   0.04138   0.09407   0.00000  Uiso   1.00
H210   H     0.78106   0.00241   0.14072   0.00000  Uiso   1.00
H211   H     0.84402   0.33114   0.10126   0.00000  Uiso   1.00
Cl212  Cl    0.96655   0.10260   0.17764   0.00000  Uiso   1.00
Cl213  Cl    0.73778   0.10064   0.18033   0.00000  Uiso   1.00
Cl214  Cl    0.69918   0.22887   0.32442   0.00000  Uiso   1.00
O215   O     0.93926   0.22962   0.30206   0.00000  Uiso   1.00
C216   C     0.95407   0.26607   0.27186   0.00000  Uiso   1.00
H217   H     0.92916   0.29188   0.28985   0.00000  Uiso   1.00
H218   H     0.95409   0.26098   0.23044   0.00000  Uiso   1.00
H219   H     0.98964   0.27714   0.27173   0.00000  Uiso   1.00
Cl220  Cl    0.92575   0.26506   0.41499   0.00000  Uiso   1.00
O221   O     0.96458   0.23275   0.48856   0.00000  Uiso   1.00
C222   C     0.66681   0.20461   0.45986   0.00000  Uiso   1.00
H223   H     0.67575   0.18215   0.48640   0.00000  Uiso   1.00
H224   H     0.69940   0.22285   0.44023   0.00000  Uiso   1.00
H225   H     0.98949   0.18721   0.42863   0.00000  Uiso   1.00
O226   O     0.79166   0.16234   0.09471   0.00000  Uiso   1.00
C227   C     0.76635   0.20051   0.10142   0.00000  Uiso   1.00
H228   H     0.72974   0.19509   0.12790   0.00000  Uiso   1.00
H229   H     0.76367   0.21143   0.06330   0.00000  Uiso   1.00
H230   H     0.78256   0.22556   0.12024   0.00000  Uiso   1.00
O231   O     0.72160   0.12325   0.40783   0.00000  Uiso   1.00
C232   C     0.72591   0.08148   0.38805   0.00000  Uiso   1.00
H233   H     0.72418   0.05825   0.41892   0.00000  Uiso   1.00
H234   H     0.75892   0.07763   0.35441   0.00000  Uiso   1.00
H235   H     0.69592   0.07452   0.37278   0.00000  Uiso   1.00
O236   O     0.83785   0.29292   0.34032   0.00000  Uiso   1.00
C237   C     0.79135   0.28944   0.37568   0.00000  Uiso   1.00
H238   H     0.77113   0.26509   0.36115   0.00000  Uiso   1.00
H239   H     0.77205   0.31989   0.38279   0.00000  Uiso   1.00
H240   H     0.79322   0.27937   0.41436   0.00000  Uiso   1.00
C241   C     0.16658   0.57982   0.25104   0.00000  Uiso   1.00
C242   C     0.15377   0.49244   0.48408   0.00000  Uiso   1.00
C243   C     0.15641   0.51022   0.43594   0.00000  Uiso   1.00
C244   C     0.18405   0.50818   0.01182   0.00000  Uiso   1.00
C245   C     0.22275   0.53494   0.48736   0.00000  Uiso   1.00
C246   C     0.22309   0.55451   0.44060   0.00000  Uiso   1.00
C247   C     0.18944   0.54289   0.41649   0.00000  Uiso   1.00
C248   C     0.17211   0.50300   0.06602   0.00000  Uiso   1.00
C249   C     0.24990   0.52932   0.06422   0.00000  Uiso   1.00
C250   C     0.12610   0.49496   0.40800   0.00000  Uiso   1.00
C251   C     0.16922   0.64645   0.29591   0.00000  Uiso   1.00
C252   C     0.14072   0.50038   0.35132   0.00000  Uiso   1.00
C253   C     0.17210   0.35634   0.29393   0.00000  Uiso   1.00
C254   C     0.16661   0.37593   0.24987   0.00000  Uiso   1.00
C255   C     0.16231   0.35367   0.20547   0.00000  Uiso   1.00
C256   C     0.16298   0.64324   0.20672   0.00000  Uiso   1.00
C257   C     0.16653   0.62393   0.25136   0.00000  Uiso   1.00
C258   C     0.31750   0.47140   0.21973   0.00000  Uiso   1.00
C259   C     0.03199   0.47148   0.21966   0.00000  Uiso   1.00
C260   C     0.01576   0.52847   0.28027   0.00000  Uiso   1.00
C261   C     0.30204   0.53029   0.27752   0.00000  Uiso   1.00
C262   C     0.16663   0.42015   0.24959   0.00000  Uiso   1.00
C263   C     0.19246   0.50210   0.14855   0.00000  Uiso   1.00
C264   C     0.25741   0.54314   0.01269   0.00000  Uiso   1.00
C265   C     0.20639   0.50994   0.09174   0.00000  Uiso   1.00
C266   C     0.08989   0.46560   0.43076   0.00000  Uiso   1.00
C267   C     0.08781   0.44801   0.47869   0.00000  Uiso   1.00
C268   C     0.12139   0.45900   0.00294   0.00000  Uiso   1.00
H269   H     0.16149   0.62362   0.17348   0.00000  Uiso   1.00
H270   H     0.12132   0.44113   0.03678   0.00000  Uiso   1.00
H271   H     0.06084   0.42496   0.49667   0.00000  Uiso   1.00
H272   H     0.18946   0.55977   0.38205   0.00000  Uiso   1.00
N273   N     0.04760   0.50001   0.25002   0.00000  Uiso   1.00
N274   N     0.28573   0.49998   0.25001   0.00000  Uiso   1.00
O275   O     0.12846   0.56108   0.25001   0.00000  Uiso   1.00
O276   O     0.20490   0.56107   0.25001   0.00000  Uiso   1.00
O277   O     0.10947   0.50000   0.32681   0.00000  Uiso   1.00
O278   O     0.18591   0.49999   0.32681   0.00000  Uiso   1.00
O279   O     0.12843   0.43893   0.25000   0.00000  Uiso   1.00
O280   O     0.20488   0.43892   0.25000   0.00000  Uiso   1.00
O281   O     0.14742   0.50001   0.17319   0.00000  Uiso   1.00
O282   O     0.22387   0.50000   0.17319   0.00000  Uiso   1.00
Zn283  Zn    0.11562   0.50001   0.25000   0.00000  Uiso   1.00
Zn284  Zn    0.21771   0.49999   0.25000   0.00000  Uiso   1.00
Cl285  Cl    0.29328   0.54239   0.09477   0.00000  Uiso   1.00
Cl286  Cl    0.18286   0.38506   0.34683   0.00000  Uiso   1.00
O287   O     0.16154   0.37663   0.16178   0.00000  Uiso   1.00
C288   C     0.14843   0.35283   0.12318   0.00000  Uiso   1.00
H289   H     0.14292   0.37472   0.09407   0.00000  Uiso   1.00
H290   H     0.11439   0.33575   0.14072   0.00000  Uiso   1.00
H291   H     0.17736   0.66447   0.10126   0.00000  Uiso   1.00
Cl292  Cl    0.29989   0.43594   0.17764   0.00000  Uiso   1.00
Cl293  Cl    0.07111   0.43397   0.18033   0.00000  Uiso   1.00
Cl294  Cl    0.03252   0.56220   0.32442   0.00000  Uiso   1.00
O295   O     0.27259   0.56296   0.30206   0.00000  Uiso   1.00
C296   C     0.28740   0.59940   0.27186   0.00000  Uiso   1.00
H297   H     0.26249   0.62521   0.28985   0.00000  Uiso   1.00
H298   H     0.28743   0.59431   0.23044   0.00000  Uiso   1.00
H299   H     0.32298   0.61048   0.27173   0.00000  Uiso   1.00
Cl300  Cl    0.25909   0.59840   0.41499   0.00000  Uiso   1.00
O301   O     0.29791   0.56608   0.48856   0.00000  Uiso   1.00
C302   C     0.00015   0.53794   0.45986   0.00000  Uiso   1.00
H303   H     0.00908   0.51548   0.48640   0.00000  Uiso   1.00
H304   H     0.03273   0.55618   0.44023   0.00000  Uiso   1.00
H305   H     0.32283   0.52054   0.42863   0.00000  Uiso   1.00
O306   O     0.12499   0.49567   0.09471   0.00000  Uiso   1.00
C307   C     0.09968   0.53384   0.10142   0.00000  Uiso   1.00
H308   H     0.06307   0.52842   0.12790   0.00000  Uiso   1.00
H309   H     0.09700   0.54476   0.06330   0.00000  Uiso   1.00
H310   H     0.11589   0.55890   0.12024   0.00000  Uiso   1.00
O311   O     0.05493   0.45659   0.40783   0.00000  Uiso   1.00
C312   C     0.05924   0.41481   0.38805   0.00000  Uiso   1.00
H313   H     0.05752   0.39158   0.41892   0.00000  Uiso   1.00
H314   H     0.09226   0.41097   0.35441   0.00000  Uiso   1.00
H315   H     0.02925   0.40785   0.37278   0.00000  Uiso   1.00
O316   O     0.17118   0.62626   0.34032   0.00000  Uiso   1.00
C317   C     0.12468   0.62277   0.37568   0.00000  Uiso   1.00
H318   H     0.10446   0.59842   0.36115   0.00000  Uiso   1.00
H319   H     0.10538   0.65323   0.38279   0.00000  Uiso   1.00
H320   H     0.12656   0.61270   0.41436   0.00000  Uiso   1.00
C321   C     0.49992   0.57982   0.25104   0.00000  Uiso   1.00
C322   C     0.48711   0.49244   0.48408   0.00000  Uiso   1.00
C323   C     0.48974   0.51022   0.43594   0.00000  Uiso   1.00
C324   C     0.51739   0.50818   0.01182   0.00000  Uiso   1.00
C325   C     0.55608   0.53494   0.48736   0.00000  Uiso   1.00
C326   C     0.55642   0.55451   0.44060   0.00000  Uiso   1.00
C327   C     0.52278   0.54289   0.41649   0.00000  Uiso   1.00
C328   C     0.50545   0.50300   0.06602   0.00000  Uiso   1.00
C329   C     0.58323   0.52932   0.06422   0.00000  Uiso   1.00
C330   C     0.45943   0.49496   0.40800   0.00000  Uiso   1.00
C331   C     0.50255   0.64645   0.29591   0.00000  Uiso   1.00
C332   C     0.47406   0.50038   0.35132   0.00000  Uiso   1.00
C333   C     0.50544   0.35634   0.29393   0.00000  Uiso   1.00
C334   C     0.49994   0.37593   0.24987   0.00000  Uiso   1.00
C335   C     0.49565   0.35367   0.20547   0.00000  Uiso   1.00
C336   C     0.49631   0.64324   0.20672   0.00000  Uiso   1.00
C337   C     0.49986   0.62393   0.25136   0.00000  Uiso   1.00
C338   C     0.65084   0.47140   0.21973   0.00000  Uiso   1.00
C339   C     0.36532   0.47148   0.21966   0.00000  Uiso   1.00
C340   C     0.34910   0.52847   0.28027   0.00000  Uiso   1.00
C341   C     0.63537   0.53029   0.27752   0.00000  Uiso   1.00
C342   C     0.49996   0.42015   0.24959   0.00000  Uiso   1.00
C343   C     0.52579   0.50210   0.14855   0.00000  Uiso   1.00
C344   C     0.59074   0.54314   0.01269   0.00000  Uiso   1.00
C345   C     0.53972   0.50994   0.09174   0.00000  Uiso   1.00
C346   C     0.42322   0.46560   0.43076   0.00000  Uiso   1.00
C347   C     0.42115   0.44801   0.47869   0.00000  Uiso   1.00
C348   C     0.45472   0.45900   0.00294   0.00000  Uiso   1.00
H349   H     0.49482   0.62362   0.17348   0.00000  Uiso   1.00
H350   H     0.45465   0.44113   0.03678   0.00000  Uiso   1.00
H351   H     0.39417   0.42496   0.49667   0.00000  Uiso   1.00
H352   H     0.52280   0.55977   0.38205   0.00000  Uiso   1.00
N353   N     0.38093   0.50001   0.25002   0.00000  Uiso   1.00
N354   N     0.61906   0.49998   0.25001   0.00000  Uiso   1.00
O355   O     0.46179   0.56108   0.25001   0.00000  Uiso   1.00
O356   O     0.53823   0.56107   0.25001   0.00000  Uiso   1.00
O357   O     0.44280   0.50000   0.32681   0.00000  Uiso   1.00
O358   O     0.51924   0.49999   0.32681   0.00000  Uiso   1.00
O359   O     0.46177   0.43893   0.25000   0.00000  Uiso   1.00
O360   O     0.53821   0.43892   0.25000   0.00000  Uiso   1.00
O361   O     0.48076   0.50001   0.17319   0.00000  Uiso   1.00
O362   O     0.55720   0.50000   0.17319   0.00000  Uiso   1.00
Zn363  Zn    0.44896   0.50001   0.25000   0.00000  Uiso   1.00
Zn364  Zn    0.55104   0.49999   0.25000   0.00000  Uiso   1.00
Cl365  Cl    0.62661   0.54239   0.09477   0.00000  Uiso   1.00
Cl366  Cl    0.51619   0.38506   0.34683   0.00000  Uiso   1.00
O367   O     0.49487   0.37663   0.16178   0.00000  Uiso   1.00
C368   C     0.48176   0.35283   0.12318   0.00000  Uiso   1.00
H369   H     0.47626   0.37472   0.09407   0.00000  Uiso   1.00
H370   H     0.44772   0.33575   0.14072   0.00000  Uiso   1.00
H371   H     0.51069   0.66447   0.10126   0.00000  Uiso   1.00
Cl372  Cl    0.63322   0.43594   0.17764   0.00000  Uiso   1.00
Cl373  Cl    0.40444   0.43397   0.18033   0.00000  Uiso   1.00
Cl374  Cl    0.36585   0.56220   0.32442   0.00000  Uiso   1.00
O375   O     0.60593   0.56296   0.30206   0.00000  Uiso   1.00
C376   C     0.62074   0.59940   0.27186   0.00000  Uiso   1.00
H377   H     0.59582   0.62521   0.28985   0.00000  Uiso   1.00
H378   H     0.62076   0.59431   0.23044   0.00000  Uiso   1.00
H379   H     0.65631   0.61048   0.27173   0.00000  Uiso   1.00
Cl380  Cl    0.59242   0.59840   0.41499   0.00000  Uiso   1.00
O381   O     0.63124   0.56608   0.48856   0.00000  Uiso   1.00
C382   C     0.33348   0.53794   0.45986   0.00000  Uiso   1.00
H383   H     0.34242   0.51548   0.48640   0.00000  Uiso   1.00
H384   H     0.36606   0.55618   0.44023   0.00000  Uiso   1.00
H385   H     0.65616   0.52054   0.42863   0.00000  Uiso   1.00
O386   O     0.45832   0.49567   0.09471   0.00000  Uiso   1.00
C387   C     0.43301   0.53384   0.10142   0.00000  Uiso   1.00
H388   H     0.39641   0.52842   0.12790   0.00000  Uiso   1.00
H389   H     0.43034   0.54476   0.06330   0.00000  Uiso   1.00
H390   H     0.44922   0.55890   0.12024   0.00000  Uiso   1.00
O391   O     0.38826   0.45659   0.40783   0.00000  Uiso   1.00
C392   C     0.39257   0.41481   0.38805   0.00000  Uiso   1.00
H393   H     0.39085   0.39158   0.41892   0.00000  Uiso   1.00
H394   H     0.42559   0.41097   0.35441   0.00000  Uiso   1.00
H395   H     0.36259   0.40785   0.37278   0.00000  Uiso   1.00
O396   O     0.50452   0.62626   0.34032   0.00000  Uiso   1.00
C397   C     0.45801   0.62277   0.37568   0.00000  Uiso   1.00
H398   H     0.43779   0.59842   0.36115   0.00000  Uiso   1.00
H399   H     0.43872   0.65323   0.38279   0.00000  Uiso   1.00
H400   H     0.45989   0.61270   0.41436   0.00000  Uiso   1.00
C401   C     0.83325   0.57982   0.25104   0.00000  Uiso   1.00
C402   C     0.82044   0.49244   0.48408   0.00000  Uiso   1.00
C403   C     0.82307   0.51022   0.43594   0.00000  Uiso   1.00
C404   C     0.85072   0.50818   0.01182   0.00000  Uiso   1.00
C405   C     0.88941   0.53494   0.48736   0.00000  Uiso   1.00
C406   C     0.88976   0.55451   0.44060   0.00000  Uiso   1.00
C407   C     0.85611   0.54289   0.41649   0.00000  Uiso   1.00
C408   C     0.83878   0.50300   0.06602   0.00000  Uiso   1.00
C409   C     0.91657   0.52932   0.06422   0.00000  Uiso   1.00
C410   C     0.79277   0.49496   0.40800   0.00000  Uiso   1.00
C411   C     0.83589   0.64645   0.29591   0.00000  Uiso   1.00
C412   C     0.80739   0.50038   0.35132   0.00000  Uiso   1.00
C413   C     0.83877   0.35634   0.29393   0.00000  Uiso   1.00
C414   C     0.83327   0.37593   0.24987   0.00000  Uiso   1.00
C415   C     0.82898   0.35367   0.20547   0.00000  Uiso   1.00
C416   C     0.82964   0.64324   0.20672   0.00000  Uiso   1.00
C417   C     0.83320   0.62393   0.25136   0.00000  Uiso   1.00
C418   C     0.98417   0.47140   0.21973   0.00000  Uiso   1.00
C419   C     0.69866   0.47148   0.21966   0.00000  Uiso   1.00
C420   C     0.68243   0.52847   0.28027   0.00000  Uiso   1.00
C421   C     0.96870   0.53029   0.27752   0.00000  Uiso   1.00
C422   C     0.83329   0.42015   0.24959   0.00000  Uiso   1.00
C423   C     0.85912   0.50210   0.14855   0.00000  Uiso   1.00
C424   C     0.92408   0.54314   0.01269   0.00000  Uiso   1.00
C425   C     0.87306   0.50994   0.09174   0.00000  Uiso   1.00
C426   C     0.75655   0.46560   0.43076   0.00000  Uiso   1.00
C427   C     0.75448   0.44801   0.47869   0.00000  Uiso   1.00
C428   C     0.78805   0.45900   0.00294   0.00000  Uiso   1.00
H429   H     0.82815   0.62362   0.17348   0.00000  Uiso   1.00
H430   H     0.78798   0.44113   0.03678   0.00000  Uiso   1.00
H431   H     0.72751   0.42496   0.49667   0.00000  Uiso   1.00
H432   H     0.85613   0.55977   0.38205   0.00000  Uiso   1.00
N433   N     0.71426   0.50001   0.25002   0.00000  Uiso   1.00
N434   N     0.95239   0.49998   0.25001   0.00000  Uiso   1.00
O435   O     0.79512   0.56108   0.25001   0.00000  Uiso   1.00
O436   O     0.87157   0.56107   0.25001   0.00000  Uiso   1.00
O437   O     0.77613   0.50000   0.32681   0.00000  Uiso   1.00
O438   O     0.85258   0.49999   0.32681   0.00000  Uiso   1.00
O439   O     0.79510   0.43893   0.25000   0.00000  Uiso   1.00
O440   O     0.87154   0.43892   0.25000   0.00000  Uiso   1.00
O441   O     0.81409   0.50001   0.17319   0.00000  Uiso   1.00
O442   O     0.89053   0.50000   0.17319   0.00000  Uiso   1.00
Zn443  Zn    0.78229   0.50001   0.25000   0.00000  Uiso   1.00
Zn444  Zn    0.88438   0.49999   0.25000   0.00000  Uiso   1.00
Cl445  Cl    0.95995   0.54239   0.09477   0.00000  Uiso   1.00
Cl446  Cl    0.84953   0.38506   0.34683   0.00000  Uiso   1.00
O447   O     0.82821   0.37663   0.16178   0.00000  Uiso   1.00
C448   C     0.81509   0.35283   0.12318   0.00000  Uiso   1.00
H449   H     0.80959   0.37472   0.09407   0.00000  Uiso   1.00
H450   H     0.78106   0.33575   0.14072   0.00000  Uiso   1.00
H451   H     0.84402   0.66447   0.10126   0.00000  Uiso   1.00
Cl452  Cl    0.96655   0.43594   0.17764   0.00000  Uiso   1.00
Cl453  Cl    0.73778   0.43397   0.18033   0.00000  Uiso   1.00
Cl454  Cl    0.69918   0.56220   0.32442   0.00000  Uiso   1.00
O455   O     0.93926   0.56296   0.30206   0.00000  Uiso   1.00
C456   C     0.95407   0.59940   0.27186   0.00000  Uiso   1.00
H457   H     0.92916   0.62521   0.28985   0.00000  Uiso   1.00
H458   H     0.95409   0.59431   0.23044   0.00000  Uiso   1.00
H459   H     0.98964   0.61048   0.27173   0.00000  Uiso   1.00
Cl460  Cl    0.92575   0.59840   0.41499   0.00000  Uiso   1.00
O461   O     0.96458   0.56608   0.48856   0.00000  Uiso   1.00
C462   C     0.66681   0.53794   0.45986   0.00000  Uiso   1.00
H463   H     0.67575   0.51548   0.48640   0.00000  Uiso   1.00
H464   H     0.69940   0.55618   0.44023   0.00000  Uiso   1.00
H465   H     0.98949   0.52054   0.42863   0.00000  Uiso   1.00
O466   O     0.79166   0.49567   0.09471   0.00000  Uiso   1.00
C467   C     0.76635   0.53384   0.10142   0.00000  Uiso   1.00
H468   H     0.72974   0.52842   0.12790   0.00000  Uiso   1.00
H469   H     0.76367   0.54476   0.06330   0.00000  Uiso   1.00
H470   H     0.78256   0.55890   0.12024   0.00000  Uiso   1.00
O471   O     0.72160   0.45659   0.40783   0.00000  Uiso   1.00
C472   C     0.72591   0.41481   0.38805   0.00000  Uiso   1.00
H473   H     0.72418   0.39158   0.41892   0.00000  Uiso   1.00
H474   H     0.75892   0.41097   0.35441   0.00000  Uiso   1.00
H475   H     0.69592   0.40785   0.37278   0.00000  Uiso   1.00
O476   O     0.83785   0.62626   0.34032   0.00000  Uiso   1.00
C477   C     0.79135   0.62277   0.37568   0.00000  Uiso   1.00
H478   H     0.77113   0.59842   0.36115   0.00000  Uiso   1.00
H479   H     0.77205   0.65323   0.38279   0.00000  Uiso   1.00
H480   H     0.79322   0.61270   0.41436   0.00000  Uiso   1.00
C481   C     0.16658   0.91316   0.25104   0.00000  Uiso   1.00
C482   C     0.15377   0.82577   0.48408   0.00000  Uiso   1.00
C483   C     0.15641   0.84356   0.43594   0.00000  Uiso   1.00
C484   C     0.18405   0.84152   0.01182   0.00000  Uiso   1.00
C485   C     0.22275   0.86827   0.48736   0.00000  Uiso   1.00
C486   C     0.22309   0.88785   0.44060   0.00000  Uiso   1.00
C487   C     0.18944   0.87622   0.41649   0.00000  Uiso   1.00
C488   C     0.17211   0.83633   0.06602   0.00000  Uiso   1.00
C489   C     0.24990   0.86266   0.06422   0.00000  Uiso   1.00
C490   C     0.12610   0.82830   0.40800   0.00000  Uiso   1.00
C491   C     0.16922   0.97979   0.29591   0.00000  Uiso   1.00
C492   C     0.14072   0.83371   0.35132   0.00000  Uiso   1.00
C493   C     0.17210   0.68967   0.29393   0.00000  Uiso   1.00
C494   C     0.16661   0.70927   0.24987   0.00000  Uiso   1.00
C495   C     0.16231   0.68701   0.20547   0.00000  Uiso   1.00
C496   C     0.16298   0.97657   0.20672   0.00000  Uiso   1.00
C497   C     0.16653   0.95727   0.25136   0.00000  Uiso   1.00
C498   C     0.31750   0.80474   0.21973   0.00000  Uiso   1.00
C499   C     0.03199   0.80481   0.21966   0.00000  Uiso   1.00
C500   C     0.01576   0.86180   0.28027   0.00000  Uiso   1.00
C501   C     0.30204   0.86362   0.27752   0.00000  Uiso   1.00
C502   C     0.16663   0.75349   0.24959   0.00000  Uiso   1.00
C503   C     0.19246   0.83543   0.14855   0.00000  Uiso   1.00
C504   C     0.25741   0.87648   0.01269   0.00000  Uiso   1.00
C505   C     0.20639   0.84327   0.09174   0.00000  Uiso   1.00
C506   C     0.08989   0.79894   0.43076   0.00000  Uiso   1.00
C507   C     0.08781   0.78134   0.47869   0.00000  Uiso   1.00
C508   C     0.12139   0.79234   0.00294   0.00000  Uiso   1.00
H509   H     0.16149   0.95696   0.17348   0.00000  Uiso   1.00
H510   H     0.12132   0.77447   0.03678   0.00000  Uiso   1.00
H511   H     0.06084   0.75829   0.49667   0.00000  Uiso   1.00
H512   H     0.18946   0.89311   0.38205   0.00000  Uiso   1.00
N513   N     0.04760   0.83334   0.25002   0.00000  Uiso   1.00
N514   N     0.28573   0.83331   0.25001   0.00000  Uiso   1.00
O515   O     0.12846   0.89442   0.25001   0.00000  Uiso   1.00
O516   O     0.20490   0.89441   0.25001   0.00000  Uiso   1.00
O517   O     0.10947   0.83333   0.32681   0.00000  Uiso   1.00
O518   O     0.18591   0.83332   0.32681   0.00000  Uiso   1.00
O519   O     0.12843   0.77226   0.25000   0.00000  Uiso   1.00
O520   O     0.20488   0.77225   0.25000   0.00000  Uiso   1.00
O521   O     0.14742   0.83335   0.17319   0.00000  Uiso   1.00
O522   O     0.22387   0.83334   0.17319   0.00000  Uiso   1.00
Zn523  Zn    0.11562   0.83334   0.25000   0.00000  Uiso   1.00
Zn524  Zn    0.21771   0.83333   0.25000   0.00000  Uiso   1.00
Cl525  Cl    0.29328   0.87572   0.09477   0.00000  Uiso   1.00
Cl526  Cl    0.18286   0.71839   0.34683   0.00000  Uiso   1.00
O527   O     0.16154   0.70996   0.16178   0.00000  Uiso   1.00
C528   C     0.14843   0.68617   0.12318   0.00000  Uiso   1.00
H529   H     0.14292   0.70805   0.09407   0.00000  Uiso   1.00
H530   H     0.11439   0.66908   0.14072   0.00000  Uiso   1.00
H531   H     0.17736   0.99780   0.10126   0.00000  Uiso   1.00
Cl532  Cl    0.29989   0.76927   0.17764   0.00000  Uiso   1.00
Cl533  Cl    0.07111   0.76731   0.18033   0.00000  Uiso   1.00
Cl534  Cl    0.03252   0.89553   0.32442   0.00000  Uiso   1.00
O535   O     0.27259   0.89629   0.30206   0.00000  Uiso   1.00
C536   C     0.28740   0.93273   0.27186   0.00000  Uiso   1.00
H537   H     0.26249   0.95854   0.28985   0.00000  Uiso   1.00
H538   H     0.28743   0.92765   0.23044   0.00000  Uiso   1.00
H539   H     0.32298   0.94381   0.27173   0.00000  Uiso   1.00
Cl540  Cl    0.25909   0.93173   0.41499   0.00000  Uiso   1.00
O541   O     0.29791   0.89942   0.48856   0.00000  Uiso   1.00
C542   C     0.00015   0.87128   0.45986   0.00000  Uiso   1.00
H543   H     0.00908   0.84882   0.48640   0.00000  Uiso   1.00
H544   H     0.03273   0.88951   0.44023   0.00000  Uiso   1.00
H545   H     0.32283   0.85388   0.42863   0.00000  Uiso   1.00
O546   O     0.12499   0.82901   0.09471   0.00000  Uiso   1.00
C547   C     0.09968   0.86718   0.10142   0.00000  Uiso   1.00
H548   H     0.06307   0.86176   0.12790   0.00000  Uiso   1.00
H549   H     0.09700   0.87810   0.06330   0.00000  Uiso   1.00
H550   H     0.11589   0.89223   0.12024   0.00000  Uiso   1.00
O551   O     0.05493   0.78992   0.40783   0.00000  Uiso   1.00
C552   C     0.05924   0.74814   0.38805   0.00000  Uiso   1.00
H553   H     0.05752   0.72492   0.41892   0.00000  Uiso   1.00
H554   H     0.09226   0.74430   0.35441   0.00000  Uiso   1.00
H555   H     0.02925   0.74119   0.37278   0.00000  Uiso   1.00
O556   O     0.17118   0.95959   0.34032   0.00000  Uiso   1.00
C557   C     0.12468   0.95610   0.37568   0.00000  Uiso   1.00
H558   H     0.10446   0.93176   0.36115   0.00000  Uiso   1.00
H559   H     0.10538   0.98656   0.38279   0.00000  Uiso   1.00
H560   H     0.12656   0.94603   0.41436   0.00000  Uiso   1.00
C561   C     0.49992   0.91316   0.25104   0.00000  Uiso   1.00
C562   C     0.48711   0.82577   0.48408   0.00000  Uiso   1.00
C563   C     0.48974   0.84356   0.43594   0.00000  Uiso   1.00
C564   C     0.51739   0.84152   0.01182   0.00000  Uiso   1.00
C565   C     0.55608   0.86827   0.48736   0.00000  Uiso   1.00
C566   C     0.55642   0.88785   0.44060   0.00000  Uiso   1.00
C567   C     0.52278   0.87622   0.41649   0.00000  Uiso   1.00
C568   C     0.50545   0.83633   0.06602   0.00000  Uiso   1.00
C569   C     0.58323   0.86266   0.06422   0.00000  Uiso   1.00
C570   C     0.45943   0.82830   0.40800   0.00000  Uiso   1.00
C571   C     0.50255   0.97979   0.29591   0.00000  Uiso   1.00
C572   C     0.47406   0.83371   0.35132   0.00000  Uiso   1.00
C573   C     0.50544   0.68967   0.29393   0.00000  Uiso   1.00
C574   C     0.49994   0.70927   0.24987   0.00000  Uiso   1.00
C575   C     0.49565   0.68701   0.20547   0.00000  Uiso   1.00
C576   C     0.49631   0.97657   0.20672   0.00000  Uiso   1.00
C577   C     0.49986   0.95727   0.25136   0.00000  Uiso   1.00
C578   C     0.65084   0.80474   0.21973   0.00000  Uiso   1.00
C579   C     0.36532   0.80481   0.21966   0.00000  Uiso   1.00
C580   C     0.34910   0.86180   0.28027   0.00000  Uiso   1.00
C581   C     0.63537   0.86362   0.27752   0.00000  Uiso   1.00
C582   C     0.49996   0.75349   0.24959   0.00000  Uiso   1.00
C583   C     0.52579   0.83543   0.14855   0.00000  Uiso   1.00
C584   C     0.59074   0.87648   0.01269   0.00000  Uiso   1.00
C585   C     0.53972   0.84327   0.09174   0.00000  Uiso   1.00
C586   C     0.42322   0.79894   0.43076   0.00000  Uiso   1.00
C587   C     0.42115   0.78134   0.47869   0.00000  Uiso   1.00
C588   C     0.45472   0.79234   0.00294   0.00000  Uiso   1.00
H589   H     0.49482   0.95696   0.17348   0.00000  Uiso   1.00
H590   H     0.45465   0.77447   0.03678   0.00000  Uiso   1.00
H591   H     0.39417   0.75829   0.49667   0.00000  Uiso   1.00
H592   H     0.52280   0.89311   0.38205   0.00000  Uiso   1.00
N593   N     0.38093   0.83334   0.25002   0.00000  Uiso   1.00
N594   N     0.61906   0.83331   0.25001   0.00000  Uiso   1.00
O595   O     0.46179   0.89442   0.25001   0.00000  Uiso   1.00
O596   O     0.53823   0.89441   0.25001   0.00000  Uiso   1.00
O597   O     0.44280   0.83333   0.32681   0.00000  Uiso   1.00
O598   O     0.51924   0.83332   0.32681   0.00000  Uiso   1.00
O599   O     0.46177   0.77226   0.25000   0.00000  Uiso   1.00
O600   O     0.53821   0.77225   0.25000   0.00000  Uiso   1.00
O601   O     0.48076   0.83335   0.17319   0.00000  Uiso   1.00
O602   O     0.55720   0.83334   0.17319   0.00000  Uiso   1.00
Zn603  Zn    0.44896   0.83334   0.25000   0.00000  Uiso   1.00
Zn604  Zn    0.55104   0.83333   0.25000   0.00000  Uiso   1.00
Cl605  Cl    0.62661   0.87572   0.09477   0.00000  Uiso   1.00
Cl606  Cl    0.51619   0.71839   0.34683   0.00000  Uiso   1.00
O607   O     0.49487   0.70996   0.16178   0.00000  Uiso   1.00
C608   C     0.48176   0.68617   0.12318   0.00000  Uiso   1.00
H609   H     0.47626   0.70805   0.09407   0.00000  Uiso   1.00
H610   H     0.44772   0.66908   0.14072   0.00000  Uiso   1.00
H611   H     0.51069   0.99780   0.10126   0.00000  Uiso   1.00
Cl612  Cl    0.63322   0.76927   0.17764   0.00000  Uiso   1.00
Cl613  Cl    0.40444   0.76731   0.18033   0.00000  Uiso   1.00
Cl614  Cl    0.36585   0.89553   0.32442   0.00000  Uiso   1.00
O615   O     0.60593   0.89629   0.30206   0.00000  Uiso   1.00
C616   C     0.62074   0.93273   0.27186   0.00000  Uiso   1.00
H617   H     0.59582   0.95854   0.28985   0.00000  Uiso   1.00
H618   H     0.62076   0.92765   0.23044   0.00000  Uiso   1.00
H619   H     0.65631   0.94381   0.27173   0.00000  Uiso   1.00
Cl620  Cl    0.59242   0.93173   0.41499   0.00000  Uiso   1.00
O621   O     0.63124   0.89942   0.48856   0.00000  Uiso   1.00
C622   C     0.33348   0.87128   0.45986   0.00000  Uiso   1.00
H623   H     0.34242   0.84882   0.48640   0.00000  Uiso   1.00
H624   H     0.36606   0.88951   0.44023   0.00000  Uiso   1.00
H625   H     0.65616   0.85388   0.42863   0.00000  Uiso   1.00
O626   O     0.45832   0.82901   0.09471   0.00000  Uiso   1.00
C627   C     0.43301   0.86718   0.10142   0.00000  Uiso   1.00
H628   H     0.39641   0.86176   0.12790   0.00000  Uiso   1.00
H629   H     0.43034   0.87810   0.06330   0.00000  Uiso   1.00
H630   H     0.44922   0.89223   0.12024   0.00000  Uiso   1.00
O631   O     0.38826   0.78992   0.40783   0.00000  Uiso   1.00
C632   C     0.39257   0.74814   0.38805   0.00000  Uiso   1.00
H633   H     0.39085   0.72492   0.41892   0.00000  Uiso   1.00
H634   H     0.42559   0.74430   0.35441   0.00000  Uiso   1.00
H635   H     0.36259   0.74119   0.37278   0.00000  Uiso   1.00
O636   O     0.50452   0.95959   0.34032   0.00000  Uiso   1.00
C637   C     0.45801   0.95610   0.37568   0.00000  Uiso   1.00
H638   H     0.43779   0.93176   0.36115   0.00000  Uiso   1.00
H639   H     0.43872   0.98656   0.38279   0.00000  Uiso   1.00
H640   H     0.45989   0.94603   0.41436   0.00000  Uiso   1.00
C641   C     0.83325   0.91316   0.25104   0.00000  Uiso   1.00
C642   C     0.82044   0.82577   0.48408   0.00000  Uiso   1.00
C643   C     0.82307   0.84356   0.43594   0.00000  Uiso   1.00
C644   C     0.85072   0.84152   0.01182   0.00000  Uiso   1.00
C645   C     0.88941   0.86827   0.48736   0.00000  Uiso   1.00
C646   C     0.88976   0.88785   0.44060   0.00000  Uiso   1.00
C647   C     0.85611   0.87622   0.41649   0.00000  Uiso   1.00
C648   C     0.83878   0.83633   0.06602   0.00000  Uiso   1.00
C649   C     0.91657   0.86266   0.06422   0.00000  Uiso   1.00
C650   C     0.79277   0.82830   0.40800   0.00000  Uiso   1.00
C651   C     0.83589   0.97979   0.29591   0.00000  Uiso   1.00
C652   C     0.80739   0.83371   0.35132   0.00000  Uiso   1.00
C653   C     0.83877   0.68967   0.29393   0.00000  Uiso   1.00
C654   C     0.83327   0.70927   0.24987   0.00000  Uiso   1.00
C655   C     0.82898   0.68701   0.20547   0.00000  Uiso   1.00
C656   C     0.82964   0.97657   0.20672   0.00000  Uiso   1.00
C657   C     0.83320   0.95727   0.25136   0.00000  Uiso   1.00
C658   C     0.98417   0.80474   0.21973   0.00000  Uiso   1.00
C659   C     0.69866   0.80481   0.21966   0.00000  Uiso   1.00
C660   C     0.68243   0.86180   0.28027   0.00000  Uiso   1.00
C661   C     0.96870   0.86362   0.27752   0.00000  Uiso   1.00
C662   C     0.83329   0.75349   0.24959   0.00000  Uiso   1.00
C663   C     0.85912   0.83543   0.14855   0.00000  Uiso   1.00
C664   C     0.92408   0.87648   0.01269   0.00000  Uiso   1.00
C665   C     0.87306   0.84327   0.09174   0.00000  Uiso   1.00
C666   C     0.75655   0.79894   0.43076   0.00000  Uiso   1.00
C667   C     0.75448   0.78134   0.47869   0.00000  Uiso   1.00
C668   C     0.78805   0.79234   0.00294   0.00000  Uiso   1.00
H669   H     0.82815   0.95696   0.17348   0.00000  Uiso   1.00
H670   H     0.78798   0.77447   0.03678   0.00000  Uiso   1.00
H671   H     0.72751   0.75829   0.49667   0.00000  Uiso   1.00
H672   H     0.85613   0.89311   0.38205   0.00000  Uiso   1.00
N673   N     0.71426   0.83334   0.25002   0.00000  Uiso   1.00
N674   N     0.95239   0.83331   0.25001   0.00000  Uiso   1.00
O675   O     0.79512   0.89442   0.25001   0.00000  Uiso   1.00
O676   O     0.87157   0.89441   0.25001   0.00000  Uiso   1.00
O677   O     0.77613   0.83333   0.32681   0.00000  Uiso   1.00
O678   O     0.85258   0.83332   0.32681   0.00000  Uiso   1.00
O679   O     0.79510   0.77226   0.25000   0.00000  Uiso   1.00
O680   O     0.87154   0.77225   0.25000   0.00000  Uiso   1.00
O681   O     0.81409   0.83335   0.17319   0.00000  Uiso   1.00
O682   O     0.89053   0.83334   0.17319   0.00000  Uiso   1.00
Zn683  Zn    0.78229   0.83334   0.25000   0.00000  Uiso   1.00
Zn684  Zn    0.88438   0.83333   0.25000   0.00000  Uiso   1.00
Cl685  Cl    0.95995   0.87572   0.09477   0.00000  Uiso   1.00
Cl686  Cl    0.84953   0.71839   0.34683   0.00000  Uiso   1.00
O687   O     0.82821   0.70996   0.16178   0.00000  Uiso   1.00
C688   C     0.81509   0.68617   0.12318   0.00000  Uiso   1.00
H689   H     0.80959   0.70805   0.09407   0.00000  Uiso   1.00
H690   H     0.78106   0.66908   0.14072   0.00000  Uiso   1.00
H691   H     0.84402   0.99780   0.10126   0.00000  Uiso   1.00
Cl692  Cl    0.96655   0.76927   0.17764   0.00000  Uiso   1.00
Cl693  Cl    0.73778   0.76731   0.18033   0.00000  Uiso   1.00
Cl694  Cl    0.69918   0.89553   0.32442   0.00000  Uiso   1.00
O695   O     0.93926   0.89629   0.30206   0.00000  Uiso   1.00
C696   C     0.95407   0.93273   0.27186   0.00000  Uiso   1.00
H697   H     0.92916   0.95854   0.28985   0.00000  Uiso   1.00
H698   H     0.95409   0.92765   0.23044   0.00000  Uiso   1.00
H699   H     0.98964   0.94381   0.27173   0.00000  Uiso   1.00
Cl700  Cl    0.92575   0.93173   0.41499   0.00000  Uiso   1.00
O701   O     0.96458   0.89942   0.48856   0.00000  Uiso   1.00
C702   C     0.66681   0.87128   0.45986   0.00000  Uiso   1.00
H703   H     0.67575   0.84882   0.48640   0.00000  Uiso   1.00
H704   H     0.69940   0.88951   0.44023   0.00000  Uiso   1.00
H705   H     0.98949   0.85388   0.42863   0.00000  Uiso   1.00
O706   O     0.79166   0.82901   0.09471   0.00000  Uiso   1.00
C707   C     0.76635   0.86718   0.10142   0.00000  Uiso   1.00
H708   H     0.72974   0.86176   0.12790   0.00000  Uiso   1.00
H709   H     0.76367   0.87810   0.06330   0.00000  Uiso   1.00
H710   H     0.78256   0.89223   0.12024   0.00000  Uiso   1.00
O711   O     0.72160   0.78992   0.40783   0.00000  Uiso   1.00
C712   C     0.72591   0.74814   0.38805   0.00000  Uiso   1.00
H713   H     0.72418   0.72492   0.41892   0.00000  Uiso   1.00
H714   H     0.75892   0.74430   0.35441   0.00000  Uiso   1.00
H715   H     0.69592   0.74119   0.37278   0.00000  Uiso   1.00
O716   O     0.83785   0.95959   0.34032   0.00000  Uiso   1.00
C717   C     0.79135   0.95610   0.37568   0.00000  Uiso   1.00
H718   H     0.77113   0.93176   0.36115   0.00000  Uiso   1.00
H719   H     0.77205   0.98656   0.38279   0.00000  Uiso   1.00
H720   H     0.79322   0.94603   0.41436   0.00000  Uiso   1.00
C721   C     0.16658   0.24649   0.75104   0.00000  Uiso   1.00
C722   C     0.15377   0.15911   0.98408   0.00000  Uiso   1.00
C723   C     0.15641   0.17689   0.93594   0.00000  Uiso   1.00
C724   C     0.18405   0.17485   0.51182   0.00000  Uiso   1.00
C725   C     0.22275   0.20160   0.98736   0.00000  Uiso   1.00
C726   C     0.22309   0.22118   0.94060   0.00000  Uiso   1.00
C727   C     0.18944   0.20955   0.91649   0.00000  Uiso   1.00
C728   C     0.17211   0.16967   0.56602   0.00000  Uiso   1.00
C729   C     0.24990   0.19599   0.56422   0.00000  Uiso   1.00
C730   C     0.12610   0.16163   0.90800   0.00000  Uiso   1.00
C731   C     0.16922   0.31312   0.79591   0.00000  Uiso   1.00
C732   C     0.14072   0.16704   0.85132   0.00000  Uiso   1.00
C733   C     0.17210   0.02300   0.79393   0.00000  Uiso   1.00
C734   C     0.16661   0.04260   0.74987   0.00000  Uiso   1.00
C735   C     0.16231   0.02034   0.70547   0.00000  Uiso   1.00
C736   C     0.16298   0.30990   0.70672   0.00000  Uiso   1.00
C737   C     0.16653   0.29060   0.75136   0.00000  Uiso   1.00
C738   C     0.31750   0.13807   0.71973   0.00000  Uiso   1.00
C739   C     0.03199   0.13814   0.71966   0.00000  Uiso   1.00
C740   C     0.01576   0.19513   0.78027   0.00000  Uiso   1.00
C741   C     0.30204   0.19696   0.77752   0.00000  Uiso   1.00
C742   C     0.16663   0.08682   0.74959   0.00000  Uiso   1.00
C743   C     0.19246   0.16876   0.64855   0.00000  Uiso   1.00
C744   C     0.25741   0.20981   0.51269   0.00000  Uiso   1.00
C745   C     0.20639   0.17660   0.59174   0.00000  Uiso   1.00
C746   C     0.08989   0.13227   0.93076   0.00000  Uiso   1.00
C747   C     0.08781   0.11468   0.97869   0.00000  Uiso   1.00
C748   C     0.12139   0.12567   0.50294   0.00000  Uiso   1.00
H749   H     0.16149   0.29029   0.67348   0.00000  Uiso   1.00
H750   H     0.12132   0.10780   0.53678   0.00000  Uiso   1.00
H751   H     0.06084   0.09163   0.99667   0.00000  Uiso   1.00
H752   H     0.18946   0.22644   0.88205   0.00000  Uiso   1.00
N753   N     0.04760   0.16668   0.75002   0.00000  Uiso   1.00
N754   N     0.28573   0.16665   0.75001   0.00000  Uiso   1.00
O755   O     0.12846   0.22775   0.75001   0.00000  Uiso   1.00
O756   O     0.20490   0.22774   0.75001   0.00000  Uiso   1.00
O757   O     0.10947   0.16666   0.82681   0.00000  Uiso   1.00
O758   O     0.18591   0.16665   0.82681   0.00000  Uiso   1.00
O759   O     0.12843   0.10559   0.75000   0.00000  Uiso   1.00
O760   O     0.20488   0.10558   0.75000   0.00000  Uiso   1.00
O761   O     0.14742   0.16668   0.67319   0.00000  Uiso   1.00
O762   O     0.22387   0.16667   0.67319   0.00000  Uiso   1.00
Zn763  Zn    0.11562   0.16667   0.75000   0.00000  Uiso   1.00
Zn764  Zn    0.21771   0.16666   0.75000   0.00000  Uiso   1.00
Cl765  Cl    0.29328   0.20906   0.59477   0.00000  Uiso   1.00
Cl766  Cl    0.18286   0.05172   0.84683   0.00000  Uiso   1.00
O767   O     0.16154   0.04329   0.66178   0.00000  Uiso   1.00
C768   C     0.14843   0.01950   0.62318   0.00000  Uiso   1.00
H769   H     0.14292   0.04138   0.59407   0.00000  Uiso   1.00
H770   H     0.11439   0.00241   0.64072   0.00000  Uiso   1.00
H771   H     0.17736   0.33114   0.60126   0.00000  Uiso   1.00
Cl772  Cl    0.29989   0.10260   0.67764   0.00000  Uiso   1.00
Cl773  Cl    0.07111   0.10064   0.68033   0.00000  Uiso   1.00
Cl774  Cl    0.03252   0.22887   0.82442   0.00000  Uiso   1.00
O775   O     0.27259   0.22962   0.80206   0.00000  Uiso   1.00
C776   C     0.28740   0.26607   0.77186   0.00000  Uiso   1.00
H777   H     0.26249   0.29188   0.78985   0.00000  Uiso   1.00
H778   H     0.28743   0.26098   0.73044   0.00000  Uiso   1.00
H779   H     0.32298   0.27714   0.77173   0.00000  Uiso   1.00
Cl780  Cl    0.25909   0.26506   0.91499   0.00000  Uiso   1.00
O781   O     0.29791   0.23275   0.98856   0.00000  Uiso   1.00
C782   C     0.00015   0.20461   0.95986   0.00000  Uiso   1.00
H783   H     0.00908   0.18215   0.98640   0.00000  Uiso   1.00
H784   H     0.03273   0.22285   0.94023   0.00000  Uiso   1.00
H785   H     0.32283   0.18721   0.92863   0.00000  Uiso   1.00
O786   O     0.12499   0.16234   0.59471   0.00000  Uiso   1.00
C787   C     0.09968   0.20051   0.60142   0.00000  Uiso   1.00
H788   H     0.06307   0.19509   0.62790   0.00000  Uiso   1.00
H789   H     0.09700   0.21143   0.56330   0.00000  Uiso   1.00
H790   H     0.11589   0.22556   0.62024   0.00000  Uiso   1.00
O791   O     0.05493   0.12325   0.90783   0.00000  Uiso   1.00
C792   C     0.05924   0.08148   0.88805   0.00000  Uiso   1.00
H793   H     0.05752   0.05825   0.91892   0.00000  Uiso   1.00
H794   H     0.09226   0.07763   0.85441   0.00000  Uiso   1.00
H795   H     0.02925   0.07452   0.87278   0.00000  Uiso   1.00
O796   O     0.17118   0.29292   0.84032   0.00000  Uiso   1.00
C797   C     0.12468   0.28944   0.87568   0.00000  Uiso   1.00
H798   H     0.10446   0.26509   0.86115   0.00000  Uiso   1.00
H799   H     0.10538   0.31989   0.88279   0.00000  Uiso   1.00
H800   H     0.12656   0.27937   0.91436   0.00000  Uiso   1.00
C801   C     0.49992   0.24649   0.75104   0.00000  Uiso   1.00
C802   C     0.48711   0.15911   0.98408   0.00000  Uiso   1.00
C803   C     0.48974   0.17689   0.93594   0.00000  Uiso   1.00
C804   C     0.51739   0.17485   0.51182   0.00000  Uiso   1.00
C805   C     0.55608   0.20160   0.98736   0.00000  Uiso   1.00
C806   C     0.55642   0.22118   0.94060   0.00000  Uiso   1.00
C807   C     0.52278   0.20955   0.91649   0.00000  Uiso   1.00
C808   C     0.50545   0.16967   0.56602   0.00000  Uiso   1.00
C809   C     0.58323   0.19599   0.56422   0.00000  Uiso   1.00
C810   C     0.45943   0.16163   0.90800   0.00000  Uiso   1.00
C811   C     0.50255   0.31312   0.79591   0.00000  Uiso   1.00
C812   C     0.47406   0.16704   0.85132   0.00000  Uiso   1.00
C813   C     0.50544   0.02300   0.79393   0.00000  Uiso   1.00
C814   C     0.49994   0.04260   0.74987   0.00000  Uiso   1.00
C815   C     0.49565   0.02034   0.70547   0.00000  Uiso   1.00
C816   C     0.49631   0.30990   0.70672   0.00000  Uiso   1.00
C817   C     0.49986   0.29060   0.75136   0.00000  Uiso   1.00
C818   C     0.65084   0.13807   0.71973   0.00000  Uiso   1.00
C819   C     0.36532   0.13814   0.71966   0.00000  Uiso   1.00
C820   C     0.34910   0.19513   0.78027   0.00000  Uiso   1.00
C821   C     0.63537   0.19696   0.77752   0.00000  Uiso   1.00
C822   C     0.49996   0.08682   0.74959   0.00000  Uiso   1.00
C823   C     0.52579   0.16876   0.64855   0.00000  Uiso   1.00
C824   C     0.59074   0.20981   0.51269   0.00000  Uiso   1.00
C825   C     0.53972   0.17660   0.59174   0.00000  Uiso   1.00
C826   C     0.42322   0.13227   0.93076   0.00000  Uiso   1.00
C827   C     0.42115   0.11468   0.97869   0.00000  Uiso   1.00
C828   C     0.45472   0.12567   0.50294   0.00000  Uiso   1.00
H829   H     0.49482   0.29029   0.67348   0.00000  Uiso   1.00
H830   H     0.45465   0.10780   0.53678   0.00000  Uiso   1.00
H831   H     0.39417   0.09163   0.99667   0.00000  Uiso   1.00
H832   H     0.52280   0.22644   0.88205   0.00000  Uiso   1.00
N833   N     0.38093   0.16668   0.75002   0.00000  Uiso   1.00
N834   N     0.61906   0.16665   0.75001   0.00000  Uiso   1.00
O835   O     0.46179   0.22775   0.75001   0.00000  Uiso   1.00
O836   O     0.53823   0.22774   0.75001   0.00000  Uiso   1.00
O837   O     0.44280   0.16666   0.82681   0.00000  Uiso   1.00
O838   O     0.51924   0.16665   0.82681   0.00000  Uiso   1.00
O839   O     0.46177   0.10559   0.75000   0.00000  Uiso   1.00
O840   O     0.53821   0.10558   0.75000   0.00000  Uiso   1.00
O841   O     0.48076   0.16668   0.67319   0.00000  Uiso   1.00
O842   O     0.55720   0.16667   0.67319   0.00000  Uiso   1.00
Zn843  Zn    0.44896   0.16667   0.75000   0.00000  Uiso   1.00
Zn844  Zn    0.55104   0.16666   0.75000   0.00000  Uiso   1.00
Cl845  Cl    0.62661   0.20906   0.59477   0.00000  Uiso   1.00
Cl846  Cl    0.51619   0.05172   0.84683   0.00000  Uiso   1.00
O847   O     0.49487   0.04329   0.66178   0.00000  Uiso   1.00
C848   C     0.48176   0.01950   0.62318   0.00000  Uiso   1.00
H849   H     0.47626   0.04138   0.59407   0.00000  Uiso   1.00
H850   H     0.44772   0.00241   0.64072   0.00000  Uiso   1.00
H851   H     0.51069   0.33114   0.60126   0.00000  Uiso   1.00
Cl852  Cl    0.63322   0.10260   0.67764   0.00000  Uiso   1.00
Cl853  Cl    0.40444   0.10064   0.68033   0.00000  Uiso   1.00
Cl854  Cl    0.36585   0.22887   0.82442   0.00000  Uiso   1.00
O855   O     0.60593   0.22962   0.80206   0.00000  Uiso   1.00
C856   C     0.62074   0.26607   0.77186   0.00000  Uiso   1.00
H857   H     0.59582   0.29188   0.78985   0.00000  Uiso   1.00
H858   H     0.62076   0.26098   0.73044   0.00000  Uiso   1.00
H859   H     0.65631   0.27714   0.77173   0.00000  Uiso   1.00
Cl860  Cl    0.59242   0.26506   0.91499   0.00000  Uiso   1.00
O861   O     0.63124   0.23275   0.98856   0.00000  Uiso   1.00
C862   C     0.33348   0.20461   0.95986   0.00000  Uiso   1.00
H863   H     0.34242   0.18215   0.98640   0.00000  Uiso   1.00
H864   H     0.36606   0.22285   0.94023   0.00000  Uiso   1.00
H865   H     0.65616   0.18721   0.92863   0.00000  Uiso   1.00
O866   O     0.45832   0.16234   0.59471   0.00000  Uiso   1.00
C867   C     0.43301   0.20051   0.60142   0.00000  Uiso   1.00
H868   H     0.39641   0.19509   0.62790   0.00000  Uiso   1.00
H869   H     0.43034   0.21143   0.56330   0.00000  Uiso   1.00
H870   H     0.44922   0.22556   0.62024   0.00000  Uiso   1.00
O871   O     0.38826   0.12325   0.90783   0.00000  Uiso   1.00
C872   C     0.39257   0.08148   0.88805   0.00000  Uiso   1.00
H873   H     0.39085   0.05825   0.91892   0.00000  Uiso   1.00
H874   H     0.42559   0.07763   0.85441   0.00000  Uiso   1.00
H875   H     0.36259   0.07452   0.87278   0.00000  Uiso   1.00
O876   O     0.50452   0.29292   0.84032   0.00000  Uiso   1.00
C877   C     0.45801   0.28944   0.87568   0.00000  Uiso   1.00
H878   H     0.43779   0.26509   0.86115   0.00000  Uiso   1.00
H879   H     0.43872   0.31989   0.88279   0.00000  Uiso   1.00
H880   H     0.45989   0.27937   0.91436   0.00000  Uiso   1.00
C881   C     0.83325   0.24649   0.75104   0.00000  Uiso   1.00
C882   C     0.82044   0.15911   0.98408   0.00000  Uiso   1.00
C883   C     0.82307   0.17689   0.93594   0.00000  Uiso   1.00
C884   C     0.85072   0.17485   0.51182   0.00000  Uiso   1.00
C885   C     0.88941   0.20160   0.98736   0.00000  Uiso   1.00
C886   C     0.88976   0.22118   0.94060   0.00000  Uiso   1.00
C887   C     0.85611   0.20955   0.91649   0.00000  Uiso   1.00
C888   C     0.83878   0.16967   0.56602   0.00000  Uiso   1.00
C889   C     0.91657   0.19599   0.56422   0.00000  Uiso   1.00
C890   C     0.79277   0.16163   0.90800   0.00000  Uiso   1.00
C891   C     0.83589   0.31312   0.79591   0.00000  Uiso   1.00
C892   C     0.80739   0.16704   0.85132   0.00000  Uiso   1.00
C893   C     0.83877   0.02300   0.79393   0.00000  Uiso   1.00
C894   C     0.83327   0.04260   0.74987   0.00000  Uiso   1.00
C895   C     0.82898   0.02034   0.70547   0.00000  Uiso   1.00
C896   C     0.82964   0.30990   0.70672   0.00000  Uiso   1.00
C897   C     0.83320   0.29060   0.75136   0.00000  Uiso   1.00
C898   C     0.98417   0.13807   0.71973   0.00000  Uiso   1.00
C899   C     0.69866   0.13814   0.71966   0.00000  Uiso   1.00
C900   C     0.68243   0.19513   0.78027   0.00000  Uiso   1.00
C901   C     0.96870   0.19696   0.77752   0.00000  Uiso   1.00
C902   C     0.83329   0.08682   0.74959   0.00000  Uiso   1.00
C903   C     0.85912   0.16876   0.64855   0.00000  Uiso   1.00
C904   C     0.92408   0.20981   0.51269   0.00000  Uiso   1.00
C905   C     0.87306   0.17660   0.59174   0.00000  Uiso   1.00
C906   C     0.75655   0.13227   0.93076   0.00000  Uiso   1.00
C907   C     0.75448   0.11468   0.97869   0.00000  Uiso   1.00
C908   C     0.78805   0.12567   0.50294   0.00000  Uiso   1.00
H909   H     0.82815   0.29029   0.67348   0.00000  Uiso   1.00
H910   H     0.78798   0.10780   0.53678   0.00000  Uiso   1.00
H911   H     0.72751   0.09163   0.99667   0.00000  Uiso   1.00
H912   H     0.85613   0.22644   0.88205   0.00000  Uiso   1.00
N913   N     0.71426   0.16668   0.75002   0.00000  Uiso   1.00
N914   N     0.95239   0.16665   0.75001   0.00000  Uiso   1.00
O915   O     0.79512   0.22775   0.75001   0.00000  Uiso   1.00
O916   O     0.87157   0.22774   0.75001   0.00000  Uiso   1.00
O917   O     0.77613   0.16666   0.82681   0.00000  Uiso   1.00
O918   O     0.85258   0.16665   0.82681   0.00000  Uiso   1.00
O919   O     0.79510   0.10559   0.75000   0.00000  Uiso   1.00
O920   O     0.87154   0.10558   0.75000   0.00000  Uiso   1.00
O921   O     0.81409   0.16668   0.67319   0.00000  Uiso   1.00
O922   O     0.89053   0.16667   0.67319   0.00000  Uiso   1.00
Zn923  Zn    0.78229   0.16667   0.75000   0.00000  Uiso   1.00
Zn924  Zn    0.88438   0.16666   0.75000   0.00000  Uiso   1.00
Cl925  Cl    0.95995   0.20906   0.59477   0.00000  Uiso   1.00
Cl926  Cl    0.84953   0.05172   0.84683   0.00000  Uiso   1.00
O927   O     0.82821   0.04329   0.66178   0.00000  Uiso   1.00
C928   C     0.81509   0.01950   0.62318   0.00000  Uiso   1.00
H929   H     0.80959   0.04138   0.59407   0.00000  Uiso   1.00
H930   H     0.78106   0.00241   0.64072   0.00000  Uiso   1.00
H931   H     0.84402   0.33114   0.60126   0.00000  Uiso   1.00
Cl932  Cl    0.96655   0.10260   0.67764   0.00000  Uiso   1.00
Cl933  Cl    0.73778   0.10064   0.68033   0.00000  Uiso   1.00
Cl934  Cl    0.69918   0.22887   0.82442   0.00000  Uiso   1.00
O935   O     0.93926   0.22962   0.80206   0.00000  Uiso   1.00
C936   C     0.95407   0.26607   0.77186   0.00000  Uiso   1.00
H937   H     0.92916   0.29188   0.78985   0.00000  Uiso   1.00
H938   H     0.95409   0.26098   0.73044   0.00000  Uiso   1.00
H939   H     0.98964   0.27714   0.77173   0.00000  Uiso   1.00
Cl940  Cl    0.92575   0.26506   0.91499   0.00000  Uiso   1.00
O941   O     0.96458   0.23275   0.98856   0.00000  Uiso   1.00
C942   C     0.66681   0.20461   0.95986   0.00000  Uiso   1.00
H943   H     0.67575   0.18215   0.98640   0.00000  Uiso   1.00
H944   H     0.69940   0.22285   0.94023   0.00000  Uiso   1.00
H945   H     0.98949   0.18721   0.92863   0.00000  Uiso   1.00
O946   O     0.79166   0.16234   0.59471   0.00000  Uiso   1.00
C947   C     0.76635   0.20051   0.60142   0.00000  Uiso   1.00
H948   H     0.72974   0.19509   0.62790   0.00000  Uiso   1.00
H949   H     0.76367   0.21143   0.56330   0.00000  Uiso   1.00
H950   H     0.78256   0.22556   0.62024   0.00000  Uiso   1.00
O951   O     0.72160   0.12325   0.90783   0.00000  Uiso   1.00
C952   C     0.72591   0.08148   0.88805   0.00000  Uiso   1.00
H953   H     0.72418   0.05825   0.91892   0.00000  Uiso   1.00
H954   H     0.75892   0.07763   0.85441   0.00000  Uiso   1.00
H955   H     0.69592   0.07452   0.87278   0.00000  Uiso   1.00
O956   O     0.83785   0.29292   0.84032   0.00000  Uiso   1.00
C957   C     0.79135   0.28944   0.87568   0.00000  Uiso   1.00
H958   H     0.77113   0.26509   0.86115   0.00000  Uiso   1.00
H959   H     0.77205   0.31989   0.88279   0.00000  Uiso   1.00
H960   H     0.79322   0.27937   0.91436   0.00000  Uiso   1.00
C961   C     0.16658   0.57982   0.75104   0.00000  Uiso   1.00
C962   C     0.15377   0.49244   0.98408   0.00000  Uiso   1.00
C963   C     0.15641   0.51022   0.93594   0.00000  Uiso   1.00
C964   C     0.18405   0.50818   0.51182   0.00000  Uiso   1.00
C965   C     0.22275   0.53494   0.98736   0.00000  Uiso   1.00
C966   C     0.22309   0.55451   0.94060   0.00000  Uiso   1.00
C967   C     0.18944   0.54289   0.91649   0.00000  Uiso   1.00
C968   C     0.17211   0.50300   0.56602   0.00000  Uiso   1.00
C969   C     0.24990   0.52932   0.56422   0.00000  Uiso   1.00
C970   C     0.12610   0.49496   0.90800   0.00000  Uiso   1.00
C971   C     0.16922   0.64645   0.79591   0.00000  Uiso   1.00
C972   C     0.14072   0.50038   0.85132   0.00000  Uiso   1.00
C973   C     0.17210   0.35634   0.79393   0.00000  Uiso   1.00
C974   C     0.16661   0.37593   0.74987   0.00000  Uiso   1.00
C975   C     0.16231   0.35367   0.70547   0.00000  Uiso   1.00
C976   C     0.16298   0.64324   0.70672   0.00000  Uiso   1.00
C977   C     0.16653   0.62393   0.75136   0.00000  Uiso   1.00
C978   C     0.31750   0.47140   0.71973   0.00000  Uiso   1.00
C979   C     0.03199   0.47148   0.71966   0.00000  Uiso   1.00
C980   C     0.01576   0.52847   0.78027   0.00000  Uiso   1.00
C981   C     0.30204   0.53029   0.77752   0.00000  Uiso   1.00
C982   C     0.16663   0.42015   0.74959   0.00000  Uiso   1.00
C983   C     0.19246   0.50210   0.64855   0.00000  Uiso   1.00
C984   C     0.25741   0.54314   0.51269   0.00000  Uiso   1.00
C985   C     0.20639   0.50994   0.59174   0.00000  Uiso   1.00
C986   C     0.08989   0.46560   0.93076   0.00000  Uiso   1.00
C987   C     0.08781   0.44801   0.97869   0.00000  Uiso   1.00
C988   C     0.12139   0.45900   0.50294   0.00000  Uiso   1.00
H989   H     0.16149   0.62362   0.67348   0.00000  Uiso   1.00
H990   H     0.12132   0.44113   0.53678   0.00000  Uiso   1.00
H991   H     0.06084   0.42496   0.99667   0.00000  Uiso   1.00
H992   H     0.18946   0.55977   0.88205   0.00000  Uiso   1.00
N993   N     0.04760   0.50001   0.75002   0.00000  Uiso   1.00
N994   N     0.28573   0.49998   0.75001   0.00000  Uiso   1.00
O995   O     0.12846   0.56108   0.75001   0.00000  Uiso   1.00
O996   O     0.20490   0.56107   0.75001   0.00000  Uiso   1.00
O997   O     0.10947   0.50000   0.82681   0.00000  Uiso   1.00
O998   O     0.18591   0.49999   0.82681   0.00000  Uiso   1.00
O999   O     0.12843   0.43893   0.75000   0.00000  Uiso   1.00
O1000  O     0.20488   0.43892   0.75000   0.00000  Uiso   1.00
O1001  O     0.14742   0.50001   0.67319   0.00000  Uiso   1.00
O1002  O     0.22387   0.50000   0.67319   0.00000  Uiso   1.00
Zn1003 Zn    0.11562   0.50001   0.75000   0.00000  Uiso   1.00
Zn1004 Zn    0.21771   0.49999   0.75000   0.00000  Uiso   1.00
Cl1005 Cl    0.29328   0.54239   0.59477   0.00000  Uiso   1.00
Cl1006 Cl    0.18286   0.38506   0.84683   0.00000  Uiso   1.00
O1007  O     0.16154   0.37663   0.66178   0.00000  Uiso   1.00
C1008  C     0.14843   0.35283   0.62318   0.00000  Uiso   1.00
H1009  H     0.14292   0.37472   0.59407   0.00000  Uiso   1.00
H1010  H     0.11439   0.33575   0.64072   0.00000  Uiso   1.00
H1011  H     0.17736   0.66447   0.60126   0.00000  Uiso   1.00
Cl1012 Cl    0.29989   0.43594   0.67764   0.00000  Uiso   1.00
Cl1013 Cl    0.07111   0.43397   0.68033   0.00000  Uiso   1.00
Cl1014 Cl    0.03252   0.56220   0.82442   0.00000  Uiso   1.00
O1015  O     0.27259   0.56296   0.80206   0.00000  Uiso   1.00
C1016  C     0.28740   0.59940   0.77186   0.00000  Uiso   1.00
H1017  H     0.26249   0.62521   0.78985   0.00000  Uiso   1.00
H1018  H     0.28743   0.59431   0.73044   0.00000  Uiso   1.00
H1019  H     0.32298   0.61048   0.77173   0.00000  Uiso   1.00
Cl1020 Cl    0.25909   0.59840   0.91499   0.00000  Uiso   1.00
O1021  O     0.29791   0.56608   0.98856   0.00000  Uiso   1.00
C1022  C     0.00015   0.53794   0.95986   0.00000  Uiso   1.00
H1023  H     0.00908   0.51548   0.98640   0.00000  Uiso   1.00
H1024  H     0.03273   0.55618   0.94023   0.00000  Uiso   1.00
H1025  H     0.32283   0.52054   0.92863   0.00000  Uiso   1.00
O1026  O     0.12499   0.49567   0.59471   0.00000  Uiso   1.00
C1027  C     0.09968   0.53384   0.60142   0.00000  Uiso   1.00
H1028  H     0.06307   0.52842   0.62790   0.00000  Uiso   1.00
H1029  H     0.09700   0.54476   0.56330   0.00000  Uiso   1.00
H1030  H     0.11589   0.55890   0.62024   0.00000  Uiso   1.00
O1031  O     0.05493   0.45659   0.90783   0.00000  Uiso   1.00
C1032  C     0.05924   0.41481   0.88805   0.00000  Uiso   1.00
H1033  H     0.05752   0.39158   0.91892   0.00000  Uiso   1.00
H1034  H     0.09226   0.41097   0.85441   0.00000  Uiso   1.00
H1035  H     0.02925   0.40785   0.87278   0.00000  Uiso   1.00
O1036  O     0.17118   0.62626   0.84032   0.00000  Uiso   1.00
C1037  C     0.12468   0.62277   0.87568   0.00000  Uiso   1.00
H1038  H     0.10446   0.59842   0.86115   0.00000  Uiso   1.00
H1039  H     0.10538   0.65323   0.88279   0.00000  Uiso   1.00
H1040  H     0.12656   0.61270   0.91436   0.00000  Uiso   1.00
C1041  C     0.49992   0.57982   0.75104   0.00000  Uiso   1.00
C1042  C     0.48711   0.49244   0.98408   0.00000  Uiso   1.00
C1043  C     0.48974   0.51022   0.93594   0.00000  Uiso   1.00
C1044  C     0.51739   0.50818   0.51182   0.00000  Uiso   1.00
C1045  C     0.55608   0.53494   0.98736   0.00000  Uiso   1.00
C1046  C     0.55642   0.55451   0.94060   0.00000  Uiso   1.00
C1047  C     0.52278   0.54289   0.91649   0.00000  Uiso   1.00
C1048  C     0.50545   0.50300   0.56602   0.00000  Uiso   1.00
C1049  C     0.58323   0.52932   0.56422   0.00000  Uiso   1.00
C1050  C     0.45943   0.49496   0.90800   0.00000  Uiso   1.00
C1051  C     0.50255   0.64645   0.79591   0.00000  Uiso   1.00
C1052  C     0.47406   0.50038   0.85132   0.00000  Uiso   1.00
C1053  C     0.50544   0.35634   0.79393   0.00000  Uiso   1.00
C1054  C     0.49994   0.37593   0.74987   0.00000  Uiso   1.00
C1055  C     0.49565   0.35367   0.70547   0.00000  Uiso   1.00
C1056  C     0.49631   0.64324   0.70672   0.00000  Uiso   1.00
C1057  C     0.49986   0.62393   0.75136   0.00000  Uiso   1.00
C1058  C     0.65084   0.47140   0.71973   0.00000  Uiso   1.00
C1059  C     0.36532   0.47148   0.71966   0.00000  Uiso   1.00
C1060  C     0.34910   0.52847   0.78027   0.00000  Uiso   1.00
C1061  C     0.63537   0.53029   0.77752   0.00000  Uiso   1.00
C1062  C     0.49996   0.42015   0.74959   0.00000  Uiso   1.00
C1063  C     0.52579   0.50210   0.64855   0.00000  Uiso   1.00
C1064  C     0.59074   0.54314   0.51269   0.00000  Uiso   1.00
C1065  C     0.53972   0.50994   0.59174   0.00000  Uiso   1.00
C1066  C     0.42322   0.46560   0.93076   0.00000  Uiso   1.00
C1067  C     0.42115   0.44801   0.97869   0.00000  Uiso   1.00
C1068  C     0.45472   0.45900   0.50294   0.00000  Uiso   1.00
H1069  H     0.49482   0.62362   0.67348   0.00000  Uiso   1.00
H1070  H     0.45465   0.44113   0.53678   0.00000  Uiso   1.00
H1071  H     0.39417   0.42496   0.99667   0.00000  Uiso   1.00
H1072  H     0.52280   0.55977   0.88205   0.00000  Uiso   1.00
N1073  N     0.38093   0.50001   0.75002   0.00000  Uiso   1.00
N1074  N     0.61906   0.49998   0.75001   0.00000  Uiso   1.00
O1075  O     0.46179   0.56108   0.75001   0.00000  Uiso   1.00
O1076  O     0.53823   0.56107   0.75001   0.00000  Uiso   1.00
O1077  O     0.44280   0.50000   0.82681   0.00000  Uiso   1.00
O1078  O     0.51924   0.49999   0.82681   0.00000  Uiso   1.00
O1079  O     0.46177   0.43893   0.75000   0.00000  Uiso   1.00
O1080  O     0.53821   0.43892   0.75000   0.00000  Uiso   1.00
O1081  O     0.48076   0.50001   0.67319   0.00000  Uiso   1.00
O1082  O     0.55720   0.50000   0.67319   0.00000  Uiso   1.00
Zn1083 Zn    0.44896   0.50001   0.75000   0.00000  Uiso   1.00
Zn1084 Zn    0.55104   0.49999   0.75000   0.00000  Uiso   1.00
Cl1085 Cl    0.62661   0.54239   0.59477   0.00000  Uiso   1.00
Cl1086 Cl    0.51619   0.38506   0.84683   0.00000  Uiso   1.00
O1087  O     0.49487   0.37663   0.66178   0.00000  Uiso   1.00
C1088  C     0.48176   0.35283   0.62318   0.00000  Uiso   1.00
H1089  H     0.47626   0.37472   0.59407   0.00000  Uiso   1.00
H1090  H     0.44772   0.33575   0.64072   0.00000  Uiso   1.00
H1091  H     0.51069   0.66447   0.60126   0.00000  Uiso   1.00
Cl1092 Cl    0.63322   0.43594   0.67764   0.00000  Uiso   1.00
Cl1093 Cl    0.40444   0.43397   0.68033   0.00000  Uiso   1.00
Cl1094 Cl    0.36585   0.56220   0.82442   0.00000  Uiso   1.00
O1095  O     0.60593   0.56296   0.80206   0.00000  Uiso   1.00
C1096  C     0.62074   0.59940   0.77186   0.00000  Uiso   1.00
H1097  H     0.59582   0.62521   0.78985   0.00000  Uiso   1.00
H1098  H     0.62076   0.59431   0.73044   0.00000  Uiso   1.00
H1099  H     0.65631   0.61048   0.77173   0.00000  Uiso   1.00
Cl1100 Cl    0.59242   0.59840   0.91499   0.00000  Uiso   1.00
O1101  O     0.63124   0.56608   0.98856   0.00000  Uiso   1.00
C1102  C     0.33348   0.53794   0.95986   0.00000  Uiso   1.00
H1103  H     0.34242   0.51548   0.98640   0.00000  Uiso   1.00
H1104  H     0.36606   0.55618   0.94023   0.00000  Uiso   1.00
H1105  H     0.65616   0.52054   0.92863   0.00000  Uiso   1.00
O1106  O     0.45832   0.49567   0.59471   0.00000  Uiso   1.00
C1107  C     0.43301   0.53384   0.60142   0.00000  Uiso   1.00
H1108  H     0.39641   0.52842   0.62790   0.00000  Uiso   1.00
H1109  H     0.43034   0.54476   0.56330   0.00000  Uiso   1.00
H1110  H     0.44922   0.55890   0.62024   0.00000  Uiso   1.00
O1111  O     0.38826   0.45659   0.90783   0.00000  Uiso   1.00
C1112  C     0.39257   0.41481   0.88805   0.00000  Uiso   1.00
H1113  H     0.39085   0.39158   0.91892   0.00000  Uiso   1.00
H1114  H     0.42559   0.41097   0.85441   0.00000  Uiso   1.00
H1115  H     0.36259   0.40785   0.87278   0.00000  Uiso   1.00
O1116  O     0.50452   0.62626   0.84032   0.00000  Uiso   1.00
C1117  C     0.45801   0.62277   0.87568   0.00000  Uiso   1.00
H1118  H     0.43779   0.59842   0.86115   0.00000  Uiso   1.00
H1119  H     0.43872   0.65323   0.88279   0.00000  Uiso   1.00
H1120  H     0.45989   0.61270   0.91436   0.00000  Uiso   1.00
C1121  C     0.83325   0.57982   0.75104   0.00000  Uiso   1.00
C1122  C     0.82044   0.49244   0.98408   0.00000  Uiso   1.00
C1123  C     0.82307   0.51022   0.93594   0.00000  Uiso   1.00
C1124  C     0.85072   0.50818   0.51182   0.00000  Uiso   1.00
C1125  C     0.88941   0.53494   0.98736   0.00000  Uiso   1.00
C1126  C     0.88976   0.55451   0.94060   0.00000  Uiso   1.00
C1127  C     0.85611   0.54289   0.91649   0.00000  Uiso   1.00
C1128  C     0.83878   0.50300   0.56602   0.00000  Uiso   1.00
C1129  C     0.91657   0.52932   0.56422   0.00000  Uiso   1.00
C1130  C     0.79277   0.49496   0.90800   0.00000  Uiso   1.00
C1131  C     0.83589   0.64645   0.79591   0.00000  Uiso   1.00
C1132  C     0.80739   0.50038   0.85132   0.00000  Uiso   1.00
C1133  C     0.83877   0.35634   0.79393   0.00000  Uiso   1.00
C1134  C     0.83327   0.37593   0.74987   0.00000  Uiso   1.00
C1135  C     0.82898   0.35367   0.70547   0.00000  Uiso   1.00
C1136  C     0.82964   0.64324   0.70672   0.00000  Uiso   1.00
C1137  C     0.83320   0.62393   0.75136   0.00000  Uiso   1.00
C1138  C     0.98417   0.47140   0.71973   0.00000  Uiso   1.00
C1139  C     0.69866   0.47148   0.71966   0.00000  Uiso   1.00
C1140  C     0.68243   0.52847   0.78027   0.00000  Uiso   1.00
C1141  C     0.96870   0.53029   0.77752   0.00000  Uiso   1.00
C1142  C     0.83329   0.42015   0.74959   0.00000  Uiso   1.00
C1143  C     0.85912   0.50210   0.64855   0.00000  Uiso   1.00
C1144  C     0.92408   0.54314   0.51269   0.00000  Uiso   1.00
C1145  C     0.87306   0.50994   0.59174   0.00000  Uiso   1.00
C1146  C     0.75655   0.46560   0.93076   0.00000  Uiso   1.00
C1147  C     0.75448   0.44801   0.97869   0.00000  Uiso   1.00
C1148  C     0.78805   0.45900   0.50294   0.00000  Uiso   1.00
H1149  H     0.82815   0.62362   0.67348   0.00000  Uiso   1.00
H1150  H     0.78798   0.44113   0.53678   0.00000  Uiso   1.00
H1151  H     0.72751   0.42496   0.99667   0.00000  Uiso   1.00
H1152  H     0.85613   0.55977   0.88205   0.00000  Uiso   1.00
N1153  N     0.71426   0.50001   0.75002   0.00000  Uiso   1.00
N1154  N     0.95239   0.49998   0.75001   0.00000  Uiso   1.00
O1155  O     0.79512   0.56108   0.75001   0.00000  Uiso   1.00
O1156  O     0.87157   0.56107   0.75001   0.00000  Uiso   1.00
O1157  O     0.77613   0.50000   0.82681   0.00000  Uiso   1.00
O1158  O     0.85258   0.49999   0.82681   0.00000  Uiso   1.00
O1159  O     0.79510   0.43893   0.75000   0.00000  Uiso   1.00
O1160  O     0.87154   0.43892   0.75000   0.00000  Uiso   1.00
O1161  O     0.81409   0.50001   0.67319   0.00000  Uiso   1.00
O1162  O     0.89053   0.50000   0.67319   0.00000  Uiso   1.00
Zn1163 Zn    0.78229   0.50001   0.75000   0.00000  Uiso   1.00
Zn1164 Zn    0.88438   0.49999   0.75000   0.00000  Uiso   1.00
Cl1165 Cl    0.95995   0.54239   0.59477   0.00000  Uiso   1.00
Cl1166 Cl    0.84953   0.38506   0.84683   0.00000  Uiso   1.00
O1167  O     0.82821   0.37663   0.66178   0.00000  Uiso   1.00
C1168  C     0.81509   0.35283   0.62318   0.00000  Uiso   1.00
H1169  H     0.80959   0.37472   0.59407   0.00000  Uiso   1.00
H1170  H     0.78106   0.33575   0.64072   0.00000  Uiso   1.00
H1171  H     0.84402   0.66447   0.60126   0.00000  Uiso   1.00
Cl1172 Cl    0.96655   0.43594   0.67764   0.00000  Uiso   1.00
Cl1173 Cl    0.73778   0.43397   0.68033   0.00000  Uiso   1.00
Cl1174 Cl    0.69918   0.56220   0.82442   0.00000  Uiso   1.00
O1175  O     0.93926   0.56296   0.80206   0.00000  Uiso   1.00
C1176  C     0.95407   0.59940   0.77186   0.00000  Uiso   1.00
H1177  H     0.92916   0.62521   0.78985   0.00000  Uiso   1.00
H1178  H     0.95409   0.59431   0.73044   0.00000  Uiso   1.00
H1179  H     0.98964   0.61048   0.77173   0.00000  Uiso   1.00
Cl1180 Cl    0.92575   0.59840   0.91499   0.00000  Uiso   1.00
O1181  O     0.96458   0.56608   0.98856   0.00000  Uiso   1.00
C1182  C     0.66681   0.53794   0.95986   0.00000  Uiso   1.00
H1183  H     0.67575   0.51548   0.98640   0.00000  Uiso   1.00
H1184  H     0.69940   0.55618   0.94023   0.00000  Uiso   1.00
H1185  H     0.98949   0.52054   0.92863   0.00000  Uiso   1.00
O1186  O     0.79166   0.49567   0.59471   0.00000  Uiso   1.00
C1187  C     0.76635   0.53384   0.60142   0.00000  Uiso   1.00
H1188  H     0.72974   0.52842   0.62790   0.00000  Uiso   1.00
H1189  H     0.76367   0.54476   0.56330   0.00000  Uiso   1.00
H1190  H     0.78256   0.55890   0.62024   0.00000  Uiso   1.00
O1191  O     0.72160   0.45659   0.90783   0.00000  Uiso   1.00
C1192  C     0.72591   0.41481   0.88805   0.00000  Uiso   1.00
H1193  H     0.72418   0.39158   0.91892   0.00000  Uiso   1.00
H1194  H     0.75892   0.41097   0.85441   0.00000  Uiso   1.00
H1195  H     0.69592   0.40785   0.87278   0.00000  Uiso   1.00
O1196  O     0.83785   0.62626   0.84032   0.00000  Uiso   1.00
C1197  C     0.79135   0.62277   0.87568   0.00000  Uiso   1.00
H1198  H     0.77113   0.59842   0.86115   0.00000  Uiso   1.00
H1199  H     0.77205   0.65323   0.88279   0.00000  Uiso   1.00
H1200  H     0.79322   0.61270   0.91436   0.00000  Uiso   1.00
C1201  C     0.16658   0.91316   0.75104   0.00000  Uiso   1.00
C1202  C     0.15377   0.82577   0.98408   0.00000  Uiso   1.00
C1203  C     0.15641   0.84356   0.93594   0.00000  Uiso   1.00
C1204  C     0.18405   0.84152   0.51182   0.00000  Uiso   1.00
C1205  C     0.22275   0.86827   0.98736   0.00000  Uiso   1.00
C1206  C     0.22309   0.88785   0.94060   0.00000  Uiso   1.00
C1207  C     0.18944   0.87622   0.91649   0.00000  Uiso   1.00
C1208  C     0.17211   0.83633   0.56602   0.00000  Uiso   1.00
C1209  C     0.24990   0.86266   0.56422   0.00000  Uiso   1.00
C1210  C     0.12610   0.82830   0.90800   0.00000  Uiso   1.00
C1211  C     0.16922   0.97979   0.79591   0.00000  Uiso   1.00
C1212  C     0.14072   0.83371   0.85132   0.00000  Uiso   1.00
C1213  C     0.17210   0.68967   0.79393   0.00000  Uiso   1.00
C1214  C     0.16661   0.70927   0.74987   0.00000  Uiso   1.00
C1215  C     0.16231   0.68701   0.70547   0.00000  Uiso   1.00
C1216  C     0.16298   0.97657   0.70672   0.00000  Uiso   1.00
C1217  C     0.16653   0.95727   0.75136   0.00000  Uiso   1.00
C1218  C     0.31750   0.80474   0.71973   0.00000  Uiso   1.00
C1219  C     0.03199   0.80481   0.71966   0.00000  Uiso   1.00
C1220  C     0.01576   0.86180   0.78027   0.00000  Uiso   1.00
C1221  C     0.30204   0.86362   0.77752   0.00000  Uiso   1.00
C1222  C     0.16663   0.75349   0.74959   0.00000  Uiso   1.00
C1223  C     0.19246   0.83543   0.64855   0.00000  Uiso   1.00
C1224  C     0.25741   0.87648   0.51269   0.00000  Uiso   1.00
C1225  C     0.20639   0.84327   0.59174   0.00000  Uiso   1.00
C1226  C     0.08989   0.79894   0.93076   0.00000  Uiso   1.00
C1227  C     0.08781   0.78134   0.97869   0.00000  Uiso   1.00
C1228  C     0.12139   0.79234   0.50294   0.00000  Uiso   1.00
H1229  H     0.16149   0.95696   0.67348   0.00000  Uiso   1.00
H1230  H     0.12132   0.77447   0.53678   0.00000  Uiso   1.00
H1231  H     0.06084   0.75829   0.99667   0.00000  Uiso   1.00
H1232  H     0.18946   0.89311   0.88205   0.00000  Uiso   1.00
N1233  N     0.04760   0.83334   0.75002   0.00000  Uiso   1.00
N1234  N     0.28573   0.83331   0.75001   0.00000  Uiso   1.00
O1235  O     0.12846   0.89442   0.75001   0.00000  Uiso   1.00
O1236  O     0.20490   0.89441   0.75001   0.00000  Uiso   1.00
O1237  O     0.10947   0.83333   0.82681   0.00000  Uiso   1.00
O1238  O     0.18591   0.83332   0.82681   0.00000  Uiso   1.00
O1239  O     0.12843   0.77226   0.75000   0.00000  Uiso   1.00
O1240  O     0.20488   0.77225   0.75000   0.00000  Uiso   1.00
O1241  O     0.14742   0.83335   0.67319   0.00000  Uiso   1.00
O1242  O     0.22387   0.83334   0.67319   0.00000  Uiso   1.00
Zn1243 Zn    0.11562   0.83334   0.75000   0.00000  Uiso   1.00
Zn1244 Zn    0.21771   0.83333   0.75000   0.00000  Uiso   1.00
Cl1245 Cl    0.29328   0.87572   0.59477   0.00000  Uiso   1.00
Cl1246 Cl    0.18286   0.71839   0.84683   0.00000  Uiso   1.00
O1247  O     0.16154   0.70996   0.66178   0.00000  Uiso   1.00
C1248  C     0.14843   0.68617   0.62318   0.00000  Uiso   1.00
H1249  H     0.14292   0.70805   0.59407   0.00000  Uiso   1.00
H1250  H     0.11439   0.66908   0.64072   0.00000  Uiso   1.00
H1251  H     0.17736   0.99780   0.60126   0.00000  Uiso   1.00
Cl1252 Cl    0.29989   0.76927   0.67764   0.00000  Uiso   1.00
Cl1253 Cl    0.07111   0.76731   0.68033   0.00000  Uiso   1.00
Cl1254 Cl    0.03252   0.89553   0.82442   0.00000  Uiso   1.00
O1255  O     0.27259   0.89629   0.80206   0.00000  Uiso   1.00
C1256  C     0.28740   0.93273   0.77186   0.00000  Uiso   1.00
H1257  H     0.26249   0.95854   0.78985   0.00000  Uiso   1.00
H1258  H     0.28743   0.92765   0.73044   0.00000  Uiso   1.00
H1259  H     0.32298   0.94381   0.77173   0.00000  Uiso   1.00
Cl1260 Cl    0.25909   0.93173   0.91499   0.00000  Uiso   1.00
O1261  O     0.29791   0.89942   0.98856   0.00000  Uiso   1.00
C1262  C     0.00015   0.87128   0.95986   0.00000  Uiso   1.00
H1263  H     0.00908   0.84882   0.98640   0.00000  Uiso   1.00
H1264  H     0.03273   0.88951   0.94023   0.00000  Uiso   1.00
H1265  H     0.32283   0.85388   0.92863   0.00000  Uiso   1.00
O1266  O     0.12499   0.82901   0.59471   0.00000  Uiso   1.00
C1267  C     0.09968   0.86718   0.60142   0.00000  Uiso   1.00
H1268  H     0.06307   0.86176   0.62790   0.00000  Uiso   1.00
H1269  H     0.09700   0.87810   0.56330   0.00000  Uiso   1.00
H1270  H     0.11589   0.89223   0.62024   0.00000  Uiso   1.00
O1271  O     0.05493   0.78992   0.90783   0.00000  Uiso   1.00
C1272  C     0.05924   0.74814   0.88805   0.00000  Uiso   1.00
H1273  H     0.05752   0.72492   0.91892   0.00000  Uiso   1.00
H1274  H     0.09226   0.74430   0.85441   0.00000  Uiso   1.00
H1275  H     0.02925   0.74119   0.87278   0.00000  Uiso   1.00
O1276  O     0.17118   0.95959   0.84032   0.00000  Uiso   1.00
C1277  C     0.12468   0.95610   0.87568   0.00000  Uiso   1.00
H1278  H     0.10446   0.93176   0.86115   0.00000  Uiso   1.00
H1279  H     0.10538   0.98656   0.88279   0.00000  Uiso   1.00
H1280  H     0.12656   0.94603   0.91436   0.00000  Uiso   1.00
C1281  C     0.49992   0.91316   0.75104   0.00000  Uiso   1.00
C1282  C     0.48711   0.82577   0.98408   0.00000  Uiso   1.00
C1283  C     0.48974   0.84356   0.93594   0.00000  Uiso   1.00
C1284  C     0.51739   0.84152   0.51182   0.00000  Uiso   1.00
C1285  C     0.55608   0.86827   0.98736   0.00000  Uiso   1.00
C1286  C     0.55642   0.88785   0.94060   0.00000  Uiso   1.00
C1287  C     0.52278   0.87622   0.91649   0.00000  Uiso   1.00
C1288  C     0.50545   0.83633   0.56602   0.00000  Uiso   1.00
C1289  C     0.58323   0.86266   0.56422   0.00000  Uiso   1.00
C1290  C     0.45943   0.82830   0.90800   0.00000  Uiso   1.00
C1291  C     0.50255   0.97979   0.79591   0.00000  Uiso   1.00
C1292  C     0.47406   0.83371   0.85132   0.00000  Uiso   1.00
C1293  C     0.50544   0.68967   0.79393   0.00000  Uiso   1.00
C1294  C     0.49994   0.70927   0.74987   0.00000  Uiso   1.00
C1295  C     0.49565   0.68701   0.70547   0.00000  Uiso   1.00
C1296  C     0.49631   0.97657   0.70672   0.00000  Uiso   1.00
C1297  C     0.49986   0.95727   0.75136   0.00000  Uiso   1.00
C1298  C     0.65084   0.80474   0.71973   0.00000  Uiso   1.00
C1299  C     0.36532   0.80481   0.71966   0.00000  Uiso   1.00
C1300  C     0.34910   0.86180   0.78027   0.00000  Uiso   1.00
C1301  C     0.63537   0.86362   0.77752   0.00000  Uiso   1.00
C1302  C     0.49996   0.75349   0.74959   0.00000  Uiso   1.00
C1303  C     0.52579   0.83543   0.64855   0.00000  Uiso   1.00
C1304  C     0.59074   0.87648   0.51269   0.00000  Uiso   1.00
C1305  C     0.53972   0.84327   0.59174   0.00000  Uiso   1.00
C1306  C     0.42322   0.79894   0.93076   0.00000  Uiso   1.00
C1307  C     0.42115   0.78134   0.97869   0.00000  Uiso   1.00
C1308  C     0.45472   0.79234   0.50294   0.00000  Uiso   1.00
H1309  H     0.49482   0.95696   0.67348   0.00000  Uiso   1.00
H1310  H     0.45465   0.77447   0.53678   0.00000  Uiso   1.00
H1311  H     0.39417   0.75829   0.99667   0.00000  Uiso   1.00
H1312  H     0.52280   0.89311   0.88205   0.00000  Uiso   1.00
N1313  N     0.38093   0.83334   0.75002   0.00000  Uiso   1.00
N1314  N     0.61906   0.83331   0.75001   0.00000  Uiso   1.00
O1315  O     0.46179   0.89442   0.75001   0.00000  Uiso   1.00
O1316  O     0.53823   0.89441   0.75001   0.00000  Uiso   1.00
O1317  O     0.44280   0.83333   0.82681   0.00000  Uiso   1.00
O1318  O     0.51924   0.83332   0.82681   0.00000  Uiso   1.00
O1319  O     0.46177   0.77226   0.75000   0.00000  Uiso   1.00
O1320  O     0.53821   0.77225   0.75000   0.00000  Uiso   1.00
O1321  O     0.48076   0.83335   0.67319   0.00000  Uiso   1.00
O1322  O     0.55720   0.83334   0.67319   0.00000  Uiso   1.00
Zn1323 Zn    0.44896   0.83334   0.75000   0.00000  Uiso   1.00
Zn1324 Zn    0.55104   0.83333   0.75000   0.00000  Uiso   1.00
Cl1325 Cl    0.62661   0.87572   0.59477   0.00000  Uiso   1.00
Cl1326 Cl    0.51619   0.71839   0.84683   0.00000  Uiso   1.00
O1327  O     0.49487   0.70996   0.66178   0.00000  Uiso   1.00
C1328  C     0.48176   0.68617   0.62318   0.00000  Uiso   1.00
H1329  H     0.47626   0.70805   0.59407   0.00000  Uiso   1.00
H1330  H     0.44772   0.66908   0.64072   0.00000  Uiso   1.00
H1331  H     0.51069   0.99780   0.60126   0.00000  Uiso   1.00
Cl1332 Cl    0.63322   0.76927   0.67764   0.00000  Uiso   1.00
Cl1333 Cl    0.40444   0.76731   0.68033   0.00000  Uiso   1.00
Cl1334 Cl    0.36585   0.89553   0.82442   0.00000  Uiso   1.00
O1335  O     0.60593   0.89629   0.80206   0.00000  Uiso   1.00
C1336  C     0.62074   0.93273   0.77186   0.00000  Uiso   1.00
H1337  H     0.59582   0.95854   0.78985   0.00000  Uiso   1.00
H1338  H     0.62076   0.92765   0.73044   0.00000  Uiso   1.00
H1339  H     0.65631   0.94381   0.77173   0.00000  Uiso   1.00
Cl1340 Cl    0.59242   0.93173   0.91499   0.00000  Uiso   1.00
O1341  O     0.63124   0.89942   0.98856   0.00000  Uiso   1.00
C1342  C     0.33348   0.87128   0.95986   0.00000  Uiso   1.00
H1343  H     0.34242   0.84882   0.98640   0.00000  Uiso   1.00
H1344  H     0.36606   0.88951   0.94023   0.00000  Uiso   1.00
H1345  H     0.65616   0.85388   0.92863   0.00000  Uiso   1.00
O1346  O     0.45832   0.82901   0.59471   0.00000  Uiso   1.00
C1347  C     0.43301   0.86718   0.60142   0.00000  Uiso   1.00
H1348  H     0.39641   0.86176   0.62790   0.00000  Uiso   1.00
H1349  H     0.43034   0.87810   0.56330   0.00000  Uiso   1.00
H1350  H     0.44922   0.89223   0.62024   0.00000  Uiso   1.00
O1351  O     0.38826   0.78992   0.90783   0.00000  Uiso   1.00
C1352  C     0.39257   0.74814   0.88805   0.00000  Uiso   1.00
H1353  H     0.39085   0.72492   0.91892   0.00000  Uiso   1.00
H1354  H     0.42559   0.74430   0.85441   0.00000  Uiso   1.00
H1355  H     0.36259   0.74119   0.87278   0.00000  Uiso   1.00
O1356  O     0.50452   0.95959   0.84032   0.00000  Uiso   1.00
C1357  C     0.45801   0.95610   0.87568   0.00000  Uiso   1.00
H1358  H     0.43779   0.93176   0.86115   0.00000  Uiso   1.00
H1359  H     0.43872   0.98656   0.88279   0.00000  Uiso   1.00
H1360  H     0.45989   0.94603   0.91436   0.00000  Uiso   1.00
C1361  C     0.83325   0.91316   0.75104   0.00000  Uiso   1.00
C1362  C     0.82044   0.82577   0.98408   0.00000  Uiso   1.00
C1363  C     0.82307   0.84356   0.93594   0.00000  Uiso   1.00
C1364  C     0.85072   0.84152   0.51182   0.00000  Uiso   1.00
C1365  C     0.88941   0.86827   0.98736   0.00000  Uiso   1.00
C1366  C     0.88976   0.88785   0.94060   0.00000  Uiso   1.00
C1367  C     0.85611   0.87622   0.91649   0.00000  Uiso   1.00
C1368  C     0.83878   0.83633   0.56602   0.00000  Uiso   1.00
C1369  C     0.91657   0.86266   0.56422   0.00000  Uiso   1.00
C1370  C     0.79277   0.82830   0.90800   0.00000  Uiso   1.00
C1371  C     0.83589   0.97979   0.79591   0.00000  Uiso   1.00
C1372  C     0.80739   0.83371   0.85132   0.00000  Uiso   1.00
C1373  C     0.83877   0.68967   0.79393   0.00000  Uiso   1.00
C1374  C     0.83327   0.70927   0.74987   0.00000  Uiso   1.00
C1375  C     0.82898   0.68701   0.70547   0.00000  Uiso   1.00
C1376  C     0.82964   0.97657   0.70672   0.00000  Uiso   1.00
C1377  C     0.83320   0.95727   0.75136   0.00000  Uiso   1.00
C1378  C     0.98417   0.80474   0.71973   0.00000  Uiso   1.00
C1379  C     0.69866   0.80481   0.71966   0.00000  Uiso   1.00
C1380  C     0.68243   0.86180   0.78027   0.00000  Uiso   1.00
C1381  C     0.96870   0.86362   0.77752   0.00000  Uiso   1.00
C1382  C     0.83329   0.75349   0.74959   0.00000  Uiso   1.00
C1383  C     0.85912   0.83543   0.64855   0.00000  Uiso   1.00
C1384  C     0.92408   0.87648   0.51269   0.00000  Uiso   1.00
C1385  C     0.87306   0.84327   0.59174   0.00000  Uiso   1.00
C1386  C     0.75655   0.79894   0.93076   0.00000  Uiso   1.00
C1387  C     0.75448   0.78134   0.97869   0.00000  Uiso   1.00
C1388  C     0.78805   0.79234   0.50294   0.00000  Uiso   1.00
H1389  H     0.82815   0.95696   0.67348   0.00000  Uiso   1.00
H1390  H     0.78798   0.77447   0.53678   0.00000  Uiso   1.00
H1391  H     0.72751   0.75829   0.99667   0.00000  Uiso   1.00
H1392  H     0.85613   0.89311   0.88205   0.00000  Uiso   1.00
N1393  N     0.71426   0.83334   0.75002   0.00000  Uiso   1.00
N1394  N     0.95239   0.83331   0.75001   0.00000  Uiso   1.00
O1395  O     0.79512   0.89442   0.75001   0.00000  Uiso   1.00
O1396  O     0.87157   0.89441   0.75001   0.00000  Uiso   1.00
O1397  O     0.77613   0.83333   0.82681   0.00000  Uiso   1.00
O1398  O     0.85258   0.83332   0.82681   0.00000  Uiso   1.00
O1399  O     0.79510   0.77226   0.75000   0.00000  Uiso   1.00
O1400  O     0.87154   0.77225   0.75000   0.00000  Uiso   1.00
O1401  O     0.81409   0.83335   0.67319   0.00000  Uiso   1.00
O1402  O     0.89053   0.83334   0.67319   0.00000  Uiso   1.00
Zn1403 Zn    0.78229   0.83334   0.75000   0.00000  Uiso   1.00
Zn1404 Zn    0.88438   0.83333   0.75000   0.00000  Uiso   1.00
Cl1405 Cl    0.95995   0.87572   0.59477   0.00000  Uiso   1.00
Cl1406 Cl    0.84953   0.71839   0.84683   0.00000  Uiso   1.00
O1407  O     0.82821   0.70996   0.66178   0.00000  Uiso   1.00
C1408  C     0.81509   0.68617   0.62318   0.00000  Uiso   1.00
H1409  H     0.80959   0.70805   0.59407   0.00000  Uiso   1.00
H1410  H     0.78106   0.66908   0.64072   0.00000  Uiso   1.00
H1411  H     0.84402   0.99780   0.60126   0.00000  Uiso   1.00
Cl1412 Cl    0.96655   0.76927   0.67764   0.00000  Uiso   1.00
Cl1413 Cl    0.73778   0.76731   0.68033   0.00000  Uiso   1.00
Cl1414 Cl    0.69918   0.89553   0.82442   0.00000  Uiso   1.00
O1415  O     0.93926   0.89629   0.80206   0.00000  Uiso   1.00
C1416  C     0.95407   0.93273   0.77186   0.00000  Uiso   1.00
H1417  H     0.92916   0.95854   0.78985   0.00000  Uiso   1.00
H1418  H     0.95409   0.92765   0.73044   0.00000  Uiso   1.00
H1419  H     0.98964   0.94381   0.77173   0.00000  Uiso   1.00
Cl1420 Cl    0.92575   0.93173   0.91499   0.00000  Uiso   1.00
O1421  O     0.96458   0.89942   0.98856   0.00000  Uiso   1.00
C1422  C     0.66681   0.87128   0.95986   0.00000  Uiso   1.00
H1423  H     0.67575   0.84882   0.98640   0.00000  Uiso   1.00
H1424  H     0.69940   0.88951   0.94023   0.00000  Uiso   1.00
H1425  H     0.98949   0.85388   0.92863   0.00000  Uiso   1.00
O1426  O     0.79166   0.82901   0.59471   0.00000  Uiso   1.00
C1427  C     0.76635   0.86718   0.60142   0.00000  Uiso   1.00
H1428  H     0.72974   0.86176   0.62790   0.00000  Uiso   1.00
H1429  H     0.76367   0.87810   0.56330   0.00000  Uiso   1.00
H1430  H     0.78256   0.89223   0.62024   0.00000  Uiso   1.00
O1431  O     0.72160   0.78992   0.90783   0.00000  Uiso   1.00
C1432  C     0.72591   0.74814   0.88805   0.00000  Uiso   1.00
H1433  H     0.72418   0.72492   0.91892   0.00000  Uiso   1.00
H1434  H     0.75892   0.74430   0.85441   0.00000  Uiso   1.00
H1435  H     0.69592   0.74119   0.87278   0.00000  Uiso   1.00
O1436  O     0.83785   0.95959   0.84032   0.00000  Uiso   1.00
C1437  C     0.79135   0.95610   0.87568   0.00000  Uiso   1.00
H1438  H     0.77113   0.93176   0.86115   0.00000  Uiso   1.00
H1439  H     0.77205   0.98656   0.88279   0.00000  Uiso   1.00
H1440  H     0.79322   0.94603   0.91436   0.00000  Uiso   1.00
loop_
_geom_bond_atom_site_label_1
_geom_bond_atom_site_label_2
_geom_bond_distance
_geom_bond_site_symmetry_2
_ccdc_geom_bond_type
C1     O35     1.281   .     A
C1     C17     1.404   .     S
C1     O36     1.286   .     A
C2     C3      1.399   .     A
C2     C724    1.414   .     S
C2     C748    1.417   .     S
C3     C7      1.412   .     A
C3     C10     1.414   .     A
C4     C8      1.391   .     A
C4     C722    1.414   1_554 S
C4     C725    1.416   1_554 S
C5     C6      1.408   .     A
C5     C724    1.416   .     S
C5     C744    1.419   .     S
C6     Cl60    1.764   .     S
C6     C7      1.392   .     A
C7     H32     1.078   .     S
C8     O66     1.388   .     S
C8     C25     1.410   .     A
C9     C25     1.413   .     A
C9     Cl45    1.771   .     S
C9     C24     1.405   .     A
C10    C12     1.452   .     S
C10    C26     1.411   .     A
C11    O76     1.383   .     S
C11    C17     1.395   .     A
C11    C253    1.378   .     S
C12    O37     1.295   .     A
C12    O38     1.295   .     A
C13    C14     1.402   .     A
C13    Cl46    1.772   .     S
C13    C491    1.378   1_545 S
C14    C22     1.407   .     S
C14    C15     1.404   .     A
C15    O47     1.401   .     S
C15    C496    1.395   1_545 S
C16    C17     1.391   .     A
C16    H29     1.083   .     S
C16    C255    1.395   .     S
C18    Cl52    1.760   .     S
C18    N34     1.369   .     A
C18    C99     1.422   .     S
C19    Cl53    1.754   .     S
C19    N33     1.372   .     A
C19    C178    1.422   1_455 S
C20    N33     1.367   .     A
C20    Cl54    1.754   .     S
C20    C181    1.427   1_455 S
C21    O55     1.379   .     S
C21    N34     1.371   .     A
C21    C100    1.427   .     S
C22    O40     1.280   .     A
C22    O39     1.288   .     A
C23    O42     1.305   .     A
C23    O41     1.294   .     A
C23    C25     1.469   .     S
C24    C725    1.419   1_554 S
C24    O781    1.382   1_554 S
C26    O71     1.387   .     S
C26    C27     1.395   .     A
C27    H31     1.082   .     S
C27    C748    1.388   .     S
C28    H30     1.081   .     S
C28    C722    1.417   1_554 S
C28    C747    1.388   1_554 S
N33    Zn43    2.023   .     S
N34    Zn44    2.023   .     S
O35    Zn43    1.976   .     S
O36    Zn44    1.986   .     S
O37    Zn43    2.001   .     S
O38    Zn44    1.969   .     S
O39    Zn43    1.986   .     S
O40    Zn44    1.976   .     S
O41    Zn43    1.969   .     S
O42    Zn44    2.001   .     S
O47    C48     1.411   .     S
C48    H50     1.113   .     S
C48    H49     1.109   .     S
C48    H531    1.111   1_545 S
H51    C288    1.111   .     S
O55    C56     1.415   .     S
C56    H57     1.106   .     S
C56    H59     1.109   .     S
C56    H58     1.114   .     S
O61    C744    1.382   .     S
O61    C142    1.409   .     S
C62    H64     1.109   .     S
C62    H63     1.112   .     S
C62    O221    1.409   1_455 S
C62    H225    1.113   1_455 S
H65    C142    1.113   .     S
O66    C67     1.415   .     S
C67    H68     1.109   .     S
C67    H69     1.112   .     S
C67    H70     1.114   .     S
O71    C72     1.409   .     S
C72    H75     1.109   .     S
C72    H74     1.107   .     S
C72    H73     1.111   .     S
O76    C77     1.412   .     S
C77    H78     1.109   .     S
C77    H79     1.114   .     S
C77    H80     1.109   .     S
C81    O115    1.281   .     A
C81    C97     1.404   .     S
C81    O116    1.286   .     A
C82    C83     1.399   .     A
C82    C804    1.414   .     S
C82    C828    1.417   .     S
C83    C87     1.412   .     A
C83    C90     1.414   .     A
C84    C88     1.391   .     A
C84    C802    1.414   1_554 S
C84    C805    1.416   1_554 S
C85    C86     1.408   .     A
C85    C804    1.416   .     S
C85    C824    1.419   .     S
C86    Cl140   1.764   .     S
C86    C87     1.392   .     A
C87    H112    1.078   .     S
C88    O146    1.388   .     S
C88    C105    1.410   .     A
C89    C105    1.413   .     A
C89    Cl125   1.771   .     S
C89    C104    1.405   .     A
C90    C92     1.452   .     S
C90    C106    1.411   .     A
C91    O156    1.383   .     S
C91    C97     1.395   .     A
C91    C333    1.378   .     S
C92    O117    1.295   .     A
C92    O118    1.295   .     A
C93    C94     1.402   .     A
C93    Cl126   1.772   .     S
C93    C571    1.378   1_545 S
C94    C102    1.407   .     S
C94    C95     1.404   .     A
C95    O127    1.401   .     S
C95    C576    1.395   1_545 S
C96    C97     1.391   .     A
C96    H109    1.083   .     S
C96    C335    1.395   .     S
C98    Cl132   1.760   .     S
C98    N114    1.369   .     A
C98    C179    1.422   .     S
C99    Cl133   1.754   .     S
C99    N113    1.372   .     A
C100   N113    1.367   .     A
C100   Cl134   1.754   .     S
C101   O135    1.379   .     S
C101   N114    1.371   .     A
C101   C180    1.427   .     S
C102   O120    1.280   .     A
C102   O119    1.288   .     A
C103   O122    1.305   .     A
C103   O121    1.294   .     A
C103   C105    1.469   .     S
C104   C805    1.419   1_554 S
C104   O861    1.382   1_554 S
C106   O151    1.387   .     S
C106   C107    1.395   .     A
C107   H111    1.082   .     S
C107   C828    1.388   .     S
C108   H110    1.081   .     S
C108   C802    1.417   1_554 S
C108   C827    1.388   1_554 S
N113   Zn123   2.023   .     S
N114   Zn124   2.023   .     S
O115   Zn123   1.976   .     S
O116   Zn124   1.986   .     S
O117   Zn123   2.001   .     S
O118   Zn124   1.969   .     S
O119   Zn123   1.986   .     S
O120   Zn124   1.976   .     S
O121   Zn123   1.969   .     S
O122   Zn124   2.001   .     S
O127   C128    1.411   .     S
C128   H130    1.113   .     S
C128   H129    1.109   .     S
C128   H611    1.111   1_545 S
H131   C368    1.111   .     S
O135   C136    1.415   .     S
C136   H137    1.106   .     S
C136   H139    1.109   .     S
C136   H138    1.114   .     S
O141   C824    1.382   .     S
O141   C222    1.409   .     S
C142   H144    1.109   .     S
C142   H143    1.112   .     S
H145   C222    1.113   .     S
O146   C147    1.415   .     S
C147   H148    1.109   .     S
C147   H149    1.112   .     S
C147   H150    1.114   .     S
O151   C152    1.409   .     S
C152   H155    1.109   .     S
C152   H154    1.107   .     S
C152   H153    1.111   .     S
O156   C157    1.412   .     S
C157   H158    1.109   .     S
C157   H159    1.114   .     S
C157   H160    1.109   .     S
C161   O195    1.281   .     A
C161   C177    1.404   .     S
C161   O196    1.286   .     A
C162   C163    1.399   .     A
C162   C884    1.414   .     S
C162   C908    1.417   .     S
C163   C167    1.412   .     A
C163   C170    1.414   .     A
C164   C168    1.391   .     A
C164   C882    1.414   1_554 S
C164   C885    1.416   1_554 S
C165   C166    1.408   .     A
C165   C884    1.416   .     S
C165   C904    1.419   .     S
C166   Cl220   1.764   .     S
C166   C167    1.392   .     A
C167   H192    1.078   .     S
C168   O226    1.388   .     S
C168   C185    1.410   .     A
C169   C185    1.413   .     A
C169   Cl205   1.771   .     S
C169   C184    1.405   .     A
C170   C172    1.452   .     S
C170   C186    1.411   .     A
C171   O236    1.383   .     S
C171   C177    1.395   .     A
C171   C413    1.378   .     S
C172   O197    1.295   .     A
C172   O198    1.295   .     A
C173   C174    1.402   .     A
C173   Cl206   1.772   .     S
C173   C651    1.378   1_545 S
C174   C182    1.407   .     S
C174   C175    1.404   .     A
C175   O207    1.401   .     S
C175   C656    1.395   1_545 S
C176   C177    1.391   .     A
C176   H189    1.083   .     S
C176   C415    1.395   .     S
C178   Cl212   1.760   .     S
C178   N194    1.369   .     A
C178   C19     1.422   1_655 S
C179   Cl213   1.754   .     S
C179   N193    1.372   .     A
C180   N193    1.367   .     A
C180   Cl214   1.754   .     S
C181   O215    1.379   .     S
C181   N194    1.371   .     A
C181   C20     1.427   1_655 S
C182   O200    1.280   .     A
C182   O199    1.288   .     A
C183   O202    1.305   .     A
C183   O201    1.294   .     A
C183   C185    1.469   .     S
C184   C885    1.419   1_554 S
C184   O941    1.382   1_554 S
C186   O231    1.387   .     S
C186   C187    1.395   .     A
C187   H191    1.082   .     S
C187   C908    1.388   .     S
C188   H190    1.081   .     S
C188   C882    1.417   1_554 S
C188   C907    1.388   1_554 S
N193   Zn203   2.023   .     S
N194   Zn204   2.023   .     S
O195   Zn203   1.976   .     S
O196   Zn204   1.986   .     S
O197   Zn203   2.001   .     S
O198   Zn204   1.969   .     S
O199   Zn203   1.986   .     S
O200   Zn204   1.976   .     S
O201   Zn203   1.969   .     S
O202   Zn204   2.001   .     S
O207   C208    1.411   .     S
C208   H210    1.113   .     S
C208   H209    1.109   .     S
C208   H691    1.111   1_545 S
H211   C448    1.111   .     S
O215   C216    1.415   .     S
C216   H217    1.106   .     S
C216   H219    1.109   .     S
C216   H218    1.114   .     S
O221   C904    1.382   .     S
O221   C62     1.409   1_655 S
C222   H224    1.109   .     S
C222   H223    1.112   .     S
H225   C62     1.113   1_655 S
O226   C227    1.415   .     S
C227   H228    1.109   .     S
C227   H229    1.112   .     S
C227   H230    1.114   .     S
O231   C232    1.409   .     S
C232   H235    1.109   .     S
C232   H234    1.107   .     S
C232   H233    1.111   .     S
O236   C237    1.412   .     S
C237   H238    1.109   .     S
C237   H239    1.114   .     S
C237   H240    1.109   .     S
C241   O275    1.281   .     A
C241   C257    1.404   .     S
C241   O276    1.286   .     A
C242   C243    1.399   .     A
C242   C964    1.414   .     S
C242   C988    1.417   .     S
C243   C247    1.412   .     A
C243   C250    1.414   .     A
C244   C248    1.391   .     A
C244   C962    1.414   1_554 S
C244   C965    1.416   1_554 S
C245   C246    1.408   .     A
C245   C964    1.416   .     S
C245   C984    1.419   .     S
C246   Cl300   1.764   .     S
C246   C247    1.392   .     A
C247   H272    1.078   .     S
C248   O306    1.388   .     S
C248   C265    1.410   .     A
C249   C265    1.413   .     A
C249   Cl285   1.771   .     S
C249   C264    1.405   .     A
C250   C252    1.452   .     S
C250   C266    1.411   .     A
C251   O316    1.383   .     S
C251   C257    1.395   .     A
C251   C493    1.378   .     S
C252   O277    1.295   .     A
C252   O278    1.295   .     A
C253   C254    1.402   .     A
C253   Cl286   1.772   .     S
C254   C262    1.407   .     S
C254   C255    1.404   .     A
C255   O287    1.401   .     S
C256   C257    1.391   .     A
C256   H269    1.083   .     S
C256   C495    1.395   .     S
C258   Cl292   1.760   .     S
C258   N274    1.369   .     A
C258   C339    1.422   .     S
C259   Cl293   1.754   .     S
C259   N273    1.372   .     A
C259   C418    1.422   1_455 S
C260   N273    1.367   .     A
C260   Cl294   1.754   .     S
C260   C421    1.427   1_455 S
C261   O295    1.379   .     S
C261   N274    1.371   .     A
C261   C340    1.427   .     S
C262   O280    1.280   .     A
C262   O279    1.288   .     A
C263   O282    1.305   .     A
C263   O281    1.294   .     A
C263   C265    1.469   .     S
C264   C965    1.419   1_554 S
C264   O1021   1.382   1_554 S
C266   O311    1.387   .     S
C266   C267    1.395   .     A
C267   H271    1.082   .     S
C267   C988    1.388   .     S
C268   H270    1.081   .     S
C268   C962    1.417   1_554 S
C268   C987    1.388   1_554 S
N273   Zn283   2.023   .     S
N274   Zn284   2.023   .     S
O275   Zn283   1.976   .     S
O276   Zn284   1.986   .     S
O277   Zn283   2.001   .     S
O278   Zn284   1.969   .     S
O279   Zn283   1.986   .     S
O280   Zn284   1.976   .     S
O281   Zn283   1.969   .     S
O282   Zn284   2.001   .     S
O287   C288    1.411   .     S
C288   H290    1.113   .     S
C288   H289    1.109   .     S
H291   C528    1.111   .     S
O295   C296    1.415   .     S
C296   H297    1.106   .     S
C296   H299    1.109   .     S
C296   H298    1.114   .     S
O301   C984    1.382   .     S
O301   C382    1.409   .     S
C302   H304    1.109   .     S
C302   H303    1.112   .     S
C302   O461    1.409   1_455 S
C302   H465    1.113   1_455 S
H305   C382    1.113   .     S
O306   C307    1.415   .     S
C307   H308    1.109   .     S
C307   H309    1.112   .     S
C307   H310    1.114   .     S
O311   C312    1.409   .     S
C312   H315    1.109   .     S
C312   H314    1.107   .     S
C312   H313    1.111   .     S
O316   C317    1.412   .     S
C317   H318    1.109   .     S
C317   H319    1.114   .     S
C317   H320    1.109   .     S
C321   O355    1.281   .     A
C321   C337    1.404   .     S
C321   O356    1.286   .     A
C322   C323    1.399   .     A
C322   C1044   1.414   .     S
C322   C1068   1.417   .     S
C323   C327    1.412   .     A
C323   C330    1.414   .     A
C324   C328    1.391   .     A
C324   C1042   1.414   1_554 S
C324   C1045   1.416   1_554 S
C325   C326    1.408   .     A
C325   C1044   1.416   .     S
C325   C1064   1.419   .     S
C326   Cl380   1.764   .     S
C326   C327    1.392   .     A
C327   H352    1.078   .     S
C328   O386    1.388   .     S
C328   C345    1.410   .     A
C329   C345    1.413   .     A
C329   Cl365   1.771   .     S
C329   C344    1.405   .     A
C330   C332    1.452   .     S
C330   C346    1.411   .     A
C331   O396    1.383   .     S
C331   C337    1.395   .     A
C331   C573    1.378   .     S
C332   O357    1.295   .     A
C332   O358    1.295   .     A
C333   C334    1.402   .     A
C333   Cl366   1.772   .     S
C334   C342    1.407   .     S
C334   C335    1.404   .     A
C335   O367    1.401   .     S
C336   C337    1.391   .     A
C336   H349    1.083   .     S
C336   C575    1.395   .     S
C338   Cl372   1.760   .     S
C338   N354    1.369   .     A
C338   C419    1.422   .     S
C339   Cl373   1.754   .     S
C339   N353    1.372   .     A
C340   N353    1.367   .     A
C340   Cl374   1.754   .     S
C341   O375    1.379   .     S
C341   N354    1.371   .     A
C341   C420    1.427   .     S
C342   O360    1.280   .     A
C342   O359    1.288   .     A
C343   O362    1.305   .     A
C343   O361    1.294   .     A
C343   C345    1.469   .     S
C344   C1045   1.419   1_554 S
C344   O1101   1.382   1_554 S
C346   O391    1.387   .     S
C346   C347    1.395   .     A
C347   H351    1.082   .     S
C347   C1068   1.388   .     S
C348   H350    1.081   .     S
C348   C1042   1.417   1_554 S
C348   C1067   1.388   1_554 S
N353   Zn363   2.023   .     S
N354   Zn364   2.023   .     S
O355   Zn363   1.976   .     S
O356   Zn364   1.986   .     S
O357   Zn363   2.001   .     S
O358   Zn364   1.969   .     S
O359   Zn363   1.986   .     S
O360   Zn364   1.976   .     S
O361   Zn363   1.969   .     S
O362   Zn364   2.001   .     S
O367   C368    1.411   .     S
C368   H370    1.113   .     S
C368   H369    1.109   .     S
H371   C608    1.111   .     S
O375   C376    1.415   .     S
C376   H377    1.106   .     S
C376   H379    1.109   .     S
C376   H378    1.114   .     S
O381   C1064   1.382   .     S
O381   C462    1.409   .     S
C382   H384    1.109   .     S
C382   H383    1.112   .     S
H385   C462    1.113   .     S
O386   C387    1.415   .     S
C387   H388    1.109   .     S
C387   H389    1.112   .     S
C387   H390    1.114   .     S
O391   C392    1.409   .     S
C392   H395    1.109   .     S
C392   H394    1.107   .     S
C392   H393    1.111   .     S
O396   C397    1.412   .     S
C397   H398    1.109   .     S
C397   H399    1.114   .     S
C397   H400    1.109   .     S
C401   O435    1.281   .     A
C401   C417    1.404   .     S
C401   O436    1.286   .     A
C402   C403    1.399   .     A
C402   C1124   1.414   .     S
C402   C1148   1.417   .     S
C403   C407    1.412   .     A
C403   C410    1.414   .     A
C404   C408    1.391   .     A
C404   C1122   1.414   1_554 S
C404   C1125   1.416   1_554 S
C405   C406    1.408   .     A
C405   C1124   1.416   .     S
C405   C1144   1.419   .     S
C406   Cl460   1.764   .     S
C406   C407    1.392   .     A
C407   H432    1.078   .     S
C408   O466    1.388   .     S
C408   C425    1.410   .     A
C409   C425    1.413   .     A
C409   Cl445   1.771   .     S
C409   C424    1.405   .     A
C410   C412    1.452   .     S
C410   C426    1.411   .     A
C411   O476    1.383   .     S
C411   C417    1.395   .     A
C411   C653    1.378   .     S
C412   O437    1.295   .     A
C412   O438    1.295   .     A
C413   C414    1.402   .     A
C413   Cl446   1.772   .     S
C414   C422    1.407   .     S
C414   C415    1.404   .     A
C415   O447    1.401   .     S
C416   C417    1.391   .     A
C416   H429    1.083   .     S
C416   C655    1.395   .     S
C418   Cl452   1.760   .     S
C418   N434    1.369   .     A
C418   C259    1.422   1_655 S
C419   Cl453   1.754   .     S
C419   N433    1.372   .     A
C420   N433    1.367   .     A
C420   Cl454   1.754   .     S
C421   O455    1.379   .     S
C421   N434    1.371   .     A
C421   C260    1.427   1_655 S
C422   O440    1.280   .     A
C422   O439    1.288   .     A
C423   O442    1.305   .     A
C423   O441    1.294   .     A
C423   C425    1.469   .     S
C424   C1125   1.419   1_554 S
C424   O1181   1.382   1_554 S
C426   O471    1.387   .     S
C426   C427    1.395   .     A
C427   H431    1.082   .     S
C427   C1148   1.388   .     S
C428   H430    1.081   .     S
C428   C1122   1.417   1_554 S
C428   C1147   1.388   1_554 S
N433   Zn443   2.023   .     S
N434   Zn444   2.023   .     S
O435   Zn443   1.976   .     S
O436   Zn444   1.986   .     S
O437   Zn443   2.001   .     S
O438   Zn444   1.969   .     S
O439   Zn443   1.986   .     S
O440   Zn444   1.976   .     S
O441   Zn443   1.969   .     S
O442   Zn444   2.001   .     S
O447   C448    1.411   .     S
C448   H450    1.113   .     S
C448   H449    1.109   .     S
H451   C688    1.111   .     S
O455   C456    1.415   .     S
C456   H457    1.106   .     S
C456   H459    1.109   .     S
C456   H458    1.114   .     S
O461   C1144   1.382   .     S
O461   C302    1.409   1_655 S
C462   H464    1.109   .     S
C462   H463    1.112   .     S
H465   C302    1.113   1_655 S
O466   C467    1.415   .     S
C467   H468    1.109   .     S
C467   H469    1.112   .     S
C467   H470    1.114   .     S
O471   C472    1.409   .     S
C472   H475    1.109   .     S
C472   H474    1.107   .     S
C472   H473    1.111   .     S
O476   C477    1.412   .     S
C477   H478    1.109   .     S
C477   H479    1.114   .     S
C477   H480    1.109   .     S
C481   O515    1.281   .     A
C481   C497    1.404   .     S
C481   O516    1.286   .     A
C482   C483    1.399   .     A
C482   C1204   1.414   .     S
C482   C1228   1.417   .     S
C483   C487    1.412   .     A
C483   C490    1.414   .     A
C484   C488    1.391   .     A
C484   C1202   1.414   1_554 S
C484   C1205   1.416   1_554 S
C485   C486    1.408   .     A
C485   C1204   1.416   .     S
C485   C1224   1.419   .     S
C486   Cl540   1.764   .     S
C486   C487    1.392   .     A
C487   H512    1.078   .     S
C488   O546    1.388   .     S
C488   C505    1.410   .     A
C489   C505    1.413   .     A
C489   Cl525   1.771   .     S
C489   C504    1.405   .     A
C490   C492    1.452   .     S
C490   C506    1.411   .     A
C491   O556    1.383   .     S
C491   C497    1.395   .     A
C491   C13     1.378   1_565 S
C492   O517    1.295   .     A
C492   O518    1.295   .     A
C493   C494    1.402   .     A
C493   Cl526   1.772   .     S
C494   C502    1.407   .     S
C494   C495    1.404   .     A
C495   O527    1.401   .     S
C496   C497    1.391   .     A
C496   H509    1.083   .     S
C496   C15     1.395   1_565 S
C498   Cl532   1.760   .     S
C498   N514    1.369   .     A
C498   C579    1.422   .     S
C499   Cl533   1.754   .     S
C499   N513    1.372   .     A
C499   C658    1.422   1_455 S
C500   N513    1.367   .     A
C500   Cl534   1.754   .     S
C500   C661    1.427   1_455 S
C501   O535    1.379   .     S
C501   N514    1.371   .     A
C501   C580    1.427   .     S
C502   O520    1.280   .     A
C502   O519    1.288   .     A
C503   O522    1.305   .     A
C503   O521    1.294   .     A
C503   C505    1.469   .     S
C504   C1205   1.419   1_554 S
C504   O1261   1.382   1_554 S
C506   O551    1.387   .     S
C506   C507    1.395   .     A
C507   H511    1.082   .     S
C507   C1228   1.388   .     S
C508   H510    1.081   .     S
C508   C1202   1.417   1_554 S
C508   C1227   1.388   1_554 S
N513   Zn523   2.023   .     S
N514   Zn524   2.023   .     S
O515   Zn523   1.976   .     S
O516   Zn524   1.986   .     S
O517   Zn523   2.001   .     S
O518   Zn524   1.969   .     S
O519   Zn523   1.986   .     S
O520   Zn524   1.976   .     S
O521   Zn523   1.969   .     S
O522   Zn524   2.001   .     S
O527   C528    1.411   .     S
C528   H530    1.113   .     S
C528   H529    1.109   .     S
H531   C48     1.111   1_565 S
O535   C536    1.415   .     S
C536   H537    1.106   .     S
C536   H539    1.109   .     S
C536   H538    1.114   .     S
O541   C1224   1.382   .     S
O541   C622    1.409   .     S
C542   H544    1.109   .     S
C542   H543    1.112   .     S
C542   O701    1.409   1_455 S
C542   H705    1.113   1_455 S
H545   C622    1.113   .     S
O546   C547    1.415   .     S
C547   H548    1.109   .     S
C547   H549    1.112   .     S
C547   H550    1.114   .     S
O551   C552    1.409   .     S
C552   H555    1.109   .     S
C552   H554    1.107   .     S
C552   H553    1.111   .     S
O556   C557    1.412   .     S
C557   H558    1.109   .     S
C557   H559    1.114   .     S
C557   H560    1.109   .     S
C561   O595    1.281   .     A
C561   C577    1.404   .     S
C561   O596    1.286   .     A
C562   C563    1.399   .     A
C562   C1284   1.414   .     S
C562   C1308   1.417   .     S
C563   C567    1.412   .     A
C563   C570    1.414   .     A
C564   C568    1.391   .     A
C564   C1282   1.414   1_554 S
C564   C1285   1.416   1_554 S
C565   C566    1.408   .     A
C565   C1284   1.416   .     S
C565   C1304   1.419   .     S
C566   Cl620   1.764   .     S
C566   C567    1.392   .     A
C567   H592    1.078   .     S
C568   O626    1.388   .     S
C568   C585    1.410   .     A
C569   C585    1.413   .     A
C569   Cl605   1.771   .     S
C569   C584    1.405   .     A
C570   C572    1.452   .     S
C570   C586    1.411   .     A
C571   O636    1.383   .     S
C571   C577    1.395   .     A
C571   C93     1.378   1_565 S
C572   O597    1.295   .     A
C572   O598    1.295   .     A
C573   C574    1.402   .     A
C573   Cl606   1.772   .     S
C574   C582    1.407   .     S
C574   C575    1.404   .     A
C575   O607    1.401   .     S
C576   C577    1.391   .     A
C576   H589    1.083   .     S
C576   C95     1.395   1_565 S
C578   Cl612   1.760   .     S
C578   N594    1.369   .     A
C578   C659    1.422   .     S
C579   Cl613   1.754   .     S
C579   N593    1.372   .     A
C580   N593    1.367   .     A
C580   Cl614   1.754   .     S
C581   O615    1.379   .     S
C581   N594    1.371   .     A
C581   C660    1.427   .     S
C582   O600    1.280   .     A
C582   O599    1.288   .     A
C583   O602    1.305   .     A
C583   O601    1.294   .     A
C583   C585    1.469   .     S
C584   C1285   1.419   1_554 S
C584   O1341   1.382   1_554 S
C586   O631    1.387   .     S
C586   C587    1.395   .     A
C587   H591    1.082   .     S
C587   C1308   1.388   .     S
C588   H590    1.081   .     S
C588   C1282   1.417   1_554 S
C588   C1307   1.388   1_554 S
N593   Zn603   2.023   .     S
N594   Zn604   2.023   .     S
O595   Zn603   1.976   .     S
O596   Zn604   1.986   .     S
O597   Zn603   2.001   .     S
O598   Zn604   1.969   .     S
O599   Zn603   1.986   .     S
O600   Zn604   1.976   .     S
O601   Zn603   1.969   .     S
O602   Zn604   2.001   .     S
O607   C608    1.411   .     S
C608   H610    1.113   .     S
C608   H609    1.109   .     S
H611   C128    1.111   1_565 S
O615   C616    1.415   .     S
C616   H617    1.106   .     S
C616   H619    1.109   .     S
C616   H618    1.114   .     S
O621   C1304   1.382   .     S
O621   C702    1.409   .     S
C622   H624    1.109   .     S
C622   H623    1.112   .     S
H625   C702    1.113   .     S
O626   C627    1.415   .     S
C627   H628    1.109   .     S
C627   H629    1.112   .     S
C627   H630    1.114   .     S
O631   C632    1.409   .     S
C632   H635    1.109   .     S
C632   H634    1.107   .     S
C632   H633    1.111   .     S
O636   C637    1.412   .     S
C637   H638    1.109   .     S
C637   H639    1.114   .     S
C637   H640    1.109   .     S
C641   O675    1.281   .     A
C641   C657    1.404   .     S
C641   O676    1.286   .     A
C642   C643    1.399   .     A
C642   C1364   1.414   .     S
C642   C1388   1.417   .     S
C643   C647    1.412   .     A
C643   C650    1.414   .     A
C644   C648    1.391   .     A
C644   C1362   1.414   1_554 S
C644   C1365   1.416   1_554 S
C645   C646    1.408   .     A
C645   C1364   1.416   .     S
C645   C1384   1.419   .     S
C646   Cl700   1.764   .     S
C646   C647    1.392   .     A
C647   H672    1.078   .     S
C648   O706    1.388   .     S
C648   C665    1.410   .     A
C649   C665    1.413   .     A
C649   Cl685   1.771   .     S
C649   C664    1.405   .     A
C650   C652    1.452   .     S
C650   C666    1.411   .     A
C651   O716    1.383   .     S
C651   C657    1.395   .     A
C651   C173    1.378   1_565 S
C652   O677    1.295   .     A
C652   O678    1.295   .     A
C653   C654    1.402   .     A
C653   Cl686   1.772   .     S
C654   C662    1.407   .     S
C654   C655    1.404   .     A
C655   O687    1.401   .     S
C656   C657    1.391   .     A
C656   H669    1.083   .     S
C656   C175    1.395   1_565 S
C658   Cl692   1.760   .     S
C658   N674    1.369   .     A
C658   C499    1.422   1_655 S
C659   Cl693   1.754   .     S
C659   N673    1.372   .     A
C660   N673    1.367   .     A
C660   Cl694   1.754   .     S
C661   O695    1.379   .     S
C661   N674    1.371   .     A
C661   C500    1.427   1_655 S
C662   O680    1.280   .     A
C662   O679    1.288   .     A
C663   O682    1.305   .     A
C663   O681    1.294   .     A
C663   C665    1.469   .     S
C664   C1365   1.419   1_554 S
C664   O1421   1.382   1_554 S
C666   O711    1.387   .     S
C666   C667    1.395   .     A
C667   H671    1.082   .     S
C667   C1388   1.388   .     S
C668   H670    1.081   .     S
C668   C1362   1.417   1_554 S
C668   C1387   1.388   1_554 S
N673   Zn683   2.023   .     S
N674   Zn684   2.023   .     S
O675   Zn683   1.976   .     S
O676   Zn684   1.986   .     S
O677   Zn683   2.001   .     S
O678   Zn684   1.969   .     S
O679   Zn683   1.986   .     S
O680   Zn684   1.976   .     S
O681   Zn683   1.969   .     S
O682   Zn684   2.001   .     S
O687   C688    1.411   .     S
C688   H690    1.113   .     S
C688   H689    1.109   .     S
H691   C208    1.111   1_565 S
O695   C696    1.415   .     S
C696   H697    1.106   .     S
C696   H699    1.109   .     S
C696   H698    1.114   .     S
O701   C1384   1.382   .     S
O701   C542    1.409   1_655 S
C702   H704    1.109   .     S
C702   H703    1.112   .     S
H705   C542    1.113   1_655 S
O706   C707    1.415   .     S
C707   H708    1.109   .     S
C707   H709    1.112   .     S
C707   H710    1.114   .     S
O711   C712    1.409   .     S
C712   H715    1.109   .     S
C712   H714    1.107   .     S
C712   H713    1.111   .     S
O716   C717    1.412   .     S
C717   H718    1.109   .     S
C717   H719    1.114   .     S
C717   H720    1.109   .     S
C721   O755    1.281   .     A
C721   C737    1.404   .     S
C721   O756    1.286   .     A
C722   C723    1.399   .     A
C722   C4      1.414   1_556 S
C722   C28     1.417   1_556 S
C723   C727    1.412   .     A
C723   C730    1.414   .     A
C724   C728    1.391   .     A
C725   C726    1.408   .     A
C725   C4      1.416   1_556 S
C725   C24     1.419   1_556 S
C726   Cl780   1.764   .     S
C726   C727    1.392   .     A
C727   H752    1.078   .     S
C728   O786    1.388   .     S
C728   C745    1.410   .     A
C729   C745    1.413   .     A
C729   Cl765   1.771   .     S
C729   C744    1.405   .     A
C730   C732    1.452   .     S
C730   C746    1.411   .     A
C731   O796    1.383   .     S
C731   C737    1.395   .     A
C731   C973    1.378   .     S
C732   O757    1.295   .     A
C732   O758    1.295   .     A
C733   C734    1.402   .     A
C733   Cl766   1.772   .     S
C733   C1211   1.378   1_545 S
C734   C742    1.407   .     S
C734   C735    1.404   .     A
C735   O767    1.401   .     S
C735   C1216   1.395   1_545 S
C736   C737    1.391   .     A
C736   H749    1.083   .     S
C736   C975    1.395   .     S
C738   Cl772   1.760   .     S
C738   N754    1.369   .     A
C738   C819    1.422   .     S
C739   Cl773   1.754   .     S
C739   N753    1.372   .     A
C739   C898    1.422   1_455 S
C740   N753    1.367   .     A
C740   Cl774   1.754   .     S
C740   C901    1.427   1_455 S
C741   O775    1.379   .     S
C741   N754    1.371   .     A
C741   C820    1.427   .     S
C742   O760    1.280   .     A
C742   O759    1.288   .     A
C743   O762    1.305   .     A
C743   O761    1.294   .     A
C743   C745    1.469   .     S
C746   O791    1.387   .     S
C746   C747    1.395   .     A
C747   H751    1.082   .     S
C747   C28     1.388   1_556 S
C748   H750    1.081   .     S
N753   Zn763   2.023   .     S
N754   Zn764   2.023   .     S
O755   Zn763   1.976   .     S
O756   Zn764   1.986   .     S
O757   Zn763   2.001   .     S
O758   Zn764   1.969   .     S
O759   Zn763   1.986   .     S
O760   Zn764   1.976   .     S
O761   Zn763   1.969   .     S
O762   Zn764   2.001   .     S
O767   C768    1.411   .     S
C768   H770    1.113   .     S
C768   H769    1.109   .     S
C768   H1251   1.111   1_545 S
H771   C1008   1.111   .     S
O775   C776    1.415   .     S
C776   H777    1.106   .     S
C776   H779    1.109   .     S
C776   H778    1.114   .     S
O781   C24     1.382   1_556 S
O781   C862    1.409   .     S
C782   H784    1.109   .     S
C782   H783    1.112   .     S
C782   O941    1.409   1_455 S
C782   H945    1.113   1_455 S
H785   C862    1.113   .     S
O786   C787    1.415   .     S
C787   H788    1.109   .     S
C787   H789    1.112   .     S
C787   H790    1.114   .     S
O791   C792    1.409   .     S
C792   H795    1.109   .     S
C792   H794    1.107   .     S
C792   H793    1.111   .     S
O796   C797    1.412   .     S
C797   H798    1.109   .     S
C797   H799    1.114   .     S
C797   H800    1.109   .     S
C801   O835    1.281   .     A
C801   C817    1.404   .     S
C801   O836    1.286   .     A
C802   C803    1.399   .     A
C802   C84     1.414   1_556 S
C802   C108    1.417   1_556 S
C803   C807    1.412   .     A
C803   C810    1.414   .     A
C804   C808    1.391   .     A
C805   C806    1.408   .     A
C805   C84     1.416   1_556 S
C805   C104    1.419   1_556 S
C806   Cl860   1.764   .     S
C806   C807    1.392   .     A
C807   H832    1.078   .     S
C808   O866    1.388   .     S
C808   C825    1.410   .     A
C809   C825    1.413   .     A
C809   Cl845   1.771   .     S
C809   C824    1.405   .     A
C810   C812    1.452   .     S
C810   C826    1.411   .     A
C811   O876    1.383   .     S
C811   C817    1.395   .     A
C811   C1053   1.378   .     S
C812   O837    1.295   .     A
C812   O838    1.295   .     A
C813   C814    1.402   .     A
C813   Cl846   1.772   .     S
C813   C1291   1.378   1_545 S
C814   C822    1.407   .     S
C814   C815    1.404   .     A
C815   O847    1.401   .     S
C815   C1296   1.395   1_545 S
C816   C817    1.391   .     A
C816   H829    1.083   .     S
C816   C1055   1.395   .     S
C818   Cl852   1.760   .     S
C818   N834    1.369   .     A
C818   C899    1.422   .     S
C819   Cl853   1.754   .     S
C819   N833    1.372   .     A
C820   N833    1.367   .     A
C820   Cl854   1.754   .     S
C821   O855    1.379   .     S
C821   N834    1.371   .     A
C821   C900    1.427   .     S
C822   O840    1.280   .     A
C822   O839    1.288   .     A
C823   O842    1.305   .     A
C823   O841    1.294   .     A
C823   C825    1.469   .     S
C826   O871    1.387   .     S
C826   C827    1.395   .     A
C827   H831    1.082   .     S
C827   C108    1.388   1_556 S
C828   H830    1.081   .     S
N833   Zn843   2.023   .     S
N834   Zn844   2.023   .     S
O835   Zn843   1.976   .     S
O836   Zn844   1.986   .     S
O837   Zn843   2.001   .     S
O838   Zn844   1.969   .     S
O839   Zn843   1.986   .     S
O840   Zn844   1.976   .     S
O841   Zn843   1.969   .     S
O842   Zn844   2.001   .     S
O847   C848    1.411   .     S
C848   H850    1.113   .     S
C848   H849    1.109   .     S
C848   H1331   1.111   1_545 S
H851   C1088   1.111   .     S
O855   C856    1.415   .     S
C856   H857    1.106   .     S
C856   H859    1.109   .     S
C856   H858    1.114   .     S
O861   C104    1.382   1_556 S
O861   C942    1.409   .     S
C862   H864    1.109   .     S
C862   H863    1.112   .     S
H865   C942    1.113   .     S
O866   C867    1.415   .     S
C867   H868    1.109   .     S
C867   H869    1.112   .     S
C867   H870    1.114   .     S
O871   C872    1.409   .     S
C872   H875    1.109   .     S
C872   H874    1.107   .     S
C872   H873    1.111   .     S
O876   C877    1.412   .     S
C877   H878    1.109   .     S
C877   H879    1.114   .     S
C877   H880    1.109   .     S
C881   O915    1.281   .     A
C881   C897    1.404   .     S
C881   O916    1.286   .     A
C882   C883    1.399   .     A
C882   C164    1.414   1_556 S
C882   C188    1.417   1_556 S
C883   C887    1.412   .     A
C883   C890    1.414   .     A
C884   C888    1.391   .     A
C885   C886    1.408   .     A
C885   C164    1.416   1_556 S
C885   C184    1.419   1_556 S
C886   Cl940   1.764   .     S
C886   C887    1.392   .     A
C887   H912    1.078   .     S
C888   O946    1.388   .     S
C888   C905    1.410   .     A
C889   C905    1.413   .     A
C889   Cl925   1.771   .     S
C889   C904    1.405   .     A
C890   C892    1.452   .     S
C890   C906    1.411   .     A
C891   O956    1.383   .     S
C891   C897    1.395   .     A
C891   C1133   1.378   .     S
C892   O917    1.295   .     A
C892   O918    1.295   .     A
C893   C894    1.402   .     A
C893   Cl926   1.772   .     S
C893   C1371   1.378   1_545 S
C894   C902    1.407   .     S
C894   C895    1.404   .     A
C895   O927    1.401   .     S
C895   C1376   1.395   1_545 S
C896   C897    1.391   .     A
C896   H909    1.083   .     S
C896   C1135   1.395   .     S
C898   Cl932   1.760   .     S
C898   N914    1.369   .     A
C898   C739    1.422   1_655 S
C899   Cl933   1.754   .     S
C899   N913    1.372   .     A
C900   N913    1.367   .     A
C900   Cl934   1.754   .     S
C901   O935    1.379   .     S
C901   N914    1.371   .     A
C901   C740    1.427   1_655 S
C902   O920    1.280   .     A
C902   O919    1.288   .     A
C903   O922    1.305   .     A
C903   O921    1.294   .     A
C903   C905    1.469   .     S
C906   O951    1.387   .     S
C906   C907    1.395   .     A
C907   H911    1.082   .     S
C907   C188    1.388   1_556 S
C908   H910    1.081   .     S
N913   Zn923   2.023   .     S
N914   Zn924   2.023   .     S
O915   Zn923   1.976   .     S
O916   Zn924   1.986   .     S
O917   Zn923   2.001   .     S
O918   Zn924   1.969   .     S
O919   Zn923   1.986   .     S
O920   Zn924   1.976   .     S
O921   Zn923   1.969   .     S
O922   Zn924   2.001   .     S
O927   C928    1.411   .     S
C928   H930    1.113   .     S
C928   H929    1.109   .     S
C928   H1411   1.111   1_545 S
H931   C1168   1.111   .     S
O935   C936    1.415   .     S
C936   H937    1.106   .     S
C936   H939    1.109   .     S
C936   H938    1.114   .     S
O941   C184    1.382   1_556 S
O941   C782    1.409   1_655 S
C942   H944    1.109   .     S
C942   H943    1.112   .     S
H945   C782    1.113   1_655 S
O946   C947    1.415   .     S
C947   H948    1.109   .     S
C947   H949    1.112   .     S
C947   H950    1.114   .     S
O951   C952    1.409   .     S
C952   H955    1.109   .     S
C952   H954    1.107   .     S
C952   H953    1.111   .     S
O956   C957    1.412   .     S
C957   H958    1.109   .     S
C957   H959    1.114   .     S
C957   H960    1.109   .     S
C961   O995    1.281   .     A
C961   C977    1.404   .     S
C961   O996    1.286   .     A
C962   C963    1.399   .     A
C962   C244    1.414   1_556 S
C962   C268    1.417   1_556 S
C963   C967    1.412   .     A
C963   C970    1.414   .     A
C964   C968    1.391   .     A
C965   C966    1.408   .     A
C965   C244    1.416   1_556 S
C965   C264    1.419   1_556 S
C966   Cl1020  1.764   .     S
C966   C967    1.392   .     A
C967   H992    1.078   .     S
C968   O1026   1.388   .     S
C968   C985    1.410   .     A
C969   C985    1.413   .     A
C969   Cl1005  1.771   .     S
C969   C984    1.405   .     A
C970   C972    1.452   .     S
C970   C986    1.411   .     A
C971   O1036   1.383   .     S
C971   C977    1.395   .     A
C971   C1213   1.378   .     S
C972   O997    1.295   .     A
C972   O998    1.295   .     A
C973   C974    1.402   .     A
C973   Cl1006  1.772   .     S
C974   C982    1.407   .     S
C974   C975    1.404   .     A
C975   O1007   1.401   .     S
C976   C977    1.391   .     A
C976   H989    1.083   .     S
C976   C1215   1.395   .     S
C978   Cl1012  1.760   .     S
C978   N994    1.369   .     A
C978   C1059   1.422   .     S
C979   Cl1013  1.754   .     S
C979   N993    1.372   .     A
C979   C1138   1.422   1_455 S
C980   N993    1.367   .     A
C980   Cl1014  1.754   .     S
C980   C1141   1.427   1_455 S
C981   O1015   1.379   .     S
C981   N994    1.371   .     A
C981   C1060   1.427   .     S
C982   O1000   1.280   .     A
C982   O999    1.288   .     A
C983   O1002   1.305   .     A
C983   O1001   1.294   .     A
C983   C985    1.469   .     S
C986   O1031   1.387   .     S
C986   C987    1.395   .     A
C987   H991    1.082   .     S
C987   C268    1.388   1_556 S
C988   H990    1.081   .     S
N993   Zn1003  2.023   .     S
N994   Zn1004  2.023   .     S
O995   Zn1003  1.976   .     S
O996   Zn1004  1.986   .     S
O997   Zn1003  2.001   .     S
O998   Zn1004  1.969   .     S
O999   Zn1003  1.986   .     S
O1000  Zn1004  1.976   .     S
O1001  Zn1003  1.969   .     S
O1002  Zn1004  2.001   .     S
O1007  C1008   1.411   .     S
C1008  H1010   1.113   .     S
C1008  H1009   1.109   .     S
H1011  C1248   1.111   .     S
O1015  C1016   1.415   .     S
C1016  H1017   1.106   .     S
C1016  H1019   1.109   .     S
C1016  H1018   1.114   .     S
O1021  C264    1.382   1_556 S
O1021  C1102   1.409   .     S
C1022  H1024   1.109   .     S
C1022  H1023   1.112   .     S
C1022  O1181   1.409   1_455 S
C1022  H1185   1.113   1_455 S
H1025  C1102   1.113   .     S
O1026  C1027   1.415   .     S
C1027  H1028   1.109   .     S
C1027  H1029   1.112   .     S
C1027  H1030   1.114   .     S
O1031  C1032   1.409   .     S
C1032  H1035   1.109   .     S
C1032  H1034   1.107   .     S
C1032  H1033   1.111   .     S
O1036  C1037   1.412   .     S
C1037  H1038   1.109   .     S
C1037  H1039   1.114   .     S
C1037  H1040   1.109   .     S
C1041  O1075   1.281   .     A
C1041  C1057   1.404   .     S
C1041  O1076   1.286   .     A
C1042  C1043   1.399   .     A
C1042  C324    1.414   1_556 S
C1042  C348    1.417   1_556 S
C1043  C1047   1.412   .     A
C1043  C1050   1.414   .     A
C1044  C1048   1.391   .     A
C1045  C1046   1.408   .     A
C1045  C324    1.416   1_556 S
C1045  C344    1.419   1_556 S
C1046  Cl1100  1.764   .     S
C1046  C1047   1.392   .     A
C1047  H1072   1.078   .     S
C1048  O1106   1.388   .     S
C1048  C1065   1.410   .     A
C1049  C1065   1.413   .     A
C1049  Cl1085  1.771   .     S
C1049  C1064   1.405   .     A
C1050  C1052   1.452   .     S
C1050  C1066   1.411   .     A
C1051  O1116   1.383   .     S
C1051  C1057   1.395   .     A
C1051  C1293   1.378   .     S
C1052  O1077   1.295   .     A
C1052  O1078   1.295   .     A
C1053  C1054   1.402   .     A
C1053  Cl1086  1.772   .     S
C1054  C1062   1.407   .     S
C1054  C1055   1.404   .     A
C1055  O1087   1.401   .     S
C1056  C1057   1.391   .     A
C1056  H1069   1.083   .     S
C1056  C1295   1.395   .     S
C1058  Cl1092  1.760   .     S
C1058  N1074   1.369   .     A
C1058  C1139   1.422   .     S
C1059  Cl1093  1.754   .     S
C1059  N1073   1.372   .     A
C1060  N1073   1.367   .     A
C1060  Cl1094  1.754   .     S
C1061  O1095   1.379   .     S
C1061  N1074   1.371   .     A
C1061  C1140   1.427   .     S
C1062  O1080   1.280   .     A
C1062  O1079   1.288   .     A
C1063  O1082   1.305   .     A
C1063  O1081   1.294   .     A
C1063  C1065   1.469   .     S
C1066  O1111   1.387   .     S
C1066  C1067   1.395   .     A
C1067  H1071   1.082   .     S
C1067  C348    1.388   1_556 S
C1068  H1070   1.081   .     S
N1073  Zn1083  2.023   .     S
N1074  Zn1084  2.023   .     S
O1075  Zn1083  1.976   .     S
O1076  Zn1084  1.986   .     S
O1077  Zn1083  2.001   .     S
O1078  Zn1084  1.969   .     S
O1079  Zn1083  1.986   .     S
O1080  Zn1084  1.976   .     S
O1081  Zn1083  1.969   .     S
O1082  Zn1084  2.001   .     S
O1087  C1088   1.411   .     S
C1088  H1090   1.113   .     S
C1088  H1089   1.109   .     S
H1091  C1328   1.111   .     S
O1095  C1096   1.415   .     S
C1096  H1097   1.106   .     S
C1096  H1099   1.109   .     S
C1096  H1098   1.114   .     S
O1101  C344    1.382   1_556 S
O1101  C1182   1.409   .     S
C1102  H1104   1.109   .     S
C1102  H1103   1.112   .     S
H1105  C1182   1.113   .     S
O1106  C1107   1.415   .     S
C1107  H1108   1.109   .     S
C1107  H1109   1.112   .     S
C1107  H1110   1.114   .     S
O1111  C1112   1.409   .     S
C1112  H1115   1.109   .     S
C1112  H1114   1.107   .     S
C1112  H1113   1.111   .     S
O1116  C1117   1.412   .     S
C1117  H1118   1.109   .     S
C1117  H1119   1.114   .     S
C1117  H1120   1.109   .     S
C1121  O1155   1.281   .     A
C1121  C1137   1.404   .     S
C1121  O1156   1.286   .     A
C1122  C1123   1.399   .     A
C1122  C404    1.414   1_556 S
C1122  C428    1.417   1_556 S
C1123  C1127   1.412   .     A
C1123  C1130   1.414   .     A
C1124  C1128   1.391   .     A
C1125  C1126   1.408   .     A
C1125  C404    1.416   1_556 S
C1125  C424    1.419   1_556 S
C1126  Cl1180  1.764   .     S
C1126  C1127   1.392   .     A
C1127  H1152   1.078   .     S
C1128  O1186   1.388   .     S
C1128  C1145   1.410   .     A
C1129  C1145   1.413   .     A
C1129  Cl1165  1.771   .     S
C1129  C1144   1.405   .     A
C1130  C1132   1.452   .     S
C1130  C1146   1.411   .     A
C1131  O1196   1.383   .     S
C1131  C1137   1.395   .     A
C1131  C1373   1.378   .     S
C1132  O1157   1.295   .     A
C1132  O1158   1.295   .     A
C1133  C1134   1.402   .     A
C1133  Cl1166  1.772   .     S
C1134  C1142   1.407   .     S
C1134  C1135   1.404   .     A
C1135  O1167   1.401   .     S
C1136  C1137   1.391   .     A
C1136  H1149   1.083   .     S
C1136  C1375   1.395   .     S
C1138  Cl1172  1.760   .     S
C1138  N1154   1.369   .     A
C1138  C979    1.422   1_655 S
C1139  Cl1173  1.754   .     S
C1139  N1153   1.372   .     A
C1140  N1153   1.367   .     A
C1140  Cl1174  1.754   .     S
C1141  O1175   1.379   .     S
C1141  N1154   1.371   .     A
C1141  C980    1.427   1_655 S
C1142  O1160   1.280   .     A
C1142  O1159   1.288   .     A
C1143  O1162   1.305   .     A
C1143  O1161   1.294   .     A
C1143  C1145   1.469   .     S
C1146  O1191   1.387   .     S
C1146  C1147   1.395   .     A
C1147  H1151   1.082   .     S
C1147  C428    1.388   1_556 S
C1148  H1150   1.081   .     S
N1153  Zn1163  2.023   .     S
N1154  Zn1164  2.023   .     S
O1155  Zn1163  1.976   .     S
O1156  Zn1164  1.986   .     S
O1157  Zn1163  2.001   .     S
O1158  Zn1164  1.969   .     S
O1159  Zn1163  1.986   .     S
O1160  Zn1164  1.976   .     S
O1161  Zn1163  1.969   .     S
O1162  Zn1164  2.001   .     S
O1167  C1168   1.411   .     S
C1168  H1170   1.113   .     S
C1168  H1169   1.109   .     S
H1171  C1408   1.111   .     S
O1175  C1176   1.415   .     S
C1176  H1177   1.106   .     S
C1176  H1179   1.109   .     S
C1176  H1178   1.114   .     S
O1181  C424    1.382   1_556 S
O1181  C1022   1.409   1_655 S
C1182  H1184   1.109   .     S
C1182  H1183   1.112   .     S
H1185  C1022   1.113   1_655 S
O1186  C1187   1.415   .     S
C1187  H1188   1.109   .     S
C1187  H1189   1.112   .     S
C1187  H1190   1.114   .     S
O1191  C1192   1.409   .     S
C1192  H1195   1.109   .     S
C1192  H1194   1.107   .     S
C1192  H1193   1.111   .     S
O1196  C1197   1.412   .     S
C1197  H1198   1.109   .     S
C1197  H1199   1.114   .     S
C1197  H1200   1.109   .     S
C1201  O1235   1.281   .     A
C1201  C1217   1.404   .     S
C1201  O1236   1.286   .     A
C1202  C1203   1.399   .     A
C1202  C484    1.414   1_556 S
C1202  C508    1.417   1_556 S
C1203  C1207   1.412   .     A
C1203  C1210   1.414   .     A
C1204  C1208   1.391   .     A
C1205  C1206   1.408   .     A
C1205  C484    1.416   1_556 S
C1205  C504    1.419   1_556 S
C1206  Cl1260  1.764   .     S
C1206  C1207   1.392   .     A
C1207  H1232   1.078   .     S
C1208  O1266   1.388   .     S
C1208  C1225   1.410   .     A
C1209  C1225   1.413   .     A
C1209  Cl1245  1.771   .     S
C1209  C1224   1.405   .     A
C1210  C1212   1.452   .     S
C1210  C1226   1.411   .     A
C1211  O1276   1.383   .     S
C1211  C1217   1.395   .     A
C1211  C733    1.378   1_565 S
C1212  O1237   1.295   .     A
C1212  O1238   1.295   .     A
C1213  C1214   1.402   .     A
C1213  Cl1246  1.772   .     S
C1214  C1222   1.407   .     S
C1214  C1215   1.404   .     A
C1215  O1247   1.401   .     S
C1216  C1217   1.391   .     A
C1216  H1229   1.083   .     S
C1216  C735    1.395   1_565 S
C1218  Cl1252  1.760   .     S
C1218  N1234   1.369   .     A
C1218  C1299   1.422   .     S
C1219  Cl1253  1.754   .     S
C1219  N1233   1.372   .     A
C1219  C1378   1.422   1_455 S
C1220  N1233   1.367   .     A
C1220  Cl1254  1.754   .     S
C1220  C1381   1.427   1_455 S
C1221  O1255   1.379   .     S
C1221  N1234   1.371   .     A
C1221  C1300   1.427   .     S
C1222  O1240   1.280   .     A
C1222  O1239   1.288   .     A
C1223  O1242   1.305   .     A
C1223  O1241   1.294   .     A
C1223  C1225   1.469   .     S
C1226  O1271   1.387   .     S
C1226  C1227   1.395   .     A
C1227  H1231   1.082   .     S
C1227  C508    1.388   1_556 S
C1228  H1230   1.081   .     S
N1233  Zn1243  2.023   .     S
N1234  Zn1244  2.023   .     S
O1235  Zn1243  1.976   .     S
O1236  Zn1244  1.986   .     S
O1237  Zn1243  2.001   .     S
O1238  Zn1244  1.969   .     S
O1239  Zn1243  1.986   .     S
O1240  Zn1244  1.976   .     S
O1241  Zn1243  1.969   .     S
O1242  Zn1244  2.001   .     S
O1247  C1248   1.411   .     S
C1248  H1250   1.113   .     S
C1248  H1249   1.109   .     S
H1251  C768    1.111   1_565 S
O1255  C1256   1.415   .     S
C1256  H1257   1.106   .     S
C1256  H1259   1.109   .     S
C1256  H1258   1.114   .     S
O1261  C504    1.382   1_556 S
O1261  C1342   1.409   .     S
C1262  H1264   1.109   .     S
C1262  H1263   1.112   .     S
C1262  O1421   1.409   1_455 S
C1262  H1425   1.113   1_455 S
H1265  C1342   1.113   .     S
O1266  C1267   1.415   .     S
C1267  H1268   1.109   .     S
C1267  H1269   1.112   .     S
C1267  H1270   1.114   .     S
O1271  C1272   1.409   .     S
C1272  H1275   1.109   .     S
C1272  H1274   1.107   .     S
C1272  H1273   1.111   .     S
O1276  C1277   1.412   .     S
C1277  H1278   1.109   .     S
C1277  H1279   1.114   .     S
C1277  H1280   1.109   .     S
C1281  O1315   1.281   .     A
C1281  C1297   1.404   .     S
C1281  O1316   1.286   .     A
C1282  C1283   1.399   .     A
C1282  C564    1.414   1_556 S
C1282  C588    1.417   1_556 S
C1283  C1287   1.412   .     A
C1283  C1290   1.414   .     A
C1284  C1288   1.391   .     A
C1285  C1286   1.408   .     A
C1285  C564    1.416   1_556 S
C1285  C584    1.419   1_556 S
C1286  Cl1340  1.764   .     S
C1286  C1287   1.392   .     A
C1287  H1312   1.078   .     S
C1288  O1346   1.388   .     S
C1288  C1305   1.410   .     A
C1289  C1305   1.413   .     A
C1289  Cl1325  1.771   .     S
C1289  C1304   1.405   .     A
C1290  C1292   1.452   .     S
C1290  C1306   1.411   .     A
C1291  O1356   1.383   .     S
C1291  C1297   1.395   .     A
C1291  C813    1.378   1_565 S
C1292  O1317   1.295   .     A
C1292  O1318   1.295   .     A
C1293  C1294   1.402   .     A
C1293  Cl1326  1.772   .     S
C1294  C1302   1.407   .     S
C1294  C1295   1.404   .     A
C1295  O1327   1.401   .     S
C1296  C1297   1.391   .     A
C1296  H1309   1.083   .     S
C1296  C815    1.395   1_565 S
C1298  Cl1332  1.760   .     S
C1298  N1314   1.369   .     A
C1298  C1379   1.422   .     S
C1299  Cl1333  1.754   .     S
C1299  N1313   1.372   .     A
C1300  N1313   1.367   .     A
C1300  Cl1334  1.754   .     S
C1301  O1335   1.379   .     S
C1301  N1314   1.371   .     A
C1301  C1380   1.427   .     S
C1302  O1320   1.280   .     A
C1302  O1319   1.288   .     A
C1303  O1322   1.305   .     A
C1303  O1321   1.294   .     A
C1303  C1305   1.469   .     S
C1306  O1351   1.387   .     S
C1306  C1307   1.395   .     A
C1307  H1311   1.082   .     S
C1307  C588    1.388   1_556 S
C1308  H1310   1.081   .     S
N1313  Zn1323  2.023   .     S
N1314  Zn1324  2.023   .     S
O1315  Zn1323  1.976   .     S
O1316  Zn1324  1.986   .     S
O1317  Zn1323  2.001   .     S
O1318  Zn1324  1.969   .     S
O1319  Zn1323  1.986   .     S
O1320  Zn1324  1.976   .     S
O1321  Zn1323  1.969   .     S
O1322  Zn1324  2.001   .     S
O1327  C1328   1.411   .     S
C1328  H1330   1.113   .     S
C1328  H1329   1.109   .     S
H1331  C848    1.111   1_565 S
O1335  C1336   1.415   .     S
C1336  H1337   1.106   .     S
C1336  H1339   1.109   .     S
C1336  H1338   1.114   .     S
O1341  C584    1.382   1_556 S
O1341  C1422   1.409   .     S
C1342  H1344   1.109   .     S
C1342  H1343   1.112   .     S
H1345  C1422   1.113   .     S
O1346  C1347   1.415   .     S
C1347  H1348   1.109   .     S
C1347  H1349   1.112   .     S
C1347  H1350   1.114   .     S
O1351  C1352   1.409   .     S
C1352  H1355   1.109   .     S
C1352  H1354   1.107   .     S
C1352  H1353   1.111   .     S
O1356  C1357   1.412   .     S
C1357  H1358   1.109   .     S
C1357  H1359   1.114   .     S
C1357  H1360   1.109   .     S
C1361  O1395   1.281   .     A
C1361  C1377   1.404   .     S
C1361  O1396   1.286   .     A
C1362  C1363   1.399   .     A
C1362  C644    1.414   1_556 S
C1362  C668    1.417   1_556 S
C1363  C1367   1.412   .     A
C1363  C1370   1.414   .     A
C1364  C1368   1.391   .     A
C1365  C1366   1.408   .     A
C1365  C644    1.416   1_556 S
C1365  C664    1.419   1_556 S
C1366  Cl1420  1.764   .     S
C1366  C1367   1.392   .     A
C1367  H1392   1.078   .     S
C1368  O1426   1.388   .     S
C1368  C1385   1.410   .     A
C1369  C1385   1.413   .     A
C1369  Cl1405  1.771   .     S
C1369  C1384   1.405   .     A
C1370  C1372   1.452   .     S
C1370  C1386   1.411   .     A
C1371  O1436   1.383   .     S
C1371  C1377   1.395   .     A
C1371  C893    1.378   1_565 S
C1372  O1397   1.295   .     A
C1372  O1398   1.295   .     A
C1373  C1374   1.402   .     A
C1373  Cl1406  1.772   .     S
C1374  C1382   1.407   .     S
C1374  C1375   1.404   .     A
C1375  O1407   1.401   .     S
C1376  C1377   1.391   .     A
C1376  H1389   1.083   .     S
C1376  C895    1.395   1_565 S
C1378  Cl1412  1.760   .     S
C1378  N1394   1.369   .     A
C1378  C1219   1.422   1_655 S
C1379  Cl1413  1.754   .     S
C1379  N1393   1.372   .     A
C1380  N1393   1.367   .     A
C1380  Cl1414  1.754   .     S
C1381  O1415   1.379   .     S
C1381  N1394   1.371   .     A
C1381  C1220   1.427   1_655 S
C1382  O1400   1.280   .     A
C1382  O1399   1.288   .     A
C1383  O1402   1.305   .     A
C1383  O1401   1.294   .     A
C1383  C1385   1.469   .     S
C1386  O1431   1.387   .     S
C1386  C1387   1.395   .     A
C1387  H1391   1.082   .     S
C1387  C668    1.388   1_556 S
C1388  H1390   1.081   .     S
N1393  Zn1403  2.023   .     S
N1394  Zn1404  2.023   .     S
O1395  Zn1403  1.976   .     S
O1396  Zn1404  1.986   .     S
O1397  Zn1403  2.001   .     S
O1398  Zn1404  1.969   .     S
O1399  Zn1403  1.986   .     S
O1400  Zn1404  1.976   .     S
O1401  Zn1403  1.969   .     S
O1402  Zn1404  2.001   .     S
O1407  C1408   1.411   .     S
C1408  H1410   1.113   .     S
C1408  H1409   1.109   .     S
H1411  C928    1.111   1_565 S
O1415  C1416   1.415   .     S
C1416  H1417   1.106   .     S
C1416  H1419   1.109   .     S
C1416  H1418   1.114   .     S
O1421  C664    1.382   1_556 S
O1421  C1262   1.409   1_655 S
C1422  H1424   1.109   .     S
C1422  H1423   1.112   .     S
H1425  C1262   1.113   1_655 S
O1426  C1427   1.415   .     S
C1427  H1428   1.109   .     S
C1427  H1429   1.112   .     S
C1427  H1430   1.114   .     S
O1431  C1432   1.409   .     S
C1432  H1435   1.109   .     S
C1432  H1434   1.107   .     S
C1432  H1433   1.111   .     S
O1436  C1437   1.412   .     S
C1437  H1438   1.109   .     S
C1437  H1439   1.114   .     S
C1437  H1440   1.109   .     S
