data_str_m3_o1_o2_pcu_sym.126
_audit_creation_date              2020-01-03
_audit_creation_method            'Materials Studio'
_symmetry_space_group_name_H-M    'P1'
_symmetry_Int_Tables_number       1
_symmetry_cell_setting            triclinic
loop_
_symmetry_equiv_pos_as_xyz
  x,y,z
_cell_length_a                    32.1089
_cell_length_b                    29.7059
_cell_length_c                    29.9639
_cell_angle_alpha                 89.4848
_cell_angle_beta                  91.6172
_cell_angle_gamma                 89.5018
loop_
_atom_site_label
_atom_site_type_symbol
_atom_site_fract_x
_atom_site_fract_y
_atom_site_fract_z
_atom_site_U_iso_or_equiv
_atom_site_adp_type
_atom_site_occupancy
C1     C     0.08670   0.16679   0.25015   0.00000  Uiso   1.00
C2     C     0.24664   0.16655   0.25004   0.00000  Uiso   1.00
C3     C     0.16688   0.16679   0.16380   0.00000  Uiso   1.00
C4     C     0.16688   0.16652   0.33569   0.00000  Uiso   1.00
C5     C     0.19614   0.02285   0.27463   0.00000  Uiso   1.00
C6     C     0.13716   0.31049   0.22542   0.00000  Uiso   1.00
C7     C     0.13698   0.02528   0.22600   0.00000  Uiso   1.00
C8     C     0.19611   0.30805   0.27435   0.00000  Uiso   1.00
C9     C     0.02199   0.12732   0.26204   0.00000  Uiso   1.00
C10    C     0.31135   0.20612   0.23868   0.00000  Uiso   1.00
C11    C     0.31265   0.12714   0.26181   0.00000  Uiso   1.00
C12    C     0.02069   0.20631   0.23893   0.00000  Uiso   1.00
C13    C     0.18410   0.20524   0.04665   0.00000  Uiso   1.00
C14    C     0.13025   0.15934   0.45115   0.00000  Uiso   1.00
C15    C     0.20375   0.17899   0.45282   0.00000  Uiso   1.00
C16    C     0.15182   0.13170   0.04497   0.00000  Uiso   1.00
C17    C     0.18514   0.20423   0.09291   0.00000  Uiso   1.00
C18    C     0.13048   0.15643   0.40500   0.00000  Uiso   1.00
C19    C     0.20390   0.17861   0.40636   0.00000  Uiso   1.00
C20    C     0.15298   0.12961   0.09125   0.00000  Uiso   1.00
C21    C     0.16812   0.16697   0.11544   0.00000  Uiso   1.00
C22    C     0.16726   0.16650   0.38316   0.00000  Uiso   1.00
C23    C     0.16737   0.16918   0.02296   0.00000  Uiso   1.00
C24    C     0.16695   0.16987   0.47485   0.00000  Uiso   1.00
C25    C     0.29081   0.16652   0.25009   0.00000  Uiso   1.00
C26    C     0.04253   0.16689   0.25049   0.00000  Uiso   1.00
H27    H     0.19616   0.23429   0.02926   0.00000  Uiso   1.00
H28    H     0.10163   0.15328   0.46848   0.00000  Uiso   1.00
H29    H     0.23226   0.18526   0.47183   0.00000  Uiso   1.00
H30    H     0.13887   0.10390   0.02613   0.00000  Uiso   1.00
H31    H     0.03880   0.09673   0.27142   0.00000  Uiso   1.00
H32    H     0.29455   0.23671   0.22924   0.00000  Uiso   1.00
H33    H     0.29688   0.09649   0.27108   0.00000  Uiso   1.00
H34    H     0.03644   0.23697   0.22965   0.00000  Uiso   1.00
N35    N     0.16667   0.28573   0.25000   0.00000  Uiso   1.00
N36    N     0.16667   0.04760   0.25000   0.00000  Uiso   1.00
O37    O     0.10559   0.20487   0.25000   0.00000  Uiso   1.00
O38    O     0.22774   0.12846   0.25000   0.00000  Uiso   1.00
O39    O     0.22774   0.20487   0.25001   0.00000  Uiso   1.00
O40    O     0.10559   0.12846   0.24999   0.00000  Uiso   1.00
O41    O     0.16666   0.20489   0.18453   0.00000  Uiso   1.00
O42    O     0.16667   0.12845   0.31547   0.00000  Uiso   1.00
O43    O     0.16667   0.20489   0.31547   0.00000  Uiso   1.00
O44    O     0.16666   0.12845   0.18453   0.00000  Uiso   1.00
Zn45   Zn    0.16667   0.21771   0.25000   0.00000  Uiso   1.00
Zn46   Zn    0.16667   0.11563   0.25000   0.00000  Uiso   1.00
O47    O     0.22637   0.04356   0.30036   0.00000  Uiso   1.00
H48    H     0.21753   0.07466   0.30550   0.00000  Uiso   1.00
O49    O     0.10701   0.28979   0.19956   0.00000  Uiso   1.00
H50    H     0.11589   0.25871   0.19442   0.00000  Uiso   1.00
O51    O     0.10761   0.05069   0.20224   0.00000  Uiso   1.00
H52    H     0.08730   0.03085   0.18691   0.00000  Uiso   1.00
O53    O     0.22494   0.28264   0.29884   0.00000  Uiso   1.00
H54    H     0.24513   0.30248   0.31436   0.00000  Uiso   1.00
O55    O     0.20131   0.24068   0.11572   0.00000  Uiso   1.00
C56    C     0.24435   0.23314   0.12342   0.00000  Uiso   1.00
H57    H     0.26108   0.23125   0.09145   0.00000  Uiso   1.00
H58    H     0.25724   0.26191   0.14251   0.00000  Uiso   1.00
H59    H     0.25039   0.20212   0.14382   0.00000  Uiso   1.00
O60    O     0.09407   0.14805   0.38078   0.00000  Uiso   1.00
C61    C     0.08522   0.10174   0.38389   0.00000  Uiso   1.00
H62    H     0.11147   0.08076   0.37188   0.00000  Uiso   1.00
H63    H     0.07755   0.09186   0.41858   0.00000  Uiso   1.00
H64    H     0.05753   0.09470   0.36217   0.00000  Uiso   1.00
O65    O     0.24010   0.18548   0.38303   0.00000  Uiso   1.00
C66    C     0.25711   0.22788   0.39343   0.00000  Uiso   1.00
H67    H     0.27427   0.22671   0.42613   0.00000  Uiso   1.00
H68    H     0.27995   0.23660   0.36771   0.00000  Uiso   1.00
H69    H     0.23294   0.25505   0.39299   0.00000  Uiso   1.00
O70    O     0.13589   0.09292   0.11267   0.00000  Uiso   1.00
C71    C     0.16263   0.05532   0.10817   0.00000  Uiso   1.00
H72    H     0.15003   0.02668   0.12736   0.00000  Uiso   1.00
H73    H     0.16421   0.04446   0.07285   0.00000  Uiso   1.00
H74    H     0.19445   0.06225   0.12205   0.00000  Uiso   1.00
C75    C     0.42003   0.16679   0.25015   0.00000  Uiso   1.00
C76    C     0.57997   0.16655   0.25004   0.00000  Uiso   1.00
C77    C     0.50021   0.16679   0.16380   0.00000  Uiso   1.00
C78    C     0.50021   0.16652   0.33569   0.00000  Uiso   1.00
C79    C     0.52947   0.02285   0.27463   0.00000  Uiso   1.00
C80    C     0.47049   0.31049   0.22542   0.00000  Uiso   1.00
C81    C     0.47031   0.02528   0.22600   0.00000  Uiso   1.00
C82    C     0.52945   0.30805   0.27435   0.00000  Uiso   1.00
C83    C     0.35533   0.12732   0.26204   0.00000  Uiso   1.00
C84    C     0.64468   0.20612   0.23868   0.00000  Uiso   1.00
C85    C     0.64598   0.12714   0.26181   0.00000  Uiso   1.00
C86    C     0.35402   0.20631   0.23893   0.00000  Uiso   1.00
C87    C     0.51743   0.20524   0.04665   0.00000  Uiso   1.00
C88    C     0.46359   0.15934   0.45115   0.00000  Uiso   1.00
C89    C     0.53709   0.17899   0.45282   0.00000  Uiso   1.00
C90    C     0.48515   0.13170   0.04497   0.00000  Uiso   1.00
C91    C     0.51848   0.20423   0.09291   0.00000  Uiso   1.00
C92    C     0.46381   0.15643   0.40500   0.00000  Uiso   1.00
C93    C     0.53724   0.17861   0.40636   0.00000  Uiso   1.00
C94    C     0.48632   0.12961   0.09125   0.00000  Uiso   1.00
C95    C     0.50145   0.16697   0.11544   0.00000  Uiso   1.00
C96    C     0.50059   0.16650   0.38316   0.00000  Uiso   1.00
C97    C     0.50071   0.16918   0.02296   0.00000  Uiso   1.00
C98    C     0.50028   0.16987   0.47485   0.00000  Uiso   1.00
C99    C     0.62415   0.16652   0.25009   0.00000  Uiso   1.00
C100   C     0.37586   0.16689   0.25049   0.00000  Uiso   1.00
H101   H     0.52949   0.23429   0.02926   0.00000  Uiso   1.00
H102   H     0.43497   0.15328   0.46848   0.00000  Uiso   1.00
H103   H     0.56560   0.18526   0.47183   0.00000  Uiso   1.00
H104   H     0.47220   0.10390   0.02613   0.00000  Uiso   1.00
H105   H     0.37214   0.09673   0.27142   0.00000  Uiso   1.00
H106   H     0.62789   0.23671   0.22924   0.00000  Uiso   1.00
H107   H     0.63021   0.09649   0.27108   0.00000  Uiso   1.00
H108   H     0.36977   0.23697   0.22965   0.00000  Uiso   1.00
N109   N     0.50000   0.28573   0.25000   0.00000  Uiso   1.00
N110   N     0.50000   0.04760   0.25000   0.00000  Uiso   1.00
O111   O     0.43892   0.20487   0.25000   0.00000  Uiso   1.00
O112   O     0.56108   0.12846   0.25000   0.00000  Uiso   1.00
O113   O     0.56108   0.20487   0.25001   0.00000  Uiso   1.00
O114   O     0.43892   0.12846   0.24999   0.00000  Uiso   1.00
O115   O     0.50000   0.20489   0.18453   0.00000  Uiso   1.00
O116   O     0.50000   0.12845   0.31547   0.00000  Uiso   1.00
O117   O     0.50000   0.20489   0.31547   0.00000  Uiso   1.00
O118   O     0.50000   0.12845   0.18453   0.00000  Uiso   1.00
Zn119  Zn    0.50000   0.21771   0.25000   0.00000  Uiso   1.00
Zn120  Zn    0.50000   0.11563   0.25000   0.00000  Uiso   1.00
O121   O     0.55970   0.04356   0.30036   0.00000  Uiso   1.00
H122   H     0.55086   0.07466   0.30550   0.00000  Uiso   1.00
O123   O     0.44035   0.28979   0.19956   0.00000  Uiso   1.00
H124   H     0.44922   0.25871   0.19442   0.00000  Uiso   1.00
O125   O     0.44094   0.05069   0.20224   0.00000  Uiso   1.00
H126   H     0.42064   0.03085   0.18691   0.00000  Uiso   1.00
O127   O     0.55828   0.28264   0.29884   0.00000  Uiso   1.00
H128   H     0.57846   0.30248   0.31436   0.00000  Uiso   1.00
O129   O     0.53465   0.24068   0.11572   0.00000  Uiso   1.00
C130   C     0.57768   0.23314   0.12342   0.00000  Uiso   1.00
H131   H     0.59442   0.23125   0.09145   0.00000  Uiso   1.00
H132   H     0.59057   0.26191   0.14251   0.00000  Uiso   1.00
H133   H     0.58372   0.20212   0.14382   0.00000  Uiso   1.00
O134   O     0.42740   0.14805   0.38078   0.00000  Uiso   1.00
C135   C     0.41855   0.10174   0.38389   0.00000  Uiso   1.00
H136   H     0.44481   0.08076   0.37188   0.00000  Uiso   1.00
H137   H     0.41089   0.09186   0.41858   0.00000  Uiso   1.00
H138   H     0.39087   0.09470   0.36217   0.00000  Uiso   1.00
O139   O     0.57344   0.18548   0.38303   0.00000  Uiso   1.00
C140   C     0.59045   0.22788   0.39343   0.00000  Uiso   1.00
H141   H     0.60760   0.22671   0.42613   0.00000  Uiso   1.00
H142   H     0.61329   0.23660   0.36771   0.00000  Uiso   1.00
H143   H     0.56628   0.25505   0.39299   0.00000  Uiso   1.00
O144   O     0.46923   0.09292   0.11267   0.00000  Uiso   1.00
C145   C     0.49597   0.05532   0.10817   0.00000  Uiso   1.00
H146   H     0.48337   0.02668   0.12736   0.00000  Uiso   1.00
H147   H     0.49754   0.04446   0.07285   0.00000  Uiso   1.00
H148   H     0.52779   0.06225   0.12205   0.00000  Uiso   1.00
C149   C     0.75336   0.16679   0.25015   0.00000  Uiso   1.00
C150   C     0.91330   0.16655   0.25004   0.00000  Uiso   1.00
C151   C     0.83354   0.16679   0.16380   0.00000  Uiso   1.00
C152   C     0.83355   0.16652   0.33569   0.00000  Uiso   1.00
C153   C     0.86281   0.02285   0.27463   0.00000  Uiso   1.00
C154   C     0.80383   0.31049   0.22542   0.00000  Uiso   1.00
C155   C     0.80365   0.02528   0.22600   0.00000  Uiso   1.00
C156   C     0.86278   0.30805   0.27435   0.00000  Uiso   1.00
C157   C     0.68866   0.12732   0.26204   0.00000  Uiso   1.00
C158   C     0.97802   0.20612   0.23868   0.00000  Uiso   1.00
C159   C     0.97931   0.12714   0.26181   0.00000  Uiso   1.00
C160   C     0.68736   0.20631   0.23893   0.00000  Uiso   1.00
C161   C     0.85077   0.20524   0.04665   0.00000  Uiso   1.00
C162   C     0.79692   0.15934   0.45115   0.00000  Uiso   1.00
C163   C     0.87042   0.17899   0.45282   0.00000  Uiso   1.00
C164   C     0.81848   0.13170   0.04497   0.00000  Uiso   1.00
C165   C     0.85181   0.20423   0.09291   0.00000  Uiso   1.00
C166   C     0.79714   0.15643   0.40500   0.00000  Uiso   1.00
C167   C     0.87057   0.17861   0.40636   0.00000  Uiso   1.00
C168   C     0.81965   0.12961   0.09125   0.00000  Uiso   1.00
C169   C     0.83479   0.16697   0.11544   0.00000  Uiso   1.00
C170   C     0.83393   0.16650   0.38316   0.00000  Uiso   1.00
C171   C     0.83404   0.16918   0.02296   0.00000  Uiso   1.00
C172   C     0.83361   0.16987   0.47485   0.00000  Uiso   1.00
C173   C     0.95748   0.16652   0.25009   0.00000  Uiso   1.00
C174   C     0.70919   0.16689   0.25049   0.00000  Uiso   1.00
H175   H     0.86282   0.23429   0.02926   0.00000  Uiso   1.00
H176   H     0.76830   0.15328   0.46848   0.00000  Uiso   1.00
H177   H     0.89893   0.18526   0.47183   0.00000  Uiso   1.00
H178   H     0.80553   0.10390   0.02613   0.00000  Uiso   1.00
H179   H     0.70547   0.09673   0.27142   0.00000  Uiso   1.00
H180   H     0.96122   0.23671   0.22924   0.00000  Uiso   1.00
H181   H     0.96355   0.09649   0.27108   0.00000  Uiso   1.00
H182   H     0.70311   0.23697   0.22965   0.00000  Uiso   1.00
N183   N     0.83333   0.28573   0.25000   0.00000  Uiso   1.00
N184   N     0.83333   0.04760   0.25000   0.00000  Uiso   1.00
O185   O     0.77226   0.20487   0.25000   0.00000  Uiso   1.00
O186   O     0.89441   0.12846   0.25000   0.00000  Uiso   1.00
O187   O     0.89441   0.20487   0.25001   0.00000  Uiso   1.00
O188   O     0.77226   0.12846   0.24999   0.00000  Uiso   1.00
O189   O     0.83333   0.20489   0.18453   0.00000  Uiso   1.00
O190   O     0.83334   0.12845   0.31547   0.00000  Uiso   1.00
O191   O     0.83334   0.20489   0.31547   0.00000  Uiso   1.00
O192   O     0.83333   0.12845   0.18453   0.00000  Uiso   1.00
Zn193  Zn    0.83333   0.21771   0.25000   0.00000  Uiso   1.00
Zn194  Zn    0.83333   0.11563   0.25000   0.00000  Uiso   1.00
O195   O     0.89303   0.04356   0.30036   0.00000  Uiso   1.00
H196   H     0.88419   0.07466   0.30550   0.00000  Uiso   1.00
O197   O     0.77368   0.28979   0.19956   0.00000  Uiso   1.00
H198   H     0.78256   0.25871   0.19442   0.00000  Uiso   1.00
O199   O     0.77428   0.05069   0.20224   0.00000  Uiso   1.00
H200   H     0.75397   0.03085   0.18691   0.00000  Uiso   1.00
O201   O     0.89161   0.28264   0.29884   0.00000  Uiso   1.00
H202   H     0.91179   0.30248   0.31436   0.00000  Uiso   1.00
O203   O     0.86798   0.24068   0.11572   0.00000  Uiso   1.00
C204   C     0.91101   0.23314   0.12342   0.00000  Uiso   1.00
H205   H     0.92775   0.23125   0.09145   0.00000  Uiso   1.00
H206   H     0.92391   0.26191   0.14251   0.00000  Uiso   1.00
H207   H     0.91705   0.20212   0.14382   0.00000  Uiso   1.00
O208   O     0.76074   0.14805   0.38078   0.00000  Uiso   1.00
C209   C     0.75189   0.10174   0.38389   0.00000  Uiso   1.00
H210   H     0.77814   0.08076   0.37188   0.00000  Uiso   1.00
H211   H     0.74422   0.09186   0.41858   0.00000  Uiso   1.00
H212   H     0.72420   0.09470   0.36217   0.00000  Uiso   1.00
O213   O     0.90677   0.18548   0.38303   0.00000  Uiso   1.00
C214   C     0.92378   0.22788   0.39343   0.00000  Uiso   1.00
H215   H     0.94094   0.22671   0.42613   0.00000  Uiso   1.00
H216   H     0.94662   0.23660   0.36771   0.00000  Uiso   1.00
H217   H     0.89961   0.25505   0.39299   0.00000  Uiso   1.00
O218   O     0.80256   0.09292   0.11267   0.00000  Uiso   1.00
C219   C     0.82930   0.05532   0.10817   0.00000  Uiso   1.00
H220   H     0.81670   0.02668   0.12736   0.00000  Uiso   1.00
H221   H     0.83087   0.04446   0.07285   0.00000  Uiso   1.00
H222   H     0.86112   0.06225   0.12205   0.00000  Uiso   1.00
C223   C     0.08670   0.50012   0.25015   0.00000  Uiso   1.00
C224   C     0.24664   0.49988   0.25004   0.00000  Uiso   1.00
C225   C     0.16688   0.50012   0.16380   0.00000  Uiso   1.00
C226   C     0.16688   0.49986   0.33569   0.00000  Uiso   1.00
C227   C     0.19614   0.35618   0.27463   0.00000  Uiso   1.00
C228   C     0.13716   0.64383   0.22542   0.00000  Uiso   1.00
C229   C     0.13698   0.35861   0.22600   0.00000  Uiso   1.00
C230   C     0.19611   0.64139   0.27435   0.00000  Uiso   1.00
C231   C     0.02199   0.46066   0.26204   0.00000  Uiso   1.00
C232   C     0.31135   0.53946   0.23868   0.00000  Uiso   1.00
C233   C     0.31265   0.46047   0.26181   0.00000  Uiso   1.00
C234   C     0.02069   0.53965   0.23893   0.00000  Uiso   1.00
C235   C     0.18410   0.53858   0.04665   0.00000  Uiso   1.00
C236   C     0.13025   0.49267   0.45115   0.00000  Uiso   1.00
C237   C     0.20375   0.51232   0.45282   0.00000  Uiso   1.00
C238   C     0.15182   0.46504   0.04497   0.00000  Uiso   1.00
C239   C     0.18514   0.53756   0.09291   0.00000  Uiso   1.00
C240   C     0.13048   0.48976   0.40500   0.00000  Uiso   1.00
C241   C     0.20390   0.51194   0.40636   0.00000  Uiso   1.00
C242   C     0.15298   0.46294   0.09125   0.00000  Uiso   1.00
C243   C     0.16812   0.50030   0.11544   0.00000  Uiso   1.00
C244   C     0.16726   0.49983   0.38316   0.00000  Uiso   1.00
C245   C     0.16737   0.50251   0.02296   0.00000  Uiso   1.00
C246   C     0.16695   0.50320   0.47485   0.00000  Uiso   1.00
C247   C     0.29081   0.49985   0.25009   0.00000  Uiso   1.00
C248   C     0.04253   0.50022   0.25049   0.00000  Uiso   1.00
H249   H     0.19616   0.56762   0.02926   0.00000  Uiso   1.00
H250   H     0.10163   0.48661   0.46848   0.00000  Uiso   1.00
H251   H     0.23226   0.51859   0.47183   0.00000  Uiso   1.00
H252   H     0.13887   0.43724   0.02613   0.00000  Uiso   1.00
H253   H     0.03880   0.43007   0.27142   0.00000  Uiso   1.00
H254   H     0.29455   0.57004   0.22924   0.00000  Uiso   1.00
H255   H     0.29688   0.42982   0.27108   0.00000  Uiso   1.00
H256   H     0.03644   0.57030   0.22965   0.00000  Uiso   1.00
N257   N     0.16667   0.61907   0.25000   0.00000  Uiso   1.00
N258   N     0.16667   0.38093   0.25000   0.00000  Uiso   1.00
O259   O     0.10559   0.53821   0.25000   0.00000  Uiso   1.00
O260   O     0.22774   0.46179   0.25000   0.00000  Uiso   1.00
O261   O     0.22774   0.53821   0.25001   0.00000  Uiso   1.00
O262   O     0.10559   0.46179   0.24999   0.00000  Uiso   1.00
O263   O     0.16666   0.53822   0.18453   0.00000  Uiso   1.00
O264   O     0.16667   0.46178   0.31547   0.00000  Uiso   1.00
O265   O     0.16667   0.53822   0.31547   0.00000  Uiso   1.00
O266   O     0.16666   0.46178   0.18453   0.00000  Uiso   1.00
Zn267  Zn    0.16667   0.55104   0.25000   0.00000  Uiso   1.00
Zn268  Zn    0.16667   0.44896   0.25000   0.00000  Uiso   1.00
O269   O     0.22637   0.37689   0.30036   0.00000  Uiso   1.00
H270   H     0.21753   0.40799   0.30550   0.00000  Uiso   1.00
O271   O     0.10701   0.62313   0.19956   0.00000  Uiso   1.00
H272   H     0.11589   0.59204   0.19442   0.00000  Uiso   1.00
O273   O     0.10761   0.38402   0.20224   0.00000  Uiso   1.00
H274   H     0.08730   0.36418   0.18691   0.00000  Uiso   1.00
O275   O     0.22494   0.61597   0.29884   0.00000  Uiso   1.00
H276   H     0.24513   0.63581   0.31436   0.00000  Uiso   1.00
O277   O     0.20131   0.57401   0.11572   0.00000  Uiso   1.00
C278   C     0.24435   0.56647   0.12342   0.00000  Uiso   1.00
H279   H     0.26108   0.56458   0.09145   0.00000  Uiso   1.00
H280   H     0.25724   0.59524   0.14251   0.00000  Uiso   1.00
H281   H     0.25039   0.53546   0.14382   0.00000  Uiso   1.00
O282   O     0.09407   0.48138   0.38078   0.00000  Uiso   1.00
C283   C     0.08522   0.43508   0.38389   0.00000  Uiso   1.00
H284   H     0.11147   0.41409   0.37188   0.00000  Uiso   1.00
H285   H     0.07755   0.42519   0.41858   0.00000  Uiso   1.00
H286   H     0.05753   0.42803   0.36217   0.00000  Uiso   1.00
O287   O     0.24010   0.51881   0.38303   0.00000  Uiso   1.00
C288   C     0.25711   0.56121   0.39343   0.00000  Uiso   1.00
H289   H     0.27427   0.56004   0.42613   0.00000  Uiso   1.00
H290   H     0.27995   0.56993   0.36771   0.00000  Uiso   1.00
H291   H     0.23294   0.58838   0.39299   0.00000  Uiso   1.00
O292   O     0.13589   0.42626   0.11267   0.00000  Uiso   1.00
C293   C     0.16263   0.38866   0.10817   0.00000  Uiso   1.00
H294   H     0.15003   0.36001   0.12736   0.00000  Uiso   1.00
H295   H     0.16421   0.37779   0.07285   0.00000  Uiso   1.00
H296   H     0.19445   0.39559   0.12205   0.00000  Uiso   1.00
C297   C     0.42003   0.50012   0.25015   0.00000  Uiso   1.00
C298   C     0.57997   0.49988   0.25004   0.00000  Uiso   1.00
C299   C     0.50021   0.50012   0.16380   0.00000  Uiso   1.00
C300   C     0.50021   0.49986   0.33569   0.00000  Uiso   1.00
C301   C     0.52947   0.35618   0.27463   0.00000  Uiso   1.00
C302   C     0.47049   0.64383   0.22542   0.00000  Uiso   1.00
C303   C     0.47031   0.35861   0.22600   0.00000  Uiso   1.00
C304   C     0.52945   0.64139   0.27435   0.00000  Uiso   1.00
C305   C     0.35533   0.46066   0.26204   0.00000  Uiso   1.00
C306   C     0.64468   0.53946   0.23868   0.00000  Uiso   1.00
C307   C     0.64598   0.46047   0.26181   0.00000  Uiso   1.00
C308   C     0.35402   0.53965   0.23893   0.00000  Uiso   1.00
C309   C     0.51743   0.53858   0.04665   0.00000  Uiso   1.00
C310   C     0.46359   0.49267   0.45115   0.00000  Uiso   1.00
C311   C     0.53709   0.51232   0.45282   0.00000  Uiso   1.00
C312   C     0.48515   0.46504   0.04497   0.00000  Uiso   1.00
C313   C     0.51848   0.53756   0.09291   0.00000  Uiso   1.00
C314   C     0.46381   0.48976   0.40500   0.00000  Uiso   1.00
C315   C     0.53724   0.51194   0.40636   0.00000  Uiso   1.00
C316   C     0.48632   0.46294   0.09125   0.00000  Uiso   1.00
C317   C     0.50145   0.50030   0.11544   0.00000  Uiso   1.00
C318   C     0.50059   0.49983   0.38316   0.00000  Uiso   1.00
C319   C     0.50071   0.50251   0.02296   0.00000  Uiso   1.00
C320   C     0.50028   0.50320   0.47485   0.00000  Uiso   1.00
C321   C     0.62415   0.49985   0.25009   0.00000  Uiso   1.00
C322   C     0.37586   0.50022   0.25049   0.00000  Uiso   1.00
H323   H     0.52949   0.56762   0.02926   0.00000  Uiso   1.00
H324   H     0.43497   0.48661   0.46848   0.00000  Uiso   1.00
H325   H     0.56560   0.51859   0.47183   0.00000  Uiso   1.00
H326   H     0.47220   0.43724   0.02613   0.00000  Uiso   1.00
H327   H     0.37214   0.43007   0.27142   0.00000  Uiso   1.00
H328   H     0.62789   0.57004   0.22924   0.00000  Uiso   1.00
H329   H     0.63021   0.42982   0.27108   0.00000  Uiso   1.00
H330   H     0.36977   0.57030   0.22965   0.00000  Uiso   1.00
N331   N     0.50000   0.61907   0.25000   0.00000  Uiso   1.00
N332   N     0.50000   0.38093   0.25000   0.00000  Uiso   1.00
O333   O     0.43892   0.53821   0.25000   0.00000  Uiso   1.00
O334   O     0.56108   0.46179   0.25000   0.00000  Uiso   1.00
O335   O     0.56108   0.53821   0.25001   0.00000  Uiso   1.00
O336   O     0.43892   0.46179   0.24999   0.00000  Uiso   1.00
O337   O     0.50000   0.53822   0.18453   0.00000  Uiso   1.00
O338   O     0.50000   0.46178   0.31547   0.00000  Uiso   1.00
O339   O     0.50000   0.53822   0.31547   0.00000  Uiso   1.00
O340   O     0.50000   0.46178   0.18453   0.00000  Uiso   1.00
Zn341  Zn    0.50000   0.55104   0.25000   0.00000  Uiso   1.00
Zn342  Zn    0.50000   0.44896   0.25000   0.00000  Uiso   1.00
O343   O     0.55970   0.37689   0.30036   0.00000  Uiso   1.00
H344   H     0.55086   0.40799   0.30550   0.00000  Uiso   1.00
O345   O     0.44035   0.62313   0.19956   0.00000  Uiso   1.00
H346   H     0.44922   0.59204   0.19442   0.00000  Uiso   1.00
O347   O     0.44094   0.38402   0.20224   0.00000  Uiso   1.00
H348   H     0.42064   0.36418   0.18691   0.00000  Uiso   1.00
O349   O     0.55828   0.61597   0.29884   0.00000  Uiso   1.00
H350   H     0.57846   0.63581   0.31436   0.00000  Uiso   1.00
O351   O     0.53465   0.57401   0.11572   0.00000  Uiso   1.00
C352   C     0.57768   0.56647   0.12342   0.00000  Uiso   1.00
H353   H     0.59442   0.56458   0.09145   0.00000  Uiso   1.00
H354   H     0.59057   0.59524   0.14251   0.00000  Uiso   1.00
H355   H     0.58372   0.53546   0.14382   0.00000  Uiso   1.00
O356   O     0.42740   0.48138   0.38078   0.00000  Uiso   1.00
C357   C     0.41855   0.43508   0.38389   0.00000  Uiso   1.00
H358   H     0.44481   0.41409   0.37188   0.00000  Uiso   1.00
H359   H     0.41089   0.42519   0.41858   0.00000  Uiso   1.00
H360   H     0.39087   0.42803   0.36217   0.00000  Uiso   1.00
O361   O     0.57344   0.51881   0.38303   0.00000  Uiso   1.00
C362   C     0.59045   0.56121   0.39343   0.00000  Uiso   1.00
H363   H     0.60760   0.56004   0.42613   0.00000  Uiso   1.00
H364   H     0.61329   0.56993   0.36771   0.00000  Uiso   1.00
H365   H     0.56628   0.58838   0.39299   0.00000  Uiso   1.00
O366   O     0.46923   0.42626   0.11267   0.00000  Uiso   1.00
C367   C     0.49597   0.38866   0.10817   0.00000  Uiso   1.00
H368   H     0.48337   0.36001   0.12736   0.00000  Uiso   1.00
H369   H     0.49754   0.37779   0.07285   0.00000  Uiso   1.00
H370   H     0.52779   0.39559   0.12205   0.00000  Uiso   1.00
C371   C     0.75336   0.50012   0.25015   0.00000  Uiso   1.00
C372   C     0.91330   0.49988   0.25004   0.00000  Uiso   1.00
C373   C     0.83354   0.50012   0.16380   0.00000  Uiso   1.00
C374   C     0.83355   0.49986   0.33569   0.00000  Uiso   1.00
C375   C     0.86281   0.35618   0.27463   0.00000  Uiso   1.00
C376   C     0.80383   0.64383   0.22542   0.00000  Uiso   1.00
C377   C     0.80365   0.35861   0.22600   0.00000  Uiso   1.00
C378   C     0.86278   0.64139   0.27435   0.00000  Uiso   1.00
C379   C     0.68866   0.46066   0.26204   0.00000  Uiso   1.00
C380   C     0.97802   0.53946   0.23868   0.00000  Uiso   1.00
C381   C     0.97931   0.46047   0.26181   0.00000  Uiso   1.00
C382   C     0.68736   0.53965   0.23893   0.00000  Uiso   1.00
C383   C     0.85077   0.53858   0.04665   0.00000  Uiso   1.00
C384   C     0.79692   0.49267   0.45115   0.00000  Uiso   1.00
C385   C     0.87042   0.51232   0.45282   0.00000  Uiso   1.00
C386   C     0.81848   0.46504   0.04497   0.00000  Uiso   1.00
C387   C     0.85181   0.53756   0.09291   0.00000  Uiso   1.00
C388   C     0.79714   0.48976   0.40500   0.00000  Uiso   1.00
C389   C     0.87057   0.51194   0.40636   0.00000  Uiso   1.00
C390   C     0.81965   0.46294   0.09125   0.00000  Uiso   1.00
C391   C     0.83479   0.50030   0.11544   0.00000  Uiso   1.00
C392   C     0.83393   0.49983   0.38316   0.00000  Uiso   1.00
C393   C     0.83404   0.50251   0.02296   0.00000  Uiso   1.00
C394   C     0.83361   0.50320   0.47485   0.00000  Uiso   1.00
C395   C     0.95748   0.49985   0.25009   0.00000  Uiso   1.00
C396   C     0.70919   0.50022   0.25049   0.00000  Uiso   1.00
H397   H     0.86282   0.56762   0.02926   0.00000  Uiso   1.00
H398   H     0.76830   0.48661   0.46848   0.00000  Uiso   1.00
H399   H     0.89893   0.51859   0.47183   0.00000  Uiso   1.00
H400   H     0.80553   0.43724   0.02613   0.00000  Uiso   1.00
H401   H     0.70547   0.43007   0.27142   0.00000  Uiso   1.00
H402   H     0.96122   0.57004   0.22924   0.00000  Uiso   1.00
H403   H     0.96355   0.42982   0.27108   0.00000  Uiso   1.00
H404   H     0.70311   0.57030   0.22965   0.00000  Uiso   1.00
N405   N     0.83333   0.61907   0.25000   0.00000  Uiso   1.00
N406   N     0.83333   0.38093   0.25000   0.00000  Uiso   1.00
O407   O     0.77226   0.53821   0.25000   0.00000  Uiso   1.00
O408   O     0.89441   0.46179   0.25000   0.00000  Uiso   1.00
O409   O     0.89441   0.53821   0.25001   0.00000  Uiso   1.00
O410   O     0.77226   0.46179   0.24999   0.00000  Uiso   1.00
O411   O     0.83333   0.53822   0.18453   0.00000  Uiso   1.00
O412   O     0.83334   0.46178   0.31547   0.00000  Uiso   1.00
O413   O     0.83334   0.53822   0.31547   0.00000  Uiso   1.00
O414   O     0.83333   0.46178   0.18453   0.00000  Uiso   1.00
Zn415  Zn    0.83333   0.55104   0.25000   0.00000  Uiso   1.00
Zn416  Zn    0.83333   0.44896   0.25000   0.00000  Uiso   1.00
O417   O     0.89303   0.37689   0.30036   0.00000  Uiso   1.00
H418   H     0.88419   0.40799   0.30550   0.00000  Uiso   1.00
O419   O     0.77368   0.62313   0.19956   0.00000  Uiso   1.00
H420   H     0.78256   0.59204   0.19442   0.00000  Uiso   1.00
O421   O     0.77428   0.38402   0.20224   0.00000  Uiso   1.00
H422   H     0.75397   0.36418   0.18691   0.00000  Uiso   1.00
O423   O     0.89161   0.61597   0.29884   0.00000  Uiso   1.00
H424   H     0.91179   0.63581   0.31436   0.00000  Uiso   1.00
O425   O     0.86798   0.57401   0.11572   0.00000  Uiso   1.00
C426   C     0.91101   0.56647   0.12342   0.00000  Uiso   1.00
H427   H     0.92775   0.56458   0.09145   0.00000  Uiso   1.00
H428   H     0.92391   0.59524   0.14251   0.00000  Uiso   1.00
H429   H     0.91705   0.53546   0.14382   0.00000  Uiso   1.00
O430   O     0.76074   0.48138   0.38078   0.00000  Uiso   1.00
C431   C     0.75189   0.43508   0.38389   0.00000  Uiso   1.00
H432   H     0.77814   0.41409   0.37188   0.00000  Uiso   1.00
H433   H     0.74422   0.42519   0.41858   0.00000  Uiso   1.00
H434   H     0.72420   0.42803   0.36217   0.00000  Uiso   1.00
O435   O     0.90677   0.51881   0.38303   0.00000  Uiso   1.00
C436   C     0.92378   0.56121   0.39343   0.00000  Uiso   1.00
H437   H     0.94094   0.56004   0.42613   0.00000  Uiso   1.00
H438   H     0.94662   0.56993   0.36771   0.00000  Uiso   1.00
H439   H     0.89961   0.58838   0.39299   0.00000  Uiso   1.00
O440   O     0.80256   0.42626   0.11267   0.00000  Uiso   1.00
C441   C     0.82930   0.38866   0.10817   0.00000  Uiso   1.00
H442   H     0.81670   0.36001   0.12736   0.00000  Uiso   1.00
H443   H     0.83087   0.37779   0.07285   0.00000  Uiso   1.00
H444   H     0.86112   0.39559   0.12205   0.00000  Uiso   1.00
C445   C     0.08670   0.83346   0.25015   0.00000  Uiso   1.00
C446   C     0.24664   0.83322   0.25004   0.00000  Uiso   1.00
C447   C     0.16688   0.83345   0.16380   0.00000  Uiso   1.00
C448   C     0.16688   0.83319   0.33569   0.00000  Uiso   1.00
C449   C     0.19614   0.68951   0.27463   0.00000  Uiso   1.00
C450   C     0.13716   0.97716   0.22542   0.00000  Uiso   1.00
C451   C     0.13698   0.69194   0.22600   0.00000  Uiso   1.00
C452   C     0.19611   0.97472   0.27435   0.00000  Uiso   1.00
C453   C     0.02199   0.79399   0.26204   0.00000  Uiso   1.00
C454   C     0.31135   0.87279   0.23868   0.00000  Uiso   1.00
C455   C     0.31265   0.79381   0.26181   0.00000  Uiso   1.00
C456   C     0.02069   0.87298   0.23893   0.00000  Uiso   1.00
C457   C     0.18410   0.87191   0.04665   0.00000  Uiso   1.00
C458   C     0.13025   0.82600   0.45115   0.00000  Uiso   1.00
C459   C     0.20375   0.84566   0.45282   0.00000  Uiso   1.00
C460   C     0.15182   0.79837   0.04497   0.00000  Uiso   1.00
C461   C     0.18514   0.87089   0.09291   0.00000  Uiso   1.00
C462   C     0.13048   0.82310   0.40500   0.00000  Uiso   1.00
C463   C     0.20390   0.84528   0.40636   0.00000  Uiso   1.00
C464   C     0.15298   0.79628   0.09125   0.00000  Uiso   1.00
C465   C     0.16812   0.83363   0.11544   0.00000  Uiso   1.00
C466   C     0.16726   0.83317   0.38316   0.00000  Uiso   1.00
C467   C     0.16737   0.83585   0.02296   0.00000  Uiso   1.00
C468   C     0.16695   0.83654   0.47485   0.00000  Uiso   1.00
C469   C     0.29081   0.83319   0.25009   0.00000  Uiso   1.00
C470   C     0.04253   0.83355   0.25049   0.00000  Uiso   1.00
H471   H     0.19616   0.90096   0.02926   0.00000  Uiso   1.00
H472   H     0.10163   0.81995   0.46848   0.00000  Uiso   1.00
H473   H     0.23226   0.85193   0.47183   0.00000  Uiso   1.00
H474   H     0.13887   0.77057   0.02613   0.00000  Uiso   1.00
H475   H     0.03880   0.76340   0.27142   0.00000  Uiso   1.00
H476   H     0.29455   0.90338   0.22924   0.00000  Uiso   1.00
H477   H     0.29688   0.76316   0.27108   0.00000  Uiso   1.00
H478   H     0.03644   0.90364   0.22965   0.00000  Uiso   1.00
N479   N     0.16667   0.95240   0.25000   0.00000  Uiso   1.00
N480   N     0.16667   0.71427   0.25000   0.00000  Uiso   1.00
O481   O     0.10559   0.87154   0.25000   0.00000  Uiso   1.00
O482   O     0.22774   0.79513   0.25000   0.00000  Uiso   1.00
O483   O     0.22774   0.87154   0.25001   0.00000  Uiso   1.00
O484   O     0.10559   0.79513   0.24999   0.00000  Uiso   1.00
O485   O     0.16666   0.87155   0.18453   0.00000  Uiso   1.00
O486   O     0.16667   0.79511   0.31547   0.00000  Uiso   1.00
O487   O     0.16667   0.87155   0.31547   0.00000  Uiso   1.00
O488   O     0.16666   0.79511   0.18453   0.00000  Uiso   1.00
Zn489  Zn    0.16667   0.88437   0.25000   0.00000  Uiso   1.00
Zn490  Zn    0.16667   0.78229   0.25000   0.00000  Uiso   1.00
O491   O     0.22637   0.71022   0.30036   0.00000  Uiso   1.00
H492   H     0.21753   0.74133   0.30550   0.00000  Uiso   1.00
O493   O     0.10701   0.95646   0.19956   0.00000  Uiso   1.00
H494   H     0.11589   0.92537   0.19442   0.00000  Uiso   1.00
O495   O     0.10761   0.71736   0.20224   0.00000  Uiso   1.00
H496   H     0.08730   0.69752   0.18691   0.00000  Uiso   1.00
O497   O     0.22494   0.94930   0.29884   0.00000  Uiso   1.00
H498   H     0.24513   0.96914   0.31436   0.00000  Uiso   1.00
O499   O     0.20131   0.90735   0.11572   0.00000  Uiso   1.00
C500   C     0.24435   0.89980   0.12342   0.00000  Uiso   1.00
H501   H     0.26108   0.89791   0.09145   0.00000  Uiso   1.00
H502   H     0.25724   0.92857   0.14251   0.00000  Uiso   1.00
H503   H     0.25039   0.86879   0.14382   0.00000  Uiso   1.00
O504   O     0.09407   0.81471   0.38078   0.00000  Uiso   1.00
C505   C     0.08522   0.76841   0.38389   0.00000  Uiso   1.00
H506   H     0.11147   0.74743   0.37188   0.00000  Uiso   1.00
H507   H     0.07755   0.75853   0.41858   0.00000  Uiso   1.00
H508   H     0.05753   0.76136   0.36217   0.00000  Uiso   1.00
O509   O     0.24010   0.85214   0.38303   0.00000  Uiso   1.00
C510   C     0.25711   0.89454   0.39343   0.00000  Uiso   1.00
H511   H     0.27427   0.89337   0.42613   0.00000  Uiso   1.00
H512   H     0.27995   0.90326   0.36771   0.00000  Uiso   1.00
H513   H     0.23294   0.92172   0.39299   0.00000  Uiso   1.00
O514   O     0.13589   0.75959   0.11267   0.00000  Uiso   1.00
C515   C     0.16263   0.72199   0.10817   0.00000  Uiso   1.00
H516   H     0.15003   0.69334   0.12736   0.00000  Uiso   1.00
H517   H     0.16421   0.71113   0.07285   0.00000  Uiso   1.00
H518   H     0.19445   0.72892   0.12205   0.00000  Uiso   1.00
C519   C     0.42003   0.83346   0.25015   0.00000  Uiso   1.00
C520   C     0.57997   0.83322   0.25004   0.00000  Uiso   1.00
C521   C     0.50021   0.83345   0.16380   0.00000  Uiso   1.00
C522   C     0.50021   0.83319   0.33569   0.00000  Uiso   1.00
C523   C     0.52947   0.68951   0.27463   0.00000  Uiso   1.00
C524   C     0.47049   0.97716   0.22542   0.00000  Uiso   1.00
C525   C     0.47031   0.69194   0.22600   0.00000  Uiso   1.00
C526   C     0.52945   0.97472   0.27435   0.00000  Uiso   1.00
C527   C     0.35533   0.79399   0.26204   0.00000  Uiso   1.00
C528   C     0.64468   0.87279   0.23868   0.00000  Uiso   1.00
C529   C     0.64598   0.79381   0.26181   0.00000  Uiso   1.00
C530   C     0.35402   0.87298   0.23893   0.00000  Uiso   1.00
C531   C     0.51743   0.87191   0.04665   0.00000  Uiso   1.00
C532   C     0.46359   0.82600   0.45115   0.00000  Uiso   1.00
C533   C     0.53709   0.84566   0.45282   0.00000  Uiso   1.00
C534   C     0.48515   0.79837   0.04497   0.00000  Uiso   1.00
C535   C     0.51848   0.87089   0.09291   0.00000  Uiso   1.00
C536   C     0.46381   0.82310   0.40500   0.00000  Uiso   1.00
C537   C     0.53724   0.84528   0.40636   0.00000  Uiso   1.00
C538   C     0.48632   0.79628   0.09125   0.00000  Uiso   1.00
C539   C     0.50145   0.83363   0.11544   0.00000  Uiso   1.00
C540   C     0.50059   0.83317   0.38316   0.00000  Uiso   1.00
C541   C     0.50071   0.83585   0.02296   0.00000  Uiso   1.00
C542   C     0.50028   0.83654   0.47485   0.00000  Uiso   1.00
C543   C     0.62415   0.83319   0.25009   0.00000  Uiso   1.00
C544   C     0.37586   0.83355   0.25049   0.00000  Uiso   1.00
H545   H     0.52949   0.90096   0.02926   0.00000  Uiso   1.00
H546   H     0.43497   0.81995   0.46848   0.00000  Uiso   1.00
H547   H     0.56560   0.85193   0.47183   0.00000  Uiso   1.00
H548   H     0.47220   0.77057   0.02613   0.00000  Uiso   1.00
H549   H     0.37214   0.76340   0.27142   0.00000  Uiso   1.00
H550   H     0.62789   0.90338   0.22924   0.00000  Uiso   1.00
H551   H     0.63021   0.76316   0.27108   0.00000  Uiso   1.00
H552   H     0.36977   0.90364   0.22965   0.00000  Uiso   1.00
N553   N     0.50000   0.95240   0.25000   0.00000  Uiso   1.00
N554   N     0.50000   0.71427   0.25000   0.00000  Uiso   1.00
O555   O     0.43892   0.87154   0.25000   0.00000  Uiso   1.00
O556   O     0.56108   0.79513   0.25000   0.00000  Uiso   1.00
O557   O     0.56108   0.87154   0.25001   0.00000  Uiso   1.00
O558   O     0.43892   0.79513   0.24999   0.00000  Uiso   1.00
O559   O     0.50000   0.87155   0.18453   0.00000  Uiso   1.00
O560   O     0.50000   0.79511   0.31547   0.00000  Uiso   1.00
O561   O     0.50000   0.87155   0.31547   0.00000  Uiso   1.00
O562   O     0.50000   0.79511   0.18453   0.00000  Uiso   1.00
Zn563  Zn    0.50000   0.88437   0.25000   0.00000  Uiso   1.00
Zn564  Zn    0.50000   0.78229   0.25000   0.00000  Uiso   1.00
O565   O     0.55970   0.71022   0.30036   0.00000  Uiso   1.00
H566   H     0.55086   0.74133   0.30550   0.00000  Uiso   1.00
O567   O     0.44035   0.95646   0.19956   0.00000  Uiso   1.00
H568   H     0.44922   0.92537   0.19442   0.00000  Uiso   1.00
O569   O     0.44094   0.71736   0.20224   0.00000  Uiso   1.00
H570   H     0.42064   0.69752   0.18691   0.00000  Uiso   1.00
O571   O     0.55828   0.94930   0.29884   0.00000  Uiso   1.00
H572   H     0.57846   0.96914   0.31436   0.00000  Uiso   1.00
O573   O     0.53465   0.90735   0.11572   0.00000  Uiso   1.00
C574   C     0.57768   0.89980   0.12342   0.00000  Uiso   1.00
H575   H     0.59442   0.89791   0.09145   0.00000  Uiso   1.00
H576   H     0.59057   0.92857   0.14251   0.00000  Uiso   1.00
H577   H     0.58372   0.86879   0.14382   0.00000  Uiso   1.00
O578   O     0.42740   0.81471   0.38078   0.00000  Uiso   1.00
C579   C     0.41855   0.76841   0.38389   0.00000  Uiso   1.00
H580   H     0.44481   0.74743   0.37188   0.00000  Uiso   1.00
H581   H     0.41089   0.75853   0.41858   0.00000  Uiso   1.00
H582   H     0.39087   0.76136   0.36217   0.00000  Uiso   1.00
O583   O     0.57344   0.85214   0.38303   0.00000  Uiso   1.00
C584   C     0.59045   0.89454   0.39343   0.00000  Uiso   1.00
H585   H     0.60760   0.89337   0.42613   0.00000  Uiso   1.00
H586   H     0.61329   0.90326   0.36771   0.00000  Uiso   1.00
H587   H     0.56628   0.92172   0.39299   0.00000  Uiso   1.00
O588   O     0.46923   0.75959   0.11267   0.00000  Uiso   1.00
C589   C     0.49597   0.72199   0.10817   0.00000  Uiso   1.00
H590   H     0.48337   0.69334   0.12736   0.00000  Uiso   1.00
H591   H     0.49754   0.71113   0.07285   0.00000  Uiso   1.00
H592   H     0.52779   0.72892   0.12205   0.00000  Uiso   1.00
C593   C     0.75336   0.83346   0.25015   0.00000  Uiso   1.00
C594   C     0.91330   0.83322   0.25004   0.00000  Uiso   1.00
C595   C     0.83354   0.83345   0.16380   0.00000  Uiso   1.00
C596   C     0.83355   0.83319   0.33569   0.00000  Uiso   1.00
C597   C     0.86281   0.68951   0.27463   0.00000  Uiso   1.00
C598   C     0.80383   0.97716   0.22542   0.00000  Uiso   1.00
C599   C     0.80365   0.69194   0.22600   0.00000  Uiso   1.00
C600   C     0.86278   0.97472   0.27435   0.00000  Uiso   1.00
C601   C     0.68866   0.79399   0.26204   0.00000  Uiso   1.00
C602   C     0.97802   0.87279   0.23868   0.00000  Uiso   1.00
C603   C     0.97931   0.79381   0.26181   0.00000  Uiso   1.00
C604   C     0.68736   0.87298   0.23893   0.00000  Uiso   1.00
C605   C     0.85077   0.87191   0.04665   0.00000  Uiso   1.00
C606   C     0.79692   0.82600   0.45115   0.00000  Uiso   1.00
C607   C     0.87042   0.84566   0.45282   0.00000  Uiso   1.00
C608   C     0.81848   0.79837   0.04497   0.00000  Uiso   1.00
C609   C     0.85181   0.87089   0.09291   0.00000  Uiso   1.00
C610   C     0.79714   0.82310   0.40500   0.00000  Uiso   1.00
C611   C     0.87057   0.84528   0.40636   0.00000  Uiso   1.00
C612   C     0.81965   0.79628   0.09125   0.00000  Uiso   1.00
C613   C     0.83479   0.83363   0.11544   0.00000  Uiso   1.00
C614   C     0.83393   0.83317   0.38316   0.00000  Uiso   1.00
C615   C     0.83404   0.83585   0.02296   0.00000  Uiso   1.00
C616   C     0.83361   0.83654   0.47485   0.00000  Uiso   1.00
C617   C     0.95748   0.83319   0.25009   0.00000  Uiso   1.00
C618   C     0.70919   0.83355   0.25049   0.00000  Uiso   1.00
H619   H     0.86282   0.90096   0.02926   0.00000  Uiso   1.00
H620   H     0.76830   0.81995   0.46848   0.00000  Uiso   1.00
H621   H     0.89893   0.85193   0.47183   0.00000  Uiso   1.00
H622   H     0.80553   0.77057   0.02613   0.00000  Uiso   1.00
H623   H     0.70547   0.76340   0.27142   0.00000  Uiso   1.00
H624   H     0.96122   0.90338   0.22924   0.00000  Uiso   1.00
H625   H     0.96355   0.76316   0.27108   0.00000  Uiso   1.00
H626   H     0.70311   0.90364   0.22965   0.00000  Uiso   1.00
N627   N     0.83333   0.95240   0.25000   0.00000  Uiso   1.00
N628   N     0.83333   0.71427   0.25000   0.00000  Uiso   1.00
O629   O     0.77226   0.87154   0.25000   0.00000  Uiso   1.00
O630   O     0.89441   0.79513   0.25000   0.00000  Uiso   1.00
O631   O     0.89441   0.87154   0.25001   0.00000  Uiso   1.00
O632   O     0.77226   0.79513   0.24999   0.00000  Uiso   1.00
O633   O     0.83333   0.87155   0.18453   0.00000  Uiso   1.00
O634   O     0.83334   0.79511   0.31547   0.00000  Uiso   1.00
O635   O     0.83334   0.87155   0.31547   0.00000  Uiso   1.00
O636   O     0.83333   0.79511   0.18453   0.00000  Uiso   1.00
Zn637  Zn    0.83333   0.88437   0.25000   0.00000  Uiso   1.00
Zn638  Zn    0.83333   0.78229   0.25000   0.00000  Uiso   1.00
O639   O     0.89303   0.71022   0.30036   0.00000  Uiso   1.00
H640   H     0.88419   0.74133   0.30550   0.00000  Uiso   1.00
O641   O     0.77368   0.95646   0.19956   0.00000  Uiso   1.00
H642   H     0.78256   0.92537   0.19442   0.00000  Uiso   1.00
O643   O     0.77428   0.71736   0.20224   0.00000  Uiso   1.00
H644   H     0.75397   0.69752   0.18691   0.00000  Uiso   1.00
O645   O     0.89161   0.94930   0.29884   0.00000  Uiso   1.00
H646   H     0.91179   0.96914   0.31436   0.00000  Uiso   1.00
O647   O     0.86798   0.90735   0.11572   0.00000  Uiso   1.00
C648   C     0.91101   0.89980   0.12342   0.00000  Uiso   1.00
H649   H     0.92775   0.89791   0.09145   0.00000  Uiso   1.00
H650   H     0.92391   0.92857   0.14251   0.00000  Uiso   1.00
H651   H     0.91705   0.86879   0.14382   0.00000  Uiso   1.00
O652   O     0.76074   0.81471   0.38078   0.00000  Uiso   1.00
C653   C     0.75189   0.76841   0.38389   0.00000  Uiso   1.00
H654   H     0.77814   0.74743   0.37188   0.00000  Uiso   1.00
H655   H     0.74422   0.75853   0.41858   0.00000  Uiso   1.00
H656   H     0.72420   0.76136   0.36217   0.00000  Uiso   1.00
O657   O     0.90677   0.85214   0.38303   0.00000  Uiso   1.00
C658   C     0.92378   0.89454   0.39343   0.00000  Uiso   1.00
H659   H     0.94094   0.89337   0.42613   0.00000  Uiso   1.00
H660   H     0.94662   0.90326   0.36771   0.00000  Uiso   1.00
H661   H     0.89961   0.92172   0.39299   0.00000  Uiso   1.00
O662   O     0.80256   0.75959   0.11267   0.00000  Uiso   1.00
C663   C     0.82930   0.72199   0.10817   0.00000  Uiso   1.00
H664   H     0.81670   0.69334   0.12736   0.00000  Uiso   1.00
H665   H     0.83087   0.71113   0.07285   0.00000  Uiso   1.00
H666   H     0.86112   0.72892   0.12205   0.00000  Uiso   1.00
C667   C     0.08670   0.16679   0.75015   0.00000  Uiso   1.00
C668   C     0.24664   0.16655   0.75004   0.00000  Uiso   1.00
C669   C     0.16688   0.16679   0.66380   0.00000  Uiso   1.00
C670   C     0.16688   0.16652   0.83569   0.00000  Uiso   1.00
C671   C     0.19614   0.02285   0.77463   0.00000  Uiso   1.00
C672   C     0.13716   0.31049   0.72542   0.00000  Uiso   1.00
C673   C     0.13698   0.02528   0.72600   0.00000  Uiso   1.00
C674   C     0.19611   0.30805   0.77435   0.00000  Uiso   1.00
C675   C     0.02199   0.12732   0.76204   0.00000  Uiso   1.00
C676   C     0.31135   0.20612   0.73868   0.00000  Uiso   1.00
C677   C     0.31265   0.12714   0.76181   0.00000  Uiso   1.00
C678   C     0.02069   0.20631   0.73893   0.00000  Uiso   1.00
C679   C     0.18410   0.20524   0.54665   0.00000  Uiso   1.00
C680   C     0.13025   0.15934   0.95115   0.00000  Uiso   1.00
C681   C     0.20375   0.17899   0.95282   0.00000  Uiso   1.00
C682   C     0.15182   0.13170   0.54497   0.00000  Uiso   1.00
C683   C     0.18514   0.20423   0.59291   0.00000  Uiso   1.00
C684   C     0.13048   0.15643   0.90500   0.00000  Uiso   1.00
C685   C     0.20390   0.17861   0.90636   0.00000  Uiso   1.00
C686   C     0.15298   0.12961   0.59125   0.00000  Uiso   1.00
C687   C     0.16812   0.16697   0.61544   0.00000  Uiso   1.00
C688   C     0.16726   0.16650   0.88316   0.00000  Uiso   1.00
C689   C     0.16737   0.16918   0.52296   0.00000  Uiso   1.00
C690   C     0.16695   0.16987   0.97485   0.00000  Uiso   1.00
C691   C     0.29081   0.16652   0.75009   0.00000  Uiso   1.00
C692   C     0.04253   0.16689   0.75049   0.00000  Uiso   1.00
H693   H     0.19616   0.23429   0.52926   0.00000  Uiso   1.00
H694   H     0.10163   0.15328   0.96848   0.00000  Uiso   1.00
H695   H     0.23226   0.18526   0.97183   0.00000  Uiso   1.00
H696   H     0.13887   0.10390   0.52613   0.00000  Uiso   1.00
H697   H     0.03880   0.09673   0.77142   0.00000  Uiso   1.00
H698   H     0.29455   0.23671   0.72924   0.00000  Uiso   1.00
H699   H     0.29688   0.09649   0.77108   0.00000  Uiso   1.00
H700   H     0.03644   0.23697   0.72965   0.00000  Uiso   1.00
N701   N     0.16667   0.28573   0.75000   0.00000  Uiso   1.00
N702   N     0.16667   0.04760   0.75000   0.00000  Uiso   1.00
O703   O     0.10559   0.20487   0.75000   0.00000  Uiso   1.00
O704   O     0.22774   0.12846   0.75000   0.00000  Uiso   1.00
O705   O     0.22774   0.20487   0.75001   0.00000  Uiso   1.00
O706   O     0.10559   0.12846   0.74999   0.00000  Uiso   1.00
O707   O     0.16666   0.20489   0.68453   0.00000  Uiso   1.00
O708   O     0.16667   0.12845   0.81547   0.00000  Uiso   1.00
O709   O     0.16667   0.20489   0.81547   0.00000  Uiso   1.00
O710   O     0.16666   0.12845   0.68453   0.00000  Uiso   1.00
Zn711  Zn    0.16667   0.21771   0.75000   0.00000  Uiso   1.00
Zn712  Zn    0.16667   0.11563   0.75000   0.00000  Uiso   1.00
O713   O     0.22637   0.04356   0.80036   0.00000  Uiso   1.00
H714   H     0.21753   0.07466   0.80550   0.00000  Uiso   1.00
O715   O     0.10701   0.28979   0.69956   0.00000  Uiso   1.00
H716   H     0.11589   0.25871   0.69442   0.00000  Uiso   1.00
O717   O     0.10761   0.05069   0.70224   0.00000  Uiso   1.00
H718   H     0.08730   0.03085   0.68691   0.00000  Uiso   1.00
O719   O     0.22494   0.28264   0.79884   0.00000  Uiso   1.00
H720   H     0.24513   0.30248   0.81436   0.00000  Uiso   1.00
O721   O     0.20131   0.24068   0.61572   0.00000  Uiso   1.00
C722   C     0.24435   0.23314   0.62342   0.00000  Uiso   1.00
H723   H     0.26108   0.23125   0.59145   0.00000  Uiso   1.00
H724   H     0.25724   0.26191   0.64251   0.00000  Uiso   1.00
H725   H     0.25039   0.20212   0.64382   0.00000  Uiso   1.00
O726   O     0.09407   0.14805   0.88078   0.00000  Uiso   1.00
C727   C     0.08522   0.10174   0.88389   0.00000  Uiso   1.00
H728   H     0.11147   0.08076   0.87188   0.00000  Uiso   1.00
H729   H     0.07755   0.09186   0.91858   0.00000  Uiso   1.00
H730   H     0.05753   0.09470   0.86217   0.00000  Uiso   1.00
O731   O     0.24010   0.18548   0.88303   0.00000  Uiso   1.00
C732   C     0.25711   0.22788   0.89343   0.00000  Uiso   1.00
H733   H     0.27427   0.22671   0.92613   0.00000  Uiso   1.00
H734   H     0.27995   0.23660   0.86771   0.00000  Uiso   1.00
H735   H     0.23294   0.25505   0.89299   0.00000  Uiso   1.00
O736   O     0.13589   0.09292   0.61267   0.00000  Uiso   1.00
C737   C     0.16263   0.05532   0.60817   0.00000  Uiso   1.00
H738   H     0.15003   0.02668   0.62736   0.00000  Uiso   1.00
H739   H     0.16421   0.04446   0.57285   0.00000  Uiso   1.00
H740   H     0.19445   0.06225   0.62205   0.00000  Uiso   1.00
C741   C     0.42003   0.16679   0.75015   0.00000  Uiso   1.00
C742   C     0.57997   0.16655   0.75004   0.00000  Uiso   1.00
C743   C     0.50021   0.16679   0.66380   0.00000  Uiso   1.00
C744   C     0.50021   0.16652   0.83569   0.00000  Uiso   1.00
C745   C     0.52947   0.02285   0.77463   0.00000  Uiso   1.00
C746   C     0.47049   0.31049   0.72542   0.00000  Uiso   1.00
C747   C     0.47031   0.02528   0.72600   0.00000  Uiso   1.00
C748   C     0.52945   0.30805   0.77435   0.00000  Uiso   1.00
C749   C     0.35533   0.12732   0.76204   0.00000  Uiso   1.00
C750   C     0.64468   0.20612   0.73868   0.00000  Uiso   1.00
C751   C     0.64598   0.12714   0.76181   0.00000  Uiso   1.00
C752   C     0.35402   0.20631   0.73893   0.00000  Uiso   1.00
C753   C     0.51743   0.20524   0.54665   0.00000  Uiso   1.00
C754   C     0.46359   0.15934   0.95115   0.00000  Uiso   1.00
C755   C     0.53709   0.17899   0.95282   0.00000  Uiso   1.00
C756   C     0.48515   0.13170   0.54497   0.00000  Uiso   1.00
C757   C     0.51848   0.20423   0.59291   0.00000  Uiso   1.00
C758   C     0.46381   0.15643   0.90500   0.00000  Uiso   1.00
C759   C     0.53724   0.17861   0.90636   0.00000  Uiso   1.00
C760   C     0.48632   0.12961   0.59125   0.00000  Uiso   1.00
C761   C     0.50145   0.16697   0.61544   0.00000  Uiso   1.00
C762   C     0.50059   0.16650   0.88316   0.00000  Uiso   1.00
C763   C     0.50071   0.16918   0.52296   0.00000  Uiso   1.00
C764   C     0.50028   0.16987   0.97485   0.00000  Uiso   1.00
C765   C     0.62415   0.16652   0.75009   0.00000  Uiso   1.00
C766   C     0.37586   0.16689   0.75049   0.00000  Uiso   1.00
H767   H     0.52949   0.23429   0.52926   0.00000  Uiso   1.00
H768   H     0.43497   0.15328   0.96848   0.00000  Uiso   1.00
H769   H     0.56560   0.18526   0.97183   0.00000  Uiso   1.00
H770   H     0.47220   0.10390   0.52613   0.00000  Uiso   1.00
H771   H     0.37214   0.09673   0.77142   0.00000  Uiso   1.00
H772   H     0.62789   0.23671   0.72924   0.00000  Uiso   1.00
H773   H     0.63021   0.09649   0.77108   0.00000  Uiso   1.00
H774   H     0.36977   0.23697   0.72965   0.00000  Uiso   1.00
N775   N     0.50000   0.28573   0.75000   0.00000  Uiso   1.00
N776   N     0.50000   0.04760   0.75000   0.00000  Uiso   1.00
O777   O     0.43892   0.20487   0.75000   0.00000  Uiso   1.00
O778   O     0.56108   0.12846   0.75000   0.00000  Uiso   1.00
O779   O     0.56108   0.20487   0.75001   0.00000  Uiso   1.00
O780   O     0.43892   0.12846   0.74999   0.00000  Uiso   1.00
O781   O     0.50000   0.20489   0.68453   0.00000  Uiso   1.00
O782   O     0.50000   0.12845   0.81547   0.00000  Uiso   1.00
O783   O     0.50000   0.20489   0.81547   0.00000  Uiso   1.00
O784   O     0.50000   0.12845   0.68453   0.00000  Uiso   1.00
Zn785  Zn    0.50000   0.21771   0.75000   0.00000  Uiso   1.00
Zn786  Zn    0.50000   0.11563   0.75000   0.00000  Uiso   1.00
O787   O     0.55970   0.04356   0.80036   0.00000  Uiso   1.00
H788   H     0.55086   0.07466   0.80550   0.00000  Uiso   1.00
O789   O     0.44035   0.28979   0.69956   0.00000  Uiso   1.00
H790   H     0.44922   0.25871   0.69442   0.00000  Uiso   1.00
O791   O     0.44094   0.05069   0.70224   0.00000  Uiso   1.00
H792   H     0.42064   0.03085   0.68691   0.00000  Uiso   1.00
O793   O     0.55828   0.28264   0.79884   0.00000  Uiso   1.00
H794   H     0.57846   0.30248   0.81436   0.00000  Uiso   1.00
O795   O     0.53465   0.24068   0.61572   0.00000  Uiso   1.00
C796   C     0.57768   0.23314   0.62342   0.00000  Uiso   1.00
H797   H     0.59442   0.23125   0.59145   0.00000  Uiso   1.00
H798   H     0.59057   0.26191   0.64251   0.00000  Uiso   1.00
H799   H     0.58372   0.20212   0.64382   0.00000  Uiso   1.00
O800   O     0.42740   0.14805   0.88078   0.00000  Uiso   1.00
C801   C     0.41855   0.10174   0.88389   0.00000  Uiso   1.00
H802   H     0.44481   0.08076   0.87188   0.00000  Uiso   1.00
H803   H     0.41089   0.09186   0.91858   0.00000  Uiso   1.00
H804   H     0.39087   0.09470   0.86217   0.00000  Uiso   1.00
O805   O     0.57344   0.18548   0.88303   0.00000  Uiso   1.00
C806   C     0.59045   0.22788   0.89343   0.00000  Uiso   1.00
H807   H     0.60760   0.22671   0.92613   0.00000  Uiso   1.00
H808   H     0.61329   0.23660   0.86771   0.00000  Uiso   1.00
H809   H     0.56628   0.25505   0.89299   0.00000  Uiso   1.00
O810   O     0.46923   0.09292   0.61267   0.00000  Uiso   1.00
C811   C     0.49597   0.05532   0.60817   0.00000  Uiso   1.00
H812   H     0.48337   0.02668   0.62736   0.00000  Uiso   1.00
H813   H     0.49754   0.04446   0.57285   0.00000  Uiso   1.00
H814   H     0.52779   0.06225   0.62205   0.00000  Uiso   1.00
C815   C     0.75336   0.16679   0.75015   0.00000  Uiso   1.00
C816   C     0.91330   0.16655   0.75004   0.00000  Uiso   1.00
C817   C     0.83354   0.16679   0.66380   0.00000  Uiso   1.00
C818   C     0.83355   0.16652   0.83569   0.00000  Uiso   1.00
C819   C     0.86281   0.02285   0.77463   0.00000  Uiso   1.00
C820   C     0.80383   0.31049   0.72542   0.00000  Uiso   1.00
C821   C     0.80365   0.02528   0.72600   0.00000  Uiso   1.00
C822   C     0.86278   0.30805   0.77435   0.00000  Uiso   1.00
C823   C     0.68866   0.12732   0.76204   0.00000  Uiso   1.00
C824   C     0.97802   0.20612   0.73868   0.00000  Uiso   1.00
C825   C     0.97931   0.12714   0.76181   0.00000  Uiso   1.00
C826   C     0.68736   0.20631   0.73893   0.00000  Uiso   1.00
C827   C     0.85077   0.20524   0.54665   0.00000  Uiso   1.00
C828   C     0.79692   0.15934   0.95115   0.00000  Uiso   1.00
C829   C     0.87042   0.17899   0.95282   0.00000  Uiso   1.00
C830   C     0.81848   0.13170   0.54497   0.00000  Uiso   1.00
C831   C     0.85181   0.20423   0.59291   0.00000  Uiso   1.00
C832   C     0.79714   0.15643   0.90500   0.00000  Uiso   1.00
C833   C     0.87057   0.17861   0.90636   0.00000  Uiso   1.00
C834   C     0.81965   0.12961   0.59125   0.00000  Uiso   1.00
C835   C     0.83479   0.16697   0.61544   0.00000  Uiso   1.00
C836   C     0.83393   0.16650   0.88316   0.00000  Uiso   1.00
C837   C     0.83404   0.16918   0.52296   0.00000  Uiso   1.00
C838   C     0.83361   0.16987   0.97485   0.00000  Uiso   1.00
C839   C     0.95748   0.16652   0.75009   0.00000  Uiso   1.00
C840   C     0.70919   0.16689   0.75049   0.00000  Uiso   1.00
H841   H     0.86282   0.23429   0.52926   0.00000  Uiso   1.00
H842   H     0.76830   0.15328   0.96848   0.00000  Uiso   1.00
H843   H     0.89893   0.18526   0.97183   0.00000  Uiso   1.00
H844   H     0.80553   0.10390   0.52613   0.00000  Uiso   1.00
H845   H     0.70547   0.09673   0.77142   0.00000  Uiso   1.00
H846   H     0.96122   0.23671   0.72924   0.00000  Uiso   1.00
H847   H     0.96355   0.09649   0.77108   0.00000  Uiso   1.00
H848   H     0.70311   0.23697   0.72965   0.00000  Uiso   1.00
N849   N     0.83333   0.28573   0.75000   0.00000  Uiso   1.00
N850   N     0.83333   0.04760   0.75000   0.00000  Uiso   1.00
O851   O     0.77226   0.20487   0.75000   0.00000  Uiso   1.00
O852   O     0.89441   0.12846   0.75000   0.00000  Uiso   1.00
O853   O     0.89441   0.20487   0.75001   0.00000  Uiso   1.00
O854   O     0.77226   0.12846   0.74999   0.00000  Uiso   1.00
O855   O     0.83333   0.20489   0.68453   0.00000  Uiso   1.00
O856   O     0.83334   0.12845   0.81547   0.00000  Uiso   1.00
O857   O     0.83334   0.20489   0.81547   0.00000  Uiso   1.00
O858   O     0.83333   0.12845   0.68453   0.00000  Uiso   1.00
Zn859  Zn    0.83333   0.21771   0.75000   0.00000  Uiso   1.00
Zn860  Zn    0.83333   0.11563   0.75000   0.00000  Uiso   1.00
O861   O     0.89303   0.04356   0.80036   0.00000  Uiso   1.00
H862   H     0.88419   0.07466   0.80550   0.00000  Uiso   1.00
O863   O     0.77368   0.28979   0.69956   0.00000  Uiso   1.00
H864   H     0.78256   0.25871   0.69442   0.00000  Uiso   1.00
O865   O     0.77428   0.05069   0.70224   0.00000  Uiso   1.00
H866   H     0.75397   0.03085   0.68691   0.00000  Uiso   1.00
O867   O     0.89161   0.28264   0.79884   0.00000  Uiso   1.00
H868   H     0.91179   0.30248   0.81436   0.00000  Uiso   1.00
O869   O     0.86798   0.24068   0.61572   0.00000  Uiso   1.00
C870   C     0.91101   0.23314   0.62342   0.00000  Uiso   1.00
H871   H     0.92775   0.23125   0.59145   0.00000  Uiso   1.00
H872   H     0.92391   0.26191   0.64251   0.00000  Uiso   1.00
H873   H     0.91705   0.20212   0.64382   0.00000  Uiso   1.00
O874   O     0.76074   0.14805   0.88078   0.00000  Uiso   1.00
C875   C     0.75189   0.10174   0.88389   0.00000  Uiso   1.00
H876   H     0.77814   0.08076   0.87188   0.00000  Uiso   1.00
H877   H     0.74422   0.09186   0.91858   0.00000  Uiso   1.00
H878   H     0.72420   0.09470   0.86217   0.00000  Uiso   1.00
O879   O     0.90677   0.18548   0.88303   0.00000  Uiso   1.00
C880   C     0.92378   0.22788   0.89343   0.00000  Uiso   1.00
H881   H     0.94094   0.22671   0.92613   0.00000  Uiso   1.00
H882   H     0.94662   0.23660   0.86771   0.00000  Uiso   1.00
H883   H     0.89961   0.25505   0.89299   0.00000  Uiso   1.00
O884   O     0.80256   0.09292   0.61267   0.00000  Uiso   1.00
C885   C     0.82930   0.05532   0.60817   0.00000  Uiso   1.00
H886   H     0.81670   0.02668   0.62736   0.00000  Uiso   1.00
H887   H     0.83087   0.04446   0.57285   0.00000  Uiso   1.00
H888   H     0.86112   0.06225   0.62205   0.00000  Uiso   1.00
C889   C     0.08670   0.50012   0.75015   0.00000  Uiso   1.00
C890   C     0.24664   0.49988   0.75004   0.00000  Uiso   1.00
C891   C     0.16688   0.50012   0.66380   0.00000  Uiso   1.00
C892   C     0.16688   0.49986   0.83569   0.00000  Uiso   1.00
C893   C     0.19614   0.35618   0.77463   0.00000  Uiso   1.00
C894   C     0.13716   0.64383   0.72542   0.00000  Uiso   1.00
C895   C     0.13698   0.35861   0.72600   0.00000  Uiso   1.00
C896   C     0.19611   0.64139   0.77435   0.00000  Uiso   1.00
C897   C     0.02199   0.46066   0.76204   0.00000  Uiso   1.00
C898   C     0.31135   0.53946   0.73868   0.00000  Uiso   1.00
C899   C     0.31265   0.46047   0.76181   0.00000  Uiso   1.00
C900   C     0.02069   0.53965   0.73893   0.00000  Uiso   1.00
C901   C     0.18410   0.53858   0.54665   0.00000  Uiso   1.00
C902   C     0.13025   0.49267   0.95115   0.00000  Uiso   1.00
C903   C     0.20375   0.51232   0.95282   0.00000  Uiso   1.00
C904   C     0.15182   0.46504   0.54497   0.00000  Uiso   1.00
C905   C     0.18514   0.53756   0.59291   0.00000  Uiso   1.00
C906   C     0.13048   0.48976   0.90500   0.00000  Uiso   1.00
C907   C     0.20390   0.51194   0.90636   0.00000  Uiso   1.00
C908   C     0.15298   0.46294   0.59125   0.00000  Uiso   1.00
C909   C     0.16812   0.50030   0.61544   0.00000  Uiso   1.00
C910   C     0.16726   0.49983   0.88316   0.00000  Uiso   1.00
C911   C     0.16737   0.50251   0.52296   0.00000  Uiso   1.00
C912   C     0.16695   0.50320   0.97485   0.00000  Uiso   1.00
C913   C     0.29081   0.49985   0.75009   0.00000  Uiso   1.00
C914   C     0.04253   0.50022   0.75049   0.00000  Uiso   1.00
H915   H     0.19616   0.56762   0.52926   0.00000  Uiso   1.00
H916   H     0.10163   0.48661   0.96848   0.00000  Uiso   1.00
H917   H     0.23226   0.51859   0.97183   0.00000  Uiso   1.00
H918   H     0.13887   0.43724   0.52613   0.00000  Uiso   1.00
H919   H     0.03880   0.43007   0.77142   0.00000  Uiso   1.00
H920   H     0.29455   0.57004   0.72924   0.00000  Uiso   1.00
H921   H     0.29688   0.42982   0.77108   0.00000  Uiso   1.00
H922   H     0.03644   0.57030   0.72965   0.00000  Uiso   1.00
N923   N     0.16667   0.61907   0.75000   0.00000  Uiso   1.00
N924   N     0.16667   0.38093   0.75000   0.00000  Uiso   1.00
O925   O     0.10559   0.53821   0.75000   0.00000  Uiso   1.00
O926   O     0.22774   0.46179   0.75000   0.00000  Uiso   1.00
O927   O     0.22774   0.53821   0.75001   0.00000  Uiso   1.00
O928   O     0.10559   0.46179   0.74999   0.00000  Uiso   1.00
O929   O     0.16666   0.53822   0.68453   0.00000  Uiso   1.00
O930   O     0.16667   0.46178   0.81547   0.00000  Uiso   1.00
O931   O     0.16667   0.53822   0.81547   0.00000  Uiso   1.00
O932   O     0.16666   0.46178   0.68453   0.00000  Uiso   1.00
Zn933  Zn    0.16667   0.55104   0.75000   0.00000  Uiso   1.00
Zn934  Zn    0.16667   0.44896   0.75000   0.00000  Uiso   1.00
O935   O     0.22637   0.37689   0.80036   0.00000  Uiso   1.00
H936   H     0.21753   0.40799   0.80550   0.00000  Uiso   1.00
O937   O     0.10701   0.62313   0.69956   0.00000  Uiso   1.00
H938   H     0.11589   0.59204   0.69442   0.00000  Uiso   1.00
O939   O     0.10761   0.38402   0.70224   0.00000  Uiso   1.00
H940   H     0.08730   0.36418   0.68691   0.00000  Uiso   1.00
O941   O     0.22494   0.61597   0.79884   0.00000  Uiso   1.00
H942   H     0.24513   0.63581   0.81436   0.00000  Uiso   1.00
O943   O     0.20131   0.57401   0.61572   0.00000  Uiso   1.00
C944   C     0.24435   0.56647   0.62342   0.00000  Uiso   1.00
H945   H     0.26108   0.56458   0.59145   0.00000  Uiso   1.00
H946   H     0.25724   0.59524   0.64251   0.00000  Uiso   1.00
H947   H     0.25039   0.53546   0.64382   0.00000  Uiso   1.00
O948   O     0.09407   0.48138   0.88078   0.00000  Uiso   1.00
C949   C     0.08522   0.43508   0.88389   0.00000  Uiso   1.00
H950   H     0.11147   0.41409   0.87188   0.00000  Uiso   1.00
H951   H     0.07755   0.42519   0.91858   0.00000  Uiso   1.00
H952   H     0.05753   0.42803   0.86217   0.00000  Uiso   1.00
O953   O     0.24010   0.51881   0.88303   0.00000  Uiso   1.00
C954   C     0.25711   0.56121   0.89343   0.00000  Uiso   1.00
H955   H     0.27427   0.56004   0.92613   0.00000  Uiso   1.00
H956   H     0.27995   0.56993   0.86771   0.00000  Uiso   1.00
H957   H     0.23294   0.58838   0.89299   0.00000  Uiso   1.00
O958   O     0.13589   0.42626   0.61267   0.00000  Uiso   1.00
C959   C     0.16263   0.38866   0.60817   0.00000  Uiso   1.00
H960   H     0.15003   0.36001   0.62736   0.00000  Uiso   1.00
H961   H     0.16421   0.37779   0.57285   0.00000  Uiso   1.00
H962   H     0.19445   0.39559   0.62205   0.00000  Uiso   1.00
C963   C     0.42003   0.50012   0.75015   0.00000  Uiso   1.00
C964   C     0.57997   0.49988   0.75004   0.00000  Uiso   1.00
C965   C     0.50021   0.50012   0.66380   0.00000  Uiso   1.00
C966   C     0.50021   0.49986   0.83569   0.00000  Uiso   1.00
C967   C     0.52947   0.35618   0.77463   0.00000  Uiso   1.00
C968   C     0.47049   0.64383   0.72542   0.00000  Uiso   1.00
C969   C     0.47031   0.35861   0.72600   0.00000  Uiso   1.00
C970   C     0.52945   0.64139   0.77435   0.00000  Uiso   1.00
C971   C     0.35533   0.46066   0.76204   0.00000  Uiso   1.00
C972   C     0.64468   0.53946   0.73868   0.00000  Uiso   1.00
C973   C     0.64598   0.46047   0.76181   0.00000  Uiso   1.00
C974   C     0.35402   0.53965   0.73893   0.00000  Uiso   1.00
C975   C     0.51743   0.53858   0.54665   0.00000  Uiso   1.00
C976   C     0.46359   0.49267   0.95115   0.00000  Uiso   1.00
C977   C     0.53709   0.51232   0.95282   0.00000  Uiso   1.00
C978   C     0.48515   0.46504   0.54497   0.00000  Uiso   1.00
C979   C     0.51848   0.53756   0.59291   0.00000  Uiso   1.00
C980   C     0.46381   0.48976   0.90500   0.00000  Uiso   1.00
C981   C     0.53724   0.51194   0.90636   0.00000  Uiso   1.00
C982   C     0.48632   0.46294   0.59125   0.00000  Uiso   1.00
C983   C     0.50145   0.50030   0.61544   0.00000  Uiso   1.00
C984   C     0.50059   0.49983   0.88316   0.00000  Uiso   1.00
C985   C     0.50071   0.50251   0.52296   0.00000  Uiso   1.00
C986   C     0.50028   0.50320   0.97485   0.00000  Uiso   1.00
C987   C     0.62415   0.49985   0.75009   0.00000  Uiso   1.00
C988   C     0.37586   0.50022   0.75049   0.00000  Uiso   1.00
H989   H     0.52949   0.56762   0.52926   0.00000  Uiso   1.00
H990   H     0.43497   0.48661   0.96848   0.00000  Uiso   1.00
H991   H     0.56560   0.51859   0.97183   0.00000  Uiso   1.00
H992   H     0.47220   0.43724   0.52613   0.00000  Uiso   1.00
H993   H     0.37214   0.43007   0.77142   0.00000  Uiso   1.00
H994   H     0.62789   0.57004   0.72924   0.00000  Uiso   1.00
H995   H     0.63021   0.42982   0.77108   0.00000  Uiso   1.00
H996   H     0.36977   0.57030   0.72965   0.00000  Uiso   1.00
N997   N     0.50000   0.61907   0.75000   0.00000  Uiso   1.00
N998   N     0.50000   0.38093   0.75000   0.00000  Uiso   1.00
O999   O     0.43892   0.53821   0.75000   0.00000  Uiso   1.00
O1000  O     0.56108   0.46179   0.75000   0.00000  Uiso   1.00
O1001  O     0.56108   0.53821   0.75001   0.00000  Uiso   1.00
O1002  O     0.43892   0.46179   0.74999   0.00000  Uiso   1.00
O1003  O     0.50000   0.53822   0.68453   0.00000  Uiso   1.00
O1004  O     0.50000   0.46178   0.81547   0.00000  Uiso   1.00
O1005  O     0.50000   0.53822   0.81547   0.00000  Uiso   1.00
O1006  O     0.50000   0.46178   0.68453   0.00000  Uiso   1.00
Zn1007 Zn    0.50000   0.55104   0.75000   0.00000  Uiso   1.00
Zn1008 Zn    0.50000   0.44896   0.75000   0.00000  Uiso   1.00
O1009  O     0.55970   0.37689   0.80036   0.00000  Uiso   1.00
H1010  H     0.55086   0.40799   0.80550   0.00000  Uiso   1.00
O1011  O     0.44035   0.62313   0.69956   0.00000  Uiso   1.00
H1012  H     0.44922   0.59204   0.69442   0.00000  Uiso   1.00
O1013  O     0.44094   0.38402   0.70224   0.00000  Uiso   1.00
H1014  H     0.42064   0.36418   0.68691   0.00000  Uiso   1.00
O1015  O     0.55828   0.61597   0.79884   0.00000  Uiso   1.00
H1016  H     0.57846   0.63581   0.81436   0.00000  Uiso   1.00
O1017  O     0.53465   0.57401   0.61572   0.00000  Uiso   1.00
C1018  C     0.57768   0.56647   0.62342   0.00000  Uiso   1.00
H1019  H     0.59442   0.56458   0.59145   0.00000  Uiso   1.00
H1020  H     0.59057   0.59524   0.64251   0.00000  Uiso   1.00
H1021  H     0.58372   0.53546   0.64382   0.00000  Uiso   1.00
O1022  O     0.42740   0.48138   0.88078   0.00000  Uiso   1.00
C1023  C     0.41855   0.43508   0.88389   0.00000  Uiso   1.00
H1024  H     0.44481   0.41409   0.87188   0.00000  Uiso   1.00
H1025  H     0.41089   0.42519   0.91858   0.00000  Uiso   1.00
H1026  H     0.39087   0.42803   0.86217   0.00000  Uiso   1.00
O1027  O     0.57344   0.51881   0.88303   0.00000  Uiso   1.00
C1028  C     0.59045   0.56121   0.89343   0.00000  Uiso   1.00
H1029  H     0.60760   0.56004   0.92613   0.00000  Uiso   1.00
H1030  H     0.61329   0.56993   0.86771   0.00000  Uiso   1.00
H1031  H     0.56628   0.58838   0.89299   0.00000  Uiso   1.00
O1032  O     0.46923   0.42626   0.61267   0.00000  Uiso   1.00
C1033  C     0.49597   0.38866   0.60817   0.00000  Uiso   1.00
H1034  H     0.48337   0.36001   0.62736   0.00000  Uiso   1.00
H1035  H     0.49754   0.37779   0.57285   0.00000  Uiso   1.00
H1036  H     0.52779   0.39559   0.62205   0.00000  Uiso   1.00
C1037  C     0.75336   0.50012   0.75015   0.00000  Uiso   1.00
C1038  C     0.91330   0.49988   0.75004   0.00000  Uiso   1.00
C1039  C     0.83354   0.50012   0.66380   0.00000  Uiso   1.00
C1040  C     0.83355   0.49986   0.83569   0.00000  Uiso   1.00
C1041  C     0.86281   0.35618   0.77463   0.00000  Uiso   1.00
C1042  C     0.80383   0.64383   0.72542   0.00000  Uiso   1.00
C1043  C     0.80365   0.35861   0.72600   0.00000  Uiso   1.00
C1044  C     0.86278   0.64139   0.77435   0.00000  Uiso   1.00
C1045  C     0.68866   0.46066   0.76204   0.00000  Uiso   1.00
C1046  C     0.97802   0.53946   0.73868   0.00000  Uiso   1.00
C1047  C     0.97931   0.46047   0.76181   0.00000  Uiso   1.00
C1048  C     0.68736   0.53965   0.73893   0.00000  Uiso   1.00
C1049  C     0.85077   0.53858   0.54665   0.00000  Uiso   1.00
C1050  C     0.79692   0.49267   0.95115   0.00000  Uiso   1.00
C1051  C     0.87042   0.51232   0.95282   0.00000  Uiso   1.00
C1052  C     0.81848   0.46504   0.54497   0.00000  Uiso   1.00
C1053  C     0.85181   0.53756   0.59291   0.00000  Uiso   1.00
C1054  C     0.79714   0.48976   0.90500   0.00000  Uiso   1.00
C1055  C     0.87057   0.51194   0.90636   0.00000  Uiso   1.00
C1056  C     0.81965   0.46294   0.59125   0.00000  Uiso   1.00
C1057  C     0.83479   0.50030   0.61544   0.00000  Uiso   1.00
C1058  C     0.83393   0.49983   0.88316   0.00000  Uiso   1.00
C1059  C     0.83404   0.50251   0.52296   0.00000  Uiso   1.00
C1060  C     0.83361   0.50320   0.97485   0.00000  Uiso   1.00
C1061  C     0.95748   0.49985   0.75009   0.00000  Uiso   1.00
C1062  C     0.70919   0.50022   0.75049   0.00000  Uiso   1.00
H1063  H     0.86282   0.56762   0.52926   0.00000  Uiso   1.00
H1064  H     0.76830   0.48661   0.96848   0.00000  Uiso   1.00
H1065  H     0.89893   0.51859   0.97183   0.00000  Uiso   1.00
H1066  H     0.80553   0.43724   0.52613   0.00000  Uiso   1.00
H1067  H     0.70547   0.43007   0.77142   0.00000  Uiso   1.00
H1068  H     0.96122   0.57004   0.72924   0.00000  Uiso   1.00
H1069  H     0.96355   0.42982   0.77108   0.00000  Uiso   1.00
H1070  H     0.70311   0.57030   0.72965   0.00000  Uiso   1.00
N1071  N     0.83333   0.61907   0.75000   0.00000  Uiso   1.00
N1072  N     0.83333   0.38093   0.75000   0.00000  Uiso   1.00
O1073  O     0.77226   0.53821   0.75000   0.00000  Uiso   1.00
O1074  O     0.89441   0.46179   0.75000   0.00000  Uiso   1.00
O1075  O     0.89441   0.53821   0.75001   0.00000  Uiso   1.00
O1076  O     0.77226   0.46179   0.74999   0.00000  Uiso   1.00
O1077  O     0.83333   0.53822   0.68453   0.00000  Uiso   1.00
O1078  O     0.83334   0.46178   0.81547   0.00000  Uiso   1.00
O1079  O     0.83334   0.53822   0.81547   0.00000  Uiso   1.00
O1080  O     0.83333   0.46178   0.68453   0.00000  Uiso   1.00
Zn1081 Zn    0.83333   0.55104   0.75000   0.00000  Uiso   1.00
Zn1082 Zn    0.83333   0.44896   0.75000   0.00000  Uiso   1.00
O1083  O     0.89303   0.37689   0.80036   0.00000  Uiso   1.00
H1084  H     0.88419   0.40799   0.80550   0.00000  Uiso   1.00
O1085  O     0.77368   0.62313   0.69956   0.00000  Uiso   1.00
H1086  H     0.78256   0.59204   0.69442   0.00000  Uiso   1.00
O1087  O     0.77428   0.38402   0.70224   0.00000  Uiso   1.00
H1088  H     0.75397   0.36418   0.68691   0.00000  Uiso   1.00
O1089  O     0.89161   0.61597   0.79884   0.00000  Uiso   1.00
H1090  H     0.91179   0.63581   0.81436   0.00000  Uiso   1.00
O1091  O     0.86798   0.57401   0.61572   0.00000  Uiso   1.00
C1092  C     0.91101   0.56647   0.62342   0.00000  Uiso   1.00
H1093  H     0.92775   0.56458   0.59145   0.00000  Uiso   1.00
H1094  H     0.92391   0.59524   0.64251   0.00000  Uiso   1.00
H1095  H     0.91705   0.53546   0.64382   0.00000  Uiso   1.00
O1096  O     0.76074   0.48138   0.88078   0.00000  Uiso   1.00
C1097  C     0.75189   0.43508   0.88389   0.00000  Uiso   1.00
H1098  H     0.77814   0.41409   0.87188   0.00000  Uiso   1.00
H1099  H     0.74422   0.42519   0.91858   0.00000  Uiso   1.00
H1100  H     0.72420   0.42803   0.86217   0.00000  Uiso   1.00
O1101  O     0.90677   0.51881   0.88303   0.00000  Uiso   1.00
C1102  C     0.92378   0.56121   0.89343   0.00000  Uiso   1.00
H1103  H     0.94094   0.56004   0.92613   0.00000  Uiso   1.00
H1104  H     0.94662   0.56993   0.86771   0.00000  Uiso   1.00
H1105  H     0.89961   0.58838   0.89299   0.00000  Uiso   1.00
O1106  O     0.80256   0.42626   0.61267   0.00000  Uiso   1.00
C1107  C     0.82930   0.38866   0.60817   0.00000  Uiso   1.00
H1108  H     0.81670   0.36001   0.62736   0.00000  Uiso   1.00
H1109  H     0.83087   0.37779   0.57285   0.00000  Uiso   1.00
H1110  H     0.86112   0.39559   0.62205   0.00000  Uiso   1.00
C1111  C     0.08670   0.83346   0.75015   0.00000  Uiso   1.00
C1112  C     0.24664   0.83322   0.75004   0.00000  Uiso   1.00
C1113  C     0.16688   0.83345   0.66380   0.00000  Uiso   1.00
C1114  C     0.16688   0.83319   0.83569   0.00000  Uiso   1.00
C1115  C     0.19614   0.68951   0.77463   0.00000  Uiso   1.00
C1116  C     0.13716   0.97716   0.72542   0.00000  Uiso   1.00
C1117  C     0.13698   0.69194   0.72600   0.00000  Uiso   1.00
C1118  C     0.19611   0.97472   0.77435   0.00000  Uiso   1.00
C1119  C     0.02199   0.79399   0.76204   0.00000  Uiso   1.00
C1120  C     0.31135   0.87279   0.73868   0.00000  Uiso   1.00
C1121  C     0.31265   0.79381   0.76181   0.00000  Uiso   1.00
C1122  C     0.02069   0.87298   0.73893   0.00000  Uiso   1.00
C1123  C     0.18410   0.87191   0.54665   0.00000  Uiso   1.00
C1124  C     0.13025   0.82600   0.95115   0.00000  Uiso   1.00
C1125  C     0.20375   0.84566   0.95282   0.00000  Uiso   1.00
C1126  C     0.15182   0.79837   0.54497   0.00000  Uiso   1.00
C1127  C     0.18514   0.87089   0.59291   0.00000  Uiso   1.00
C1128  C     0.13048   0.82310   0.90500   0.00000  Uiso   1.00
C1129  C     0.20390   0.84528   0.90636   0.00000  Uiso   1.00
C1130  C     0.15298   0.79628   0.59125   0.00000  Uiso   1.00
C1131  C     0.16812   0.83363   0.61544   0.00000  Uiso   1.00
C1132  C     0.16726   0.83317   0.88316   0.00000  Uiso   1.00
C1133  C     0.16737   0.83585   0.52296   0.00000  Uiso   1.00
C1134  C     0.16695   0.83654   0.97485   0.00000  Uiso   1.00
C1135  C     0.29081   0.83319   0.75009   0.00000  Uiso   1.00
C1136  C     0.04253   0.83355   0.75049   0.00000  Uiso   1.00
H1137  H     0.19616   0.90096   0.52926   0.00000  Uiso   1.00
H1138  H     0.10163   0.81995   0.96848   0.00000  Uiso   1.00
H1139  H     0.23226   0.85193   0.97183   0.00000  Uiso   1.00
H1140  H     0.13887   0.77057   0.52613   0.00000  Uiso   1.00
H1141  H     0.03880   0.76340   0.77142   0.00000  Uiso   1.00
H1142  H     0.29455   0.90338   0.72924   0.00000  Uiso   1.00
H1143  H     0.29688   0.76316   0.77108   0.00000  Uiso   1.00
H1144  H     0.03644   0.90364   0.72965   0.00000  Uiso   1.00
N1145  N     0.16667   0.95240   0.75000   0.00000  Uiso   1.00
N1146  N     0.16667   0.71427   0.75000   0.00000  Uiso   1.00
O1147  O     0.10559   0.87154   0.75000   0.00000  Uiso   1.00
O1148  O     0.22774   0.79513   0.75000   0.00000  Uiso   1.00
O1149  O     0.22774   0.87154   0.75001   0.00000  Uiso   1.00
O1150  O     0.10559   0.79513   0.74999   0.00000  Uiso   1.00
O1151  O     0.16666   0.87155   0.68453   0.00000  Uiso   1.00
O1152  O     0.16667   0.79511   0.81547   0.00000  Uiso   1.00
O1153  O     0.16667   0.87155   0.81547   0.00000  Uiso   1.00
O1154  O     0.16666   0.79511   0.68453   0.00000  Uiso   1.00
Zn1155 Zn    0.16667   0.88437   0.75000   0.00000  Uiso   1.00
Zn1156 Zn    0.16667   0.78229   0.75000   0.00000  Uiso   1.00
O1157  O     0.22637   0.71022   0.80036   0.00000  Uiso   1.00
H1158  H     0.21753   0.74133   0.80550   0.00000  Uiso   1.00
O1159  O     0.10701   0.95646   0.69956   0.00000  Uiso   1.00
H1160  H     0.11589   0.92537   0.69442   0.00000  Uiso   1.00
O1161  O     0.10761   0.71736   0.70224   0.00000  Uiso   1.00
H1162  H     0.08730   0.69752   0.68691   0.00000  Uiso   1.00
O1163  O     0.22494   0.94930   0.79884   0.00000  Uiso   1.00
H1164  H     0.24513   0.96914   0.81436   0.00000  Uiso   1.00
O1165  O     0.20131   0.90735   0.61572   0.00000  Uiso   1.00
C1166  C     0.24435   0.89980   0.62342   0.00000  Uiso   1.00
H1167  H     0.26108   0.89791   0.59145   0.00000  Uiso   1.00
H1168  H     0.25724   0.92857   0.64251   0.00000  Uiso   1.00
H1169  H     0.25039   0.86879   0.64382   0.00000  Uiso   1.00
O1170  O     0.09407   0.81471   0.88078   0.00000  Uiso   1.00
C1171  C     0.08522   0.76841   0.88389   0.00000  Uiso   1.00
H1172  H     0.11147   0.74743   0.87188   0.00000  Uiso   1.00
H1173  H     0.07755   0.75853   0.91858   0.00000  Uiso   1.00
H1174  H     0.05753   0.76136   0.86217   0.00000  Uiso   1.00
O1175  O     0.24010   0.85214   0.88303   0.00000  Uiso   1.00
C1176  C     0.25711   0.89454   0.89343   0.00000  Uiso   1.00
H1177  H     0.27427   0.89337   0.92613   0.00000  Uiso   1.00
H1178  H     0.27995   0.90326   0.86771   0.00000  Uiso   1.00
H1179  H     0.23294   0.92172   0.89299   0.00000  Uiso   1.00
O1180  O     0.13589   0.75959   0.61267   0.00000  Uiso   1.00
C1181  C     0.16263   0.72199   0.60817   0.00000  Uiso   1.00
H1182  H     0.15003   0.69334   0.62736   0.00000  Uiso   1.00
H1183  H     0.16421   0.71113   0.57285   0.00000  Uiso   1.00
H1184  H     0.19445   0.72892   0.62205   0.00000  Uiso   1.00
C1185  C     0.42003   0.83346   0.75015   0.00000  Uiso   1.00
C1186  C     0.57997   0.83322   0.75004   0.00000  Uiso   1.00
C1187  C     0.50021   0.83345   0.66380   0.00000  Uiso   1.00
C1188  C     0.50021   0.83319   0.83569   0.00000  Uiso   1.00
C1189  C     0.52947   0.68951   0.77463   0.00000  Uiso   1.00
C1190  C     0.47049   0.97716   0.72542   0.00000  Uiso   1.00
C1191  C     0.47031   0.69194   0.72600   0.00000  Uiso   1.00
C1192  C     0.52945   0.97472   0.77435   0.00000  Uiso   1.00
C1193  C     0.35533   0.79399   0.76204   0.00000  Uiso   1.00
C1194  C     0.64468   0.87279   0.73868   0.00000  Uiso   1.00
C1195  C     0.64598   0.79381   0.76181   0.00000  Uiso   1.00
C1196  C     0.35402   0.87298   0.73893   0.00000  Uiso   1.00
C1197  C     0.51743   0.87191   0.54665   0.00000  Uiso   1.00
C1198  C     0.46359   0.82600   0.95115   0.00000  Uiso   1.00
C1199  C     0.53709   0.84566   0.95282   0.00000  Uiso   1.00
C1200  C     0.48515   0.79837   0.54497   0.00000  Uiso   1.00
C1201  C     0.51848   0.87089   0.59291   0.00000  Uiso   1.00
C1202  C     0.46381   0.82310   0.90500   0.00000  Uiso   1.00
C1203  C     0.53724   0.84528   0.90636   0.00000  Uiso   1.00
C1204  C     0.48632   0.79628   0.59125   0.00000  Uiso   1.00
C1205  C     0.50145   0.83363   0.61544   0.00000  Uiso   1.00
C1206  C     0.50059   0.83317   0.88316   0.00000  Uiso   1.00
C1207  C     0.50071   0.83585   0.52296   0.00000  Uiso   1.00
C1208  C     0.50028   0.83654   0.97485   0.00000  Uiso   1.00
C1209  C     0.62415   0.83319   0.75009   0.00000  Uiso   1.00
C1210  C     0.37586   0.83355   0.75049   0.00000  Uiso   1.00
H1211  H     0.52949   0.90096   0.52926   0.00000  Uiso   1.00
H1212  H     0.43497   0.81995   0.96848   0.00000  Uiso   1.00
H1213  H     0.56560   0.85193   0.97183   0.00000  Uiso   1.00
H1214  H     0.47220   0.77057   0.52613   0.00000  Uiso   1.00
H1215  H     0.37214   0.76340   0.77142   0.00000  Uiso   1.00
H1216  H     0.62789   0.90338   0.72924   0.00000  Uiso   1.00
H1217  H     0.63021   0.76316   0.77108   0.00000  Uiso   1.00
H1218  H     0.36977   0.90364   0.72965   0.00000  Uiso   1.00
N1219  N     0.50000   0.95240   0.75000   0.00000  Uiso   1.00
N1220  N     0.50000   0.71427   0.75000   0.00000  Uiso   1.00
O1221  O     0.43892   0.87154   0.75000   0.00000  Uiso   1.00
O1222  O     0.56108   0.79513   0.75000   0.00000  Uiso   1.00
O1223  O     0.56108   0.87154   0.75001   0.00000  Uiso   1.00
O1224  O     0.43892   0.79513   0.74999   0.00000  Uiso   1.00
O1225  O     0.50000   0.87155   0.68453   0.00000  Uiso   1.00
O1226  O     0.50000   0.79511   0.81547   0.00000  Uiso   1.00
O1227  O     0.50000   0.87155   0.81547   0.00000  Uiso   1.00
O1228  O     0.50000   0.79511   0.68453   0.00000  Uiso   1.00
Zn1229 Zn    0.50000   0.88437   0.75000   0.00000  Uiso   1.00
Zn1230 Zn    0.50000   0.78229   0.75000   0.00000  Uiso   1.00
O1231  O     0.55970   0.71022   0.80036   0.00000  Uiso   1.00
H1232  H     0.55086   0.74133   0.80550   0.00000  Uiso   1.00
O1233  O     0.44035   0.95646   0.69956   0.00000  Uiso   1.00
H1234  H     0.44922   0.92537   0.69442   0.00000  Uiso   1.00
O1235  O     0.44094   0.71736   0.70224   0.00000  Uiso   1.00
H1236  H     0.42064   0.69752   0.68691   0.00000  Uiso   1.00
O1237  O     0.55828   0.94930   0.79884   0.00000  Uiso   1.00
H1238  H     0.57846   0.96914   0.81436   0.00000  Uiso   1.00
O1239  O     0.53465   0.90735   0.61572   0.00000  Uiso   1.00
C1240  C     0.57768   0.89980   0.62342   0.00000  Uiso   1.00
H1241  H     0.59442   0.89791   0.59145   0.00000  Uiso   1.00
H1242  H     0.59057   0.92857   0.64251   0.00000  Uiso   1.00
H1243  H     0.58372   0.86879   0.64382   0.00000  Uiso   1.00
O1244  O     0.42740   0.81471   0.88078   0.00000  Uiso   1.00
C1245  C     0.41855   0.76841   0.88389   0.00000  Uiso   1.00
H1246  H     0.44481   0.74743   0.87188   0.00000  Uiso   1.00
H1247  H     0.41089   0.75853   0.91858   0.00000  Uiso   1.00
H1248  H     0.39087   0.76136   0.86217   0.00000  Uiso   1.00
O1249  O     0.57344   0.85214   0.88303   0.00000  Uiso   1.00
C1250  C     0.59045   0.89454   0.89343   0.00000  Uiso   1.00
H1251  H     0.60760   0.89337   0.92613   0.00000  Uiso   1.00
H1252  H     0.61329   0.90326   0.86771   0.00000  Uiso   1.00
H1253  H     0.56628   0.92172   0.89299   0.00000  Uiso   1.00
O1254  O     0.46923   0.75959   0.61267   0.00000  Uiso   1.00
C1255  C     0.49597   0.72199   0.60817   0.00000  Uiso   1.00
H1256  H     0.48337   0.69334   0.62736   0.00000  Uiso   1.00
H1257  H     0.49754   0.71113   0.57285   0.00000  Uiso   1.00
H1258  H     0.52779   0.72892   0.62205   0.00000  Uiso   1.00
C1259  C     0.75336   0.83346   0.75015   0.00000  Uiso   1.00
C1260  C     0.91330   0.83322   0.75004   0.00000  Uiso   1.00
C1261  C     0.83354   0.83345   0.66380   0.00000  Uiso   1.00
C1262  C     0.83355   0.83319   0.83569   0.00000  Uiso   1.00
C1263  C     0.86281   0.68951   0.77463   0.00000  Uiso   1.00
C1264  C     0.80383   0.97716   0.72542   0.00000  Uiso   1.00
C1265  C     0.80365   0.69194   0.72600   0.00000  Uiso   1.00
C1266  C     0.86278   0.97472   0.77435   0.00000  Uiso   1.00
C1267  C     0.68866   0.79399   0.76204   0.00000  Uiso   1.00
C1268  C     0.97802   0.87279   0.73868   0.00000  Uiso   1.00
C1269  C     0.97931   0.79381   0.76181   0.00000  Uiso   1.00
C1270  C     0.68736   0.87298   0.73893   0.00000  Uiso   1.00
C1271  C     0.85077   0.87191   0.54665   0.00000  Uiso   1.00
C1272  C     0.79692   0.82600   0.95115   0.00000  Uiso   1.00
C1273  C     0.87042   0.84566   0.95282   0.00000  Uiso   1.00
C1274  C     0.81848   0.79837   0.54497   0.00000  Uiso   1.00
C1275  C     0.85181   0.87089   0.59291   0.00000  Uiso   1.00
C1276  C     0.79714   0.82310   0.90500   0.00000  Uiso   1.00
C1277  C     0.87057   0.84528   0.90636   0.00000  Uiso   1.00
C1278  C     0.81965   0.79628   0.59125   0.00000  Uiso   1.00
C1279  C     0.83479   0.83363   0.61544   0.00000  Uiso   1.00
C1280  C     0.83393   0.83317   0.88316   0.00000  Uiso   1.00
C1281  C     0.83404   0.83585   0.52296   0.00000  Uiso   1.00
C1282  C     0.83361   0.83654   0.97485   0.00000  Uiso   1.00
C1283  C     0.95748   0.83319   0.75009   0.00000  Uiso   1.00
C1284  C     0.70919   0.83355   0.75049   0.00000  Uiso   1.00
H1285  H     0.86282   0.90096   0.52926   0.00000  Uiso   1.00
H1286  H     0.76830   0.81995   0.96848   0.00000  Uiso   1.00
H1287  H     0.89893   0.85193   0.97183   0.00000  Uiso   1.00
H1288  H     0.80553   0.77057   0.52613   0.00000  Uiso   1.00
H1289  H     0.70547   0.76340   0.77142   0.00000  Uiso   1.00
H1290  H     0.96122   0.90338   0.72924   0.00000  Uiso   1.00
H1291  H     0.96355   0.76316   0.77108   0.00000  Uiso   1.00
H1292  H     0.70311   0.90364   0.72965   0.00000  Uiso   1.00
N1293  N     0.83333   0.95240   0.75000   0.00000  Uiso   1.00
N1294  N     0.83333   0.71427   0.75000   0.00000  Uiso   1.00
O1295  O     0.77226   0.87154   0.75000   0.00000  Uiso   1.00
O1296  O     0.89441   0.79513   0.75000   0.00000  Uiso   1.00
O1297  O     0.89441   0.87154   0.75001   0.00000  Uiso   1.00
O1298  O     0.77226   0.79513   0.74999   0.00000  Uiso   1.00
O1299  O     0.83333   0.87155   0.68453   0.00000  Uiso   1.00
O1300  O     0.83334   0.79511   0.81547   0.00000  Uiso   1.00
O1301  O     0.83334   0.87155   0.81547   0.00000  Uiso   1.00
O1302  O     0.83333   0.79511   0.68453   0.00000  Uiso   1.00
Zn1303 Zn    0.83333   0.88437   0.75000   0.00000  Uiso   1.00
Zn1304 Zn    0.83333   0.78229   0.75000   0.00000  Uiso   1.00
O1305  O     0.89303   0.71022   0.80036   0.00000  Uiso   1.00
H1306  H     0.88419   0.74133   0.80550   0.00000  Uiso   1.00
O1307  O     0.77368   0.95646   0.69956   0.00000  Uiso   1.00
H1308  H     0.78256   0.92537   0.69442   0.00000  Uiso   1.00
O1309  O     0.77428   0.71736   0.70224   0.00000  Uiso   1.00
H1310  H     0.75397   0.69752   0.68691   0.00000  Uiso   1.00
O1311  O     0.89161   0.94930   0.79884   0.00000  Uiso   1.00
H1312  H     0.91179   0.96914   0.81436   0.00000  Uiso   1.00
O1313  O     0.86798   0.90735   0.61572   0.00000  Uiso   1.00
C1314  C     0.91101   0.89980   0.62342   0.00000  Uiso   1.00
H1315  H     0.92775   0.89791   0.59145   0.00000  Uiso   1.00
H1316  H     0.92391   0.92857   0.64251   0.00000  Uiso   1.00
H1317  H     0.91705   0.86879   0.64382   0.00000  Uiso   1.00
O1318  O     0.76074   0.81471   0.88078   0.00000  Uiso   1.00
C1319  C     0.75189   0.76841   0.88389   0.00000  Uiso   1.00
H1320  H     0.77814   0.74743   0.87188   0.00000  Uiso   1.00
H1321  H     0.74422   0.75853   0.91858   0.00000  Uiso   1.00
H1322  H     0.72420   0.76136   0.86217   0.00000  Uiso   1.00
O1323  O     0.90677   0.85214   0.88303   0.00000  Uiso   1.00
C1324  C     0.92378   0.89454   0.89343   0.00000  Uiso   1.00
H1325  H     0.94094   0.89337   0.92613   0.00000  Uiso   1.00
H1326  H     0.94662   0.90326   0.86771   0.00000  Uiso   1.00
H1327  H     0.89961   0.92172   0.89299   0.00000  Uiso   1.00
O1328  O     0.80256   0.75959   0.61267   0.00000  Uiso   1.00
C1329  C     0.82930   0.72199   0.60817   0.00000  Uiso   1.00
H1330  H     0.81670   0.69334   0.62736   0.00000  Uiso   1.00
H1331  H     0.83087   0.71113   0.57285   0.00000  Uiso   1.00
H1332  H     0.86112   0.72892   0.62205   0.00000  Uiso   1.00
loop_
_geom_bond_atom_site_label_1
_geom_bond_atom_site_label_2
_geom_bond_distance
_geom_bond_site_symmetry_2
_ccdc_geom_bond_type
C1     O37     1.288   .     A
C1     C26     1.419   .     S
C1     O40     1.286   .     A
C2     C25     1.418   .     S
C2     O38     1.289   .     A
C2     O39     1.285   .     A
C3     O44     1.293   .     A
C3     C21     1.450   .     S
C3     O41     1.296   .     A
C4     O43     1.286   .     A
C4     C22     1.422   .     S
C4     O42     1.288   .     A
C5     O47     1.375   .     S
C5     N36     1.386   .     A
C5     C452    1.430   1_545 S
C6     N35     1.386   .     A
C6     O49     1.375   .     S
C6     C229    1.430   .     S
C7     N36     1.359   .     A
C7     O51     1.381   .     S
C7     C450    1.430   1_545 S
C8     O53     1.380   .     S
C8     N35     1.359   .     A
C8     C227    1.430   .     S
C9     C26     1.398   .     A
C9     H31     1.084   .     S
C9     C159    1.370   1_455 S
C10    C25     1.398   .     A
C10    H32     1.084   .     S
C10    C86     1.370   .     S
C11    C25     1.396   .     A
C11    H33     1.083   .     S
C11    C83     1.370   .     S
C12    C26     1.396   .     A
C12    H34     1.083   .     S
C12    C158    1.370   1_455 S
C13    C17     1.386   .     A
C13    C23     1.394   .     A
C13    H27     1.084   .     S
C14    C18     1.387   .     A
C14    C24     1.398   .     A
C14    H28     1.084   .     S
C15    C19     1.392   .     A
C15    H29     1.083   .     S
C15    C24     1.397   .     A
C16    C23     1.392   .     A
C16    C20     1.387   .     A
C16    H30     1.084   .     S
C17    O55     1.383   .     S
C17    C21     1.413   .     A
C18    O60     1.384   .     S
C18    C22     1.400   .     A
C19    C22     1.401   .     A
C19    O65     1.389   .     S
C20    O70     1.385   .     S
C20    C21     1.413   .     A
C23    C690    1.441   1_554 S
C24    C689    1.441   .     S
N35    Zn45    2.021   .     S
N36    Zn46    2.021   .     S
O37    Zn45    2.001   .     S
O38    Zn46    2.001   .     S
O39    Zn45    1.995   .     S
O40    Zn46    1.995   .     S
O41    Zn45    2.002   .     S
O42    Zn46    2.002   .     S
O43    Zn45    1.995   .     S
O44    Zn46    1.995   .     S
O47    H48     0.979   .     S
O49    H50     0.979   .     S
O51    H52     0.989   .     S
O53    H54     0.989   .     S
O55    C56     1.410   .     S
C56    H59     1.114   .     S
C56    H58     1.109   .     S
C56    H57     1.113   .     S
O60    C61     1.410   .     S
C61    H64     1.109   .     S
C61    H62     1.114   .     S
C61    H63     1.112   .     S
O65    C66     1.411   .     S
C66    H68     1.109   .     S
C66    H67     1.110   .     S
C66    H69     1.115   .     S
O70    C71     1.413   .     S
C71    H74     1.114   .     S
C71    H72     1.109   .     S
C71    H73     1.112   .     S
C75    O111    1.288   .     A
C75    C100    1.419   .     S
C75    O114    1.286   .     A
C76    C99     1.418   .     S
C76    O112    1.289   .     A
C76    O113    1.285   .     A
C77    O118    1.293   .     A
C77    C95     1.450   .     S
C77    O115    1.296   .     A
C78    O117    1.286   .     A
C78    C96     1.422   .     S
C78    O116    1.288   .     A
C79    O121    1.375   .     S
C79    N110    1.386   .     A
C79    C526    1.430   1_545 S
C80    N109    1.386   .     A
C80    O123    1.375   .     S
C80    C303    1.430   .     S
C81    N110    1.359   .     A
C81    O125    1.381   .     S
C81    C524    1.430   1_545 S
C82    O127    1.380   .     S
C82    N109    1.359   .     A
C82    C301    1.430   .     S
C83    C100    1.398   .     A
C83    H105    1.084   .     S
C84    C99     1.398   .     A
C84    H106    1.084   .     S
C84    C160    1.370   .     S
C85    C99     1.396   .     A
C85    H107    1.083   .     S
C85    C157    1.370   .     S
C86    C100    1.396   .     A
C86    H108    1.083   .     S
C87    C91     1.386   .     A
C87    C97     1.394   .     A
C87    H101    1.084   .     S
C88    C92     1.387   .     A
C88    C98     1.398   .     A
C88    H102    1.084   .     S
C89    C93     1.392   .     A
C89    H103    1.083   .     S
C89    C98     1.397   .     A
C90    C97     1.392   .     A
C90    C94     1.387   .     A
C90    H104    1.084   .     S
C91    O129    1.383   .     S
C91    C95     1.413   .     A
C92    O134    1.384   .     S
C92    C96     1.400   .     A
C93    C96     1.401   .     A
C93    O139    1.389   .     S
C94    O144    1.385   .     S
C94    C95     1.413   .     A
C97    C764    1.441   1_554 S
C98    C763    1.441   .     S
N109   Zn119   2.021   .     S
N110   Zn120   2.021   .     S
O111   Zn119   2.001   .     S
O112   Zn120   2.001   .     S
O113   Zn119   1.995   .     S
O114   Zn120   1.995   .     S
O115   Zn119   2.002   .     S
O116   Zn120   2.002   .     S
O117   Zn119   1.995   .     S
O118   Zn120   1.995   .     S
O121   H122    0.979   .     S
O123   H124    0.979   .     S
O125   H126    0.989   .     S
O127   H128    0.989   .     S
O129   C130    1.410   .     S
C130   H133    1.114   .     S
C130   H132    1.109   .     S
C130   H131    1.113   .     S
O134   C135    1.410   .     S
C135   H138    1.109   .     S
C135   H136    1.114   .     S
C135   H137    1.112   .     S
O139   C140    1.411   .     S
C140   H142    1.109   .     S
C140   H141    1.110   .     S
C140   H143    1.115   .     S
O144   C145    1.413   .     S
C145   H148    1.114   .     S
C145   H146    1.109   .     S
C145   H147    1.112   .     S
C149   O185    1.288   .     A
C149   C174    1.419   .     S
C149   O188    1.286   .     A
C150   C173    1.418   .     S
C150   O186    1.289   .     A
C150   O187    1.285   .     A
C151   O192    1.293   .     A
C151   C169    1.450   .     S
C151   O189    1.296   .     A
C152   O191    1.286   .     A
C152   C170    1.422   .     S
C152   O190    1.288   .     A
C153   O195    1.375   .     S
C153   N184    1.386   .     A
C153   C600    1.430   1_545 S
C154   N183    1.386   .     A
C154   O197    1.375   .     S
C154   C377    1.430   .     S
C155   N184    1.359   .     A
C155   O199    1.381   .     S
C155   C598    1.430   1_545 S
C156   O201    1.380   .     S
C156   N183    1.359   .     A
C156   C375    1.430   .     S
C157   C174    1.398   .     A
C157   H179    1.084   .     S
C158   C173    1.398   .     A
C158   H180    1.084   .     S
C158   C12     1.370   1_655 S
C159   C173    1.396   .     A
C159   H181    1.083   .     S
C159   C9      1.370   1_655 S
C160   C174    1.396   .     A
C160   H182    1.083   .     S
C161   C165    1.386   .     A
C161   C171    1.394   .     A
C161   H175    1.084   .     S
C162   C166    1.387   .     A
C162   C172    1.398   .     A
C162   H176    1.084   .     S
C163   C167    1.392   .     A
C163   H177    1.083   .     S
C163   C172    1.397   .     A
C164   C171    1.392   .     A
C164   C168    1.387   .     A
C164   H178    1.084   .     S
C165   O203    1.383   .     S
C165   C169    1.413   .     A
C166   O208    1.384   .     S
C166   C170    1.400   .     A
C167   C170    1.401   .     A
C167   O213    1.389   .     S
C168   O218    1.385   .     S
C168   C169    1.413   .     A
C171   C838    1.441   1_554 S
C172   C837    1.441   .     S
N183   Zn193   2.021   .     S
N184   Zn194   2.021   .     S
O185   Zn193   2.001   .     S
O186   Zn194   2.001   .     S
O187   Zn193   1.995   .     S
O188   Zn194   1.995   .     S
O189   Zn193   2.002   .     S
O190   Zn194   2.002   .     S
O191   Zn193   1.995   .     S
O192   Zn194   1.995   .     S
O195   H196    0.979   .     S
O197   H198    0.979   .     S
O199   H200    0.989   .     S
O201   H202    0.989   .     S
O203   C204    1.410   .     S
C204   H207    1.114   .     S
C204   H206    1.109   .     S
C204   H205    1.113   .     S
O208   C209    1.410   .     S
C209   H212    1.109   .     S
C209   H210    1.114   .     S
C209   H211    1.112   .     S
O213   C214    1.411   .     S
C214   H216    1.109   .     S
C214   H215    1.110   .     S
C214   H217    1.115   .     S
O218   C219    1.413   .     S
C219   H222    1.114   .     S
C219   H220    1.109   .     S
C219   H221    1.112   .     S
C223   O259    1.288   .     A
C223   C248    1.419   .     S
C223   O262    1.286   .     A
C224   C247    1.418   .     S
C224   O260    1.289   .     A
C224   O261    1.285   .     A
C225   O266    1.293   .     A
C225   C243    1.450   .     S
C225   O263    1.296   .     A
C226   O265    1.286   .     A
C226   C244    1.422   .     S
C226   O264    1.288   .     A
C227   O269    1.375   .     S
C227   N258    1.386   .     A
C228   N257    1.386   .     A
C228   O271    1.375   .     S
C228   C451    1.430   .     S
C229   N258    1.359   .     A
C229   O273    1.381   .     S
C230   O275    1.380   .     S
C230   N257    1.359   .     A
C230   C449    1.430   .     S
C231   C248    1.398   .     A
C231   H253    1.084   .     S
C231   C381    1.370   1_455 S
C232   C247    1.398   .     A
C232   H254    1.084   .     S
C232   C308    1.370   .     S
C233   C247    1.396   .     A
C233   H255    1.083   .     S
C233   C305    1.370   .     S
C234   C248    1.396   .     A
C234   H256    1.083   .     S
C234   C380    1.370   1_455 S
C235   C239    1.386   .     A
C235   C245    1.394   .     A
C235   H249    1.084   .     S
C236   C240    1.387   .     A
C236   C246    1.398   .     A
C236   H250    1.084   .     S
C237   C241    1.392   .     A
C237   H251    1.083   .     S
C237   C246    1.397   .     A
C238   C245    1.392   .     A
C238   C242    1.387   .     A
C238   H252    1.084   .     S
C239   O277    1.383   .     S
C239   C243    1.413   .     A
C240   O282    1.384   .     S
C240   C244    1.400   .     A
C241   C244    1.401   .     A
C241   O287    1.389   .     S
C242   O292    1.385   .     S
C242   C243    1.413   .     A
C245   C912    1.441   1_554 S
C246   C911    1.441   .     S
N257   Zn267   2.021   .     S
N258   Zn268   2.021   .     S
O259   Zn267   2.001   .     S
O260   Zn268   2.001   .     S
O261   Zn267   1.995   .     S
O262   Zn268   1.995   .     S
O263   Zn267   2.002   .     S
O264   Zn268   2.002   .     S
O265   Zn267   1.995   .     S
O266   Zn268   1.995   .     S
O269   H270    0.979   .     S
O271   H272    0.979   .     S
O273   H274    0.989   .     S
O275   H276    0.989   .     S
O277   C278    1.410   .     S
C278   H281    1.114   .     S
C278   H280    1.109   .     S
C278   H279    1.113   .     S
O282   C283    1.410   .     S
C283   H286    1.109   .     S
C283   H284    1.114   .     S
C283   H285    1.112   .     S
O287   C288    1.411   .     S
C288   H290    1.109   .     S
C288   H289    1.110   .     S
C288   H291    1.115   .     S
O292   C293    1.413   .     S
C293   H296    1.114   .     S
C293   H294    1.109   .     S
C293   H295    1.112   .     S
C297   O333    1.288   .     A
C297   C322    1.419   .     S
C297   O336    1.286   .     A
C298   C321    1.418   .     S
C298   O334    1.289   .     A
C298   O335    1.285   .     A
C299   O340    1.293   .     A
C299   C317    1.450   .     S
C299   O337    1.296   .     A
C300   O339    1.286   .     A
C300   C318    1.422   .     S
C300   O338    1.288   .     A
C301   O343    1.375   .     S
C301   N332    1.386   .     A
C302   N331    1.386   .     A
C302   O345    1.375   .     S
C302   C525    1.430   .     S
C303   N332    1.359   .     A
C303   O347    1.381   .     S
C304   O349    1.380   .     S
C304   N331    1.359   .     A
C304   C523    1.430   .     S
C305   C322    1.398   .     A
C305   H327    1.084   .     S
C306   C321    1.398   .     A
C306   H328    1.084   .     S
C306   C382    1.370   .     S
C307   C321    1.396   .     A
C307   H329    1.083   .     S
C307   C379    1.370   .     S
C308   C322    1.396   .     A
C308   H330    1.083   .     S
C309   C313    1.386   .     A
C309   C319    1.394   .     A
C309   H323    1.084   .     S
C310   C314    1.387   .     A
C310   C320    1.398   .     A
C310   H324    1.084   .     S
C311   C315    1.392   .     A
C311   H325    1.083   .     S
C311   C320    1.397   .     A
C312   C319    1.392   .     A
C312   C316    1.387   .     A
C312   H326    1.084   .     S
C313   O351    1.383   .     S
C313   C317    1.413   .     A
C314   O356    1.384   .     S
C314   C318    1.400   .     A
C315   C318    1.401   .     A
C315   O361    1.389   .     S
C316   O366    1.385   .     S
C316   C317    1.413   .     A
C319   C986    1.441   1_554 S
C320   C985    1.441   .     S
N331   Zn341   2.021   .     S
N332   Zn342   2.021   .     S
O333   Zn341   2.001   .     S
O334   Zn342   2.001   .     S
O335   Zn341   1.995   .     S
O336   Zn342   1.995   .     S
O337   Zn341   2.002   .     S
O338   Zn342   2.002   .     S
O339   Zn341   1.995   .     S
O340   Zn342   1.995   .     S
O343   H344    0.979   .     S
O345   H346    0.979   .     S
O347   H348    0.989   .     S
O349   H350    0.989   .     S
O351   C352    1.410   .     S
C352   H355    1.114   .     S
C352   H354    1.109   .     S
C352   H353    1.113   .     S
O356   C357    1.410   .     S
C357   H360    1.109   .     S
C357   H358    1.114   .     S
C357   H359    1.112   .     S
O361   C362    1.411   .     S
C362   H364    1.109   .     S
C362   H363    1.110   .     S
C362   H365    1.115   .     S
O366   C367    1.413   .     S
C367   H370    1.114   .     S
C367   H368    1.109   .     S
C367   H369    1.112   .     S
C371   O407    1.288   .     A
C371   C396    1.419   .     S
C371   O410    1.286   .     A
C372   C395    1.418   .     S
C372   O408    1.289   .     A
C372   O409    1.285   .     A
C373   O414    1.293   .     A
C373   C391    1.450   .     S
C373   O411    1.296   .     A
C374   O413    1.286   .     A
C374   C392    1.422   .     S
C374   O412    1.288   .     A
C375   O417    1.375   .     S
C375   N406    1.386   .     A
C376   N405    1.386   .     A
C376   O419    1.375   .     S
C376   C599    1.430   .     S
C377   N406    1.359   .     A
C377   O421    1.381   .     S
C378   O423    1.380   .     S
C378   N405    1.359   .     A
C378   C597    1.430   .     S
C379   C396    1.398   .     A
C379   H401    1.084   .     S
C380   C395    1.398   .     A
C380   H402    1.084   .     S
C380   C234    1.370   1_655 S
C381   C395    1.396   .     A
C381   H403    1.083   .     S
C381   C231    1.370   1_655 S
C382   C396    1.396   .     A
C382   H404    1.083   .     S
C383   C387    1.386   .     A
C383   C393    1.394   .     A
C383   H397    1.084   .     S
C384   C388    1.387   .     A
C384   C394    1.398   .     A
C384   H398    1.084   .     S
C385   C389    1.392   .     A
C385   H399    1.083   .     S
C385   C394    1.397   .     A
C386   C393    1.392   .     A
C386   C390    1.387   .     A
C386   H400    1.084   .     S
C387   O425    1.383   .     S
C387   C391    1.413   .     A
C388   O430    1.384   .     S
C388   C392    1.400   .     A
C389   C392    1.401   .     A
C389   O435    1.389   .     S
C390   O440    1.385   .     S
C390   C391    1.413   .     A
C393   C1060   1.441   1_554 S
C394   C1059   1.441   .     S
N405   Zn415   2.021   .     S
N406   Zn416   2.021   .     S
O407   Zn415   2.001   .     S
O408   Zn416   2.001   .     S
O409   Zn415   1.995   .     S
O410   Zn416   1.995   .     S
O411   Zn415   2.002   .     S
O412   Zn416   2.002   .     S
O413   Zn415   1.995   .     S
O414   Zn416   1.995   .     S
O417   H418    0.979   .     S
O419   H420    0.979   .     S
O421   H422    0.989   .     S
O423   H424    0.989   .     S
O425   C426    1.410   .     S
C426   H429    1.114   .     S
C426   H428    1.109   .     S
C426   H427    1.113   .     S
O430   C431    1.410   .     S
C431   H434    1.109   .     S
C431   H432    1.114   .     S
C431   H433    1.112   .     S
O435   C436    1.411   .     S
C436   H438    1.109   .     S
C436   H437    1.110   .     S
C436   H439    1.115   .     S
O440   C441    1.413   .     S
C441   H444    1.114   .     S
C441   H442    1.109   .     S
C441   H443    1.112   .     S
C445   O481    1.288   .     A
C445   C470    1.419   .     S
C445   O484    1.286   .     A
C446   C469    1.418   .     S
C446   O482    1.289   .     A
C446   O483    1.285   .     A
C447   O488    1.293   .     A
C447   C465    1.450   .     S
C447   O485    1.296   .     A
C448   O487    1.286   .     A
C448   C466    1.422   .     S
C448   O486    1.288   .     A
C449   O491    1.375   .     S
C449   N480    1.386   .     A
C450   N479    1.386   .     A
C450   O493    1.375   .     S
C450   C7      1.430   1_565 S
C451   N480    1.359   .     A
C451   O495    1.381   .     S
C452   O497    1.380   .     S
C452   N479    1.359   .     A
C452   C5      1.430   1_565 S
C453   C470    1.398   .     A
C453   H475    1.084   .     S
C453   C603    1.370   1_455 S
C454   C469    1.398   .     A
C454   H476    1.084   .     S
C454   C530    1.370   .     S
C455   C469    1.396   .     A
C455   H477    1.083   .     S
C455   C527    1.370   .     S
C456   C470    1.396   .     A
C456   H478    1.083   .     S
C456   C602    1.370   1_455 S
C457   C461    1.386   .     A
C457   C467    1.394   .     A
C457   H471    1.084   .     S
C458   C462    1.387   .     A
C458   C468    1.398   .     A
C458   H472    1.084   .     S
C459   C463    1.392   .     A
C459   H473    1.083   .     S
C459   C468    1.397   .     A
C460   C467    1.392   .     A
C460   C464    1.387   .     A
C460   H474    1.084   .     S
C461   O499    1.383   .     S
C461   C465    1.413   .     A
C462   O504    1.384   .     S
C462   C466    1.400   .     A
C463   C466    1.401   .     A
C463   O509    1.389   .     S
C464   O514    1.385   .     S
C464   C465    1.413   .     A
C467   C1134   1.441   1_554 S
C468   C1133   1.441   .     S
N479   Zn489   2.021   .     S
N480   Zn490   2.021   .     S
O481   Zn489   2.001   .     S
O482   Zn490   2.001   .     S
O483   Zn489   1.995   .     S
O484   Zn490   1.995   .     S
O485   Zn489   2.002   .     S
O486   Zn490   2.002   .     S
O487   Zn489   1.995   .     S
O488   Zn490   1.995   .     S
O491   H492    0.979   .     S
O493   H494    0.979   .     S
O495   H496    0.989   .     S
O497   H498    0.989   .     S
O499   C500    1.410   .     S
C500   H503    1.114   .     S
C500   H502    1.109   .     S
C500   H501    1.113   .     S
O504   C505    1.410   .     S
C505   H508    1.109   .     S
C505   H506    1.114   .     S
C505   H507    1.112   .     S
O509   C510    1.411   .     S
C510   H512    1.109   .     S
C510   H511    1.110   .     S
C510   H513    1.115   .     S
O514   C515    1.413   .     S
C515   H518    1.114   .     S
C515   H516    1.109   .     S
C515   H517    1.112   .     S
C519   O555    1.288   .     A
C519   C544    1.419   .     S
C519   O558    1.286   .     A
C520   C543    1.418   .     S
C520   O556    1.289   .     A
C520   O557    1.285   .     A
C521   O562    1.293   .     A
C521   C539    1.450   .     S
C521   O559    1.296   .     A
C522   O561    1.286   .     A
C522   C540    1.422   .     S
C522   O560    1.288   .     A
C523   O565    1.375   .     S
C523   N554    1.386   .     A
C524   N553    1.386   .     A
C524   O567    1.375   .     S
C524   C81     1.430   1_565 S
C525   N554    1.359   .     A
C525   O569    1.381   .     S
C526   O571    1.380   .     S
C526   N553    1.359   .     A
C526   C79     1.430   1_565 S
C527   C544    1.398   .     A
C527   H549    1.084   .     S
C528   C543    1.398   .     A
C528   H550    1.084   .     S
C528   C604    1.370   .     S
C529   C543    1.396   .     A
C529   H551    1.083   .     S
C529   C601    1.370   .     S
C530   C544    1.396   .     A
C530   H552    1.083   .     S
C531   C535    1.386   .     A
C531   C541    1.394   .     A
C531   H545    1.084   .     S
C532   C536    1.387   .     A
C532   C542    1.398   .     A
C532   H546    1.084   .     S
C533   C537    1.392   .     A
C533   H547    1.083   .     S
C533   C542    1.397   .     A
C534   C541    1.392   .     A
C534   C538    1.387   .     A
C534   H548    1.084   .     S
C535   O573    1.383   .     S
C535   C539    1.413   .     A
C536   O578    1.384   .     S
C536   C540    1.400   .     A
C537   C540    1.401   .     A
C537   O583    1.389   .     S
C538   O588    1.385   .     S
C538   C539    1.413   .     A
C541   C1208   1.441   1_554 S
C542   C1207   1.441   .     S
N553   Zn563   2.021   .     S
N554   Zn564   2.021   .     S
O555   Zn563   2.001   .     S
O556   Zn564   2.001   .     S
O557   Zn563   1.995   .     S
O558   Zn564   1.995   .     S
O559   Zn563   2.002   .     S
O560   Zn564   2.002   .     S
O561   Zn563   1.995   .     S
O562   Zn564   1.995   .     S
O565   H566    0.979   .     S
O567   H568    0.979   .     S
O569   H570    0.989   .     S
O571   H572    0.989   .     S
O573   C574    1.410   .     S
C574   H577    1.114   .     S
C574   H576    1.109   .     S
C574   H575    1.113   .     S
O578   C579    1.410   .     S
C579   H582    1.109   .     S
C579   H580    1.114   .     S
C579   H581    1.112   .     S
O583   C584    1.411   .     S
C584   H586    1.109   .     S
C584   H585    1.110   .     S
C584   H587    1.115   .     S
O588   C589    1.413   .     S
C589   H592    1.114   .     S
C589   H590    1.109   .     S
C589   H591    1.112   .     S
C593   O629    1.288   .     A
C593   C618    1.419   .     S
C593   O632    1.286   .     A
C594   C617    1.418   .     S
C594   O630    1.289   .     A
C594   O631    1.285   .     A
C595   O636    1.293   .     A
C595   C613    1.450   .     S
C595   O633    1.296   .     A
C596   O635    1.286   .     A
C596   C614    1.422   .     S
C596   O634    1.288   .     A
C597   O639    1.375   .     S
C597   N628    1.386   .     A
C598   N627    1.386   .     A
C598   O641    1.375   .     S
C598   C155    1.430   1_565 S
C599   N628    1.359   .     A
C599   O643    1.381   .     S
C600   O645    1.380   .     S
C600   N627    1.359   .     A
C600   C153    1.430   1_565 S
C601   C618    1.398   .     A
C601   H623    1.084   .     S
C602   C617    1.398   .     A
C602   H624    1.084   .     S
C602   C456    1.370   1_655 S
C603   C617    1.396   .     A
C603   H625    1.083   .     S
C603   C453    1.370   1_655 S
C604   C618    1.396   .     A
C604   H626    1.083   .     S
C605   C609    1.386   .     A
C605   C615    1.394   .     A
C605   H619    1.084   .     S
C606   C610    1.387   .     A
C606   C616    1.398   .     A
C606   H620    1.084   .     S
C607   C611    1.392   .     A
C607   H621    1.083   .     S
C607   C616    1.397   .     A
C608   C615    1.392   .     A
C608   C612    1.387   .     A
C608   H622    1.084   .     S
C609   O647    1.383   .     S
C609   C613    1.413   .     A
C610   O652    1.384   .     S
C610   C614    1.400   .     A
C611   C614    1.401   .     A
C611   O657    1.389   .     S
C612   O662    1.385   .     S
C612   C613    1.413   .     A
C615   C1282   1.441   1_554 S
C616   C1281   1.441   .     S
N627   Zn637   2.021   .     S
N628   Zn638   2.021   .     S
O629   Zn637   2.001   .     S
O630   Zn638   2.001   .     S
O631   Zn637   1.995   .     S
O632   Zn638   1.995   .     S
O633   Zn637   2.002   .     S
O634   Zn638   2.002   .     S
O635   Zn637   1.995   .     S
O636   Zn638   1.995   .     S
O639   H640    0.979   .     S
O641   H642    0.979   .     S
O643   H644    0.989   .     S
O645   H646    0.989   .     S
O647   C648    1.410   .     S
C648   H651    1.114   .     S
C648   H650    1.109   .     S
C648   H649    1.113   .     S
O652   C653    1.410   .     S
C653   H656    1.109   .     S
C653   H654    1.114   .     S
C653   H655    1.112   .     S
O657   C658    1.411   .     S
C658   H660    1.109   .     S
C658   H659    1.110   .     S
C658   H661    1.115   .     S
O662   C663    1.413   .     S
C663   H666    1.114   .     S
C663   H664    1.109   .     S
C663   H665    1.112   .     S
C667   O703    1.288   .     A
C667   C692    1.419   .     S
C667   O706    1.286   .     A
C668   C691    1.418   .     S
C668   O704    1.289   .     A
C668   O705    1.285   .     A
C669   O710    1.293   .     A
C669   C687    1.450   .     S
C669   O707    1.296   .     A
C670   O709    1.286   .     A
C670   C688    1.422   .     S
C670   O708    1.288   .     A
C671   O713    1.375   .     S
C671   N702    1.386   .     A
C671   C1118   1.430   1_545 S
C672   N701    1.386   .     A
C672   O715    1.375   .     S
C672   C895    1.430   .     S
C673   N702    1.359   .     A
C673   O717    1.381   .     S
C673   C1116   1.430   1_545 S
C674   O719    1.380   .     S
C674   N701    1.359   .     A
C674   C893    1.430   .     S
C675   C692    1.398   .     A
C675   H697    1.084   .     S
C675   C825    1.370   1_455 S
C676   C691    1.398   .     A
C676   H698    1.084   .     S
C676   C752    1.370   .     S
C677   C691    1.396   .     A
C677   H699    1.083   .     S
C677   C749    1.370   .     S
C678   C692    1.396   .     A
C678   H700    1.083   .     S
C678   C824    1.370   1_455 S
C679   C683    1.386   .     A
C679   C689    1.394   .     A
C679   H693    1.084   .     S
C680   C684    1.387   .     A
C680   C690    1.398   .     A
C680   H694    1.084   .     S
C681   C685    1.392   .     A
C681   H695    1.083   .     S
C681   C690    1.397   .     A
C682   C689    1.392   .     A
C682   C686    1.387   .     A
C682   H696    1.084   .     S
C683   O721    1.383   .     S
C683   C687    1.413   .     A
C684   O726    1.384   .     S
C684   C688    1.400   .     A
C685   C688    1.401   .     A
C685   O731    1.389   .     S
C686   O736    1.385   .     S
C686   C687    1.413   .     A
C690   C23     1.441   1_556 S
N701   Zn711   2.021   .     S
N702   Zn712   2.021   .     S
O703   Zn711   2.001   .     S
O704   Zn712   2.001   .     S
O705   Zn711   1.995   .     S
O706   Zn712   1.995   .     S
O707   Zn711   2.002   .     S
O708   Zn712   2.002   .     S
O709   Zn711   1.995   .     S
O710   Zn712   1.995   .     S
O713   H714    0.979   .     S
O715   H716    0.979   .     S
O717   H718    0.989   .     S
O719   H720    0.989   .     S
O721   C722    1.410   .     S
C722   H725    1.114   .     S
C722   H724    1.109   .     S
C722   H723    1.113   .     S
O726   C727    1.410   .     S
C727   H730    1.109   .     S
C727   H728    1.114   .     S
C727   H729    1.112   .     S
O731   C732    1.411   .     S
C732   H734    1.109   .     S
C732   H733    1.110   .     S
C732   H735    1.115   .     S
O736   C737    1.413   .     S
C737   H740    1.114   .     S
C737   H738    1.109   .     S
C737   H739    1.112   .     S
C741   O777    1.288   .     A
C741   C766    1.419   .     S
C741   O780    1.286   .     A
C742   C765    1.418   .     S
C742   O778    1.289   .     A
C742   O779    1.285   .     A
C743   O784    1.293   .     A
C743   C761    1.450   .     S
C743   O781    1.296   .     A
C744   O783    1.286   .     A
C744   C762    1.422   .     S
C744   O782    1.288   .     A
C745   O787    1.375   .     S
C745   N776    1.386   .     A
C745   C1192   1.430   1_545 S
C746   N775    1.386   .     A
C746   O789    1.375   .     S
C746   C969    1.430   .     S
C747   N776    1.359   .     A
C747   O791    1.381   .     S
C747   C1190   1.430   1_545 S
C748   O793    1.380   .     S
C748   N775    1.359   .     A
C748   C967    1.430   .     S
C749   C766    1.398   .     A
C749   H771    1.084   .     S
C750   C765    1.398   .     A
C750   H772    1.084   .     S
C750   C826    1.370   .     S
C751   C765    1.396   .     A
C751   H773    1.083   .     S
C751   C823    1.370   .     S
C752   C766    1.396   .     A
C752   H774    1.083   .     S
C753   C757    1.386   .     A
C753   C763    1.394   .     A
C753   H767    1.084   .     S
C754   C758    1.387   .     A
C754   C764    1.398   .     A
C754   H768    1.084   .     S
C755   C759    1.392   .     A
C755   H769    1.083   .     S
C755   C764    1.397   .     A
C756   C763    1.392   .     A
C756   C760    1.387   .     A
C756   H770    1.084   .     S
C757   O795    1.383   .     S
C757   C761    1.413   .     A
C758   O800    1.384   .     S
C758   C762    1.400   .     A
C759   C762    1.401   .     A
C759   O805    1.389   .     S
C760   O810    1.385   .     S
C760   C761    1.413   .     A
C764   C97     1.441   1_556 S
N775   Zn785   2.021   .     S
N776   Zn786   2.021   .     S
O777   Zn785   2.001   .     S
O778   Zn786   2.001   .     S
O779   Zn785   1.995   .     S
O780   Zn786   1.995   .     S
O781   Zn785   2.002   .     S
O782   Zn786   2.002   .     S
O783   Zn785   1.995   .     S
O784   Zn786   1.995   .     S
O787   H788    0.979   .     S
O789   H790    0.979   .     S
O791   H792    0.989   .     S
O793   H794    0.989   .     S
O795   C796    1.410   .     S
C796   H799    1.114   .     S
C796   H798    1.109   .     S
C796   H797    1.113   .     S
O800   C801    1.410   .     S
C801   H804    1.109   .     S
C801   H802    1.114   .     S
C801   H803    1.112   .     S
O805   C806    1.411   .     S
C806   H808    1.109   .     S
C806   H807    1.110   .     S
C806   H809    1.115   .     S
O810   C811    1.413   .     S
C811   H814    1.114   .     S
C811   H812    1.109   .     S
C811   H813    1.112   .     S
C815   O851    1.288   .     A
C815   C840    1.419   .     S
C815   O854    1.286   .     A
C816   C839    1.418   .     S
C816   O852    1.289   .     A
C816   O853    1.285   .     A
C817   O858    1.293   .     A
C817   C835    1.450   .     S
C817   O855    1.296   .     A
C818   O857    1.286   .     A
C818   C836    1.422   .     S
C818   O856    1.288   .     A
C819   O861    1.375   .     S
C819   N850    1.386   .     A
C819   C1266   1.430   1_545 S
C820   N849    1.386   .     A
C820   O863    1.375   .     S
C820   C1043   1.430   .     S
C821   N850    1.359   .     A
C821   O865    1.381   .     S
C821   C1264   1.430   1_545 S
C822   O867    1.380   .     S
C822   N849    1.359   .     A
C822   C1041   1.430   .     S
C823   C840    1.398   .     A
C823   H845    1.084   .     S
C824   C839    1.398   .     A
C824   H846    1.084   .     S
C824   C678    1.370   1_655 S
C825   C839    1.396   .     A
C825   H847    1.083   .     S
C825   C675    1.370   1_655 S
C826   C840    1.396   .     A
C826   H848    1.083   .     S
C827   C831    1.386   .     A
C827   C837    1.394   .     A
C827   H841    1.084   .     S
C828   C832    1.387   .     A
C828   C838    1.398   .     A
C828   H842    1.084   .     S
C829   C833    1.392   .     A
C829   H843    1.083   .     S
C829   C838    1.397   .     A
C830   C837    1.392   .     A
C830   C834    1.387   .     A
C830   H844    1.084   .     S
C831   O869    1.383   .     S
C831   C835    1.413   .     A
C832   O874    1.384   .     S
C832   C836    1.400   .     A
C833   C836    1.401   .     A
C833   O879    1.389   .     S
C834   O884    1.385   .     S
C834   C835    1.413   .     A
C838   C171    1.441   1_556 S
N849   Zn859   2.021   .     S
N850   Zn860   2.021   .     S
O851   Zn859   2.001   .     S
O852   Zn860   2.001   .     S
O853   Zn859   1.995   .     S
O854   Zn860   1.995   .     S
O855   Zn859   2.002   .     S
O856   Zn860   2.002   .     S
O857   Zn859   1.995   .     S
O858   Zn860   1.995   .     S
O861   H862    0.979   .     S
O863   H864    0.979   .     S
O865   H866    0.989   .     S
O867   H868    0.989   .     S
O869   C870    1.410   .     S
C870   H873    1.114   .     S
C870   H872    1.109   .     S
C870   H871    1.113   .     S
O874   C875    1.410   .     S
C875   H878    1.109   .     S
C875   H876    1.114   .     S
C875   H877    1.112   .     S
O879   C880    1.411   .     S
C880   H882    1.109   .     S
C880   H881    1.110   .     S
C880   H883    1.115   .     S
O884   C885    1.413   .     S
C885   H888    1.114   .     S
C885   H886    1.109   .     S
C885   H887    1.112   .     S
C889   O925    1.288   .     A
C889   C914    1.419   .     S
C889   O928    1.286   .     A
C890   C913    1.418   .     S
C890   O926    1.289   .     A
C890   O927    1.285   .     A
C891   O932    1.293   .     A
C891   C909    1.450   .     S
C891   O929    1.296   .     A
C892   O931    1.286   .     A
C892   C910    1.422   .     S
C892   O930    1.288   .     A
C893   O935    1.375   .     S
C893   N924    1.386   .     A
C894   N923    1.386   .     A
C894   O937    1.375   .     S
C894   C1117   1.430   .     S
C895   N924    1.359   .     A
C895   O939    1.381   .     S
C896   O941    1.380   .     S
C896   N923    1.359   .     A
C896   C1115   1.430   .     S
C897   C914    1.398   .     A
C897   H919    1.084   .     S
C897   C1047   1.370   1_455 S
C898   C913    1.398   .     A
C898   H920    1.084   .     S
C898   C974    1.370   .     S
C899   C913    1.396   .     A
C899   H921    1.083   .     S
C899   C971    1.370   .     S
C900   C914    1.396   .     A
C900   H922    1.083   .     S
C900   C1046   1.370   1_455 S
C901   C905    1.386   .     A
C901   C911    1.394   .     A
C901   H915    1.084   .     S
C902   C906    1.387   .     A
C902   C912    1.398   .     A
C902   H916    1.084   .     S
C903   C907    1.392   .     A
C903   H917    1.083   .     S
C903   C912    1.397   .     A
C904   C911    1.392   .     A
C904   C908    1.387   .     A
C904   H918    1.084   .     S
C905   O943    1.383   .     S
C905   C909    1.413   .     A
C906   O948    1.384   .     S
C906   C910    1.400   .     A
C907   C910    1.401   .     A
C907   O953    1.389   .     S
C908   O958    1.385   .     S
C908   C909    1.413   .     A
C912   C245    1.441   1_556 S
N923   Zn933   2.021   .     S
N924   Zn934   2.021   .     S
O925   Zn933   2.001   .     S
O926   Zn934   2.001   .     S
O927   Zn933   1.995   .     S
O928   Zn934   1.995   .     S
O929   Zn933   2.002   .     S
O930   Zn934   2.002   .     S
O931   Zn933   1.995   .     S
O932   Zn934   1.995   .     S
O935   H936    0.979   .     S
O937   H938    0.979   .     S
O939   H940    0.989   .     S
O941   H942    0.989   .     S
O943   C944    1.410   .     S
C944   H947    1.114   .     S
C944   H946    1.109   .     S
C944   H945    1.113   .     S
O948   C949    1.410   .     S
C949   H952    1.109   .     S
C949   H950    1.114   .     S
C949   H951    1.112   .     S
O953   C954    1.411   .     S
C954   H956    1.109   .     S
C954   H955    1.110   .     S
C954   H957    1.115   .     S
O958   C959    1.413   .     S
C959   H962    1.114   .     S
C959   H960    1.109   .     S
C959   H961    1.112   .     S
C963   O999    1.288   .     A
C963   C988    1.419   .     S
C963   O1002   1.286   .     A
C964   C987    1.418   .     S
C964   O1000   1.289   .     A
C964   O1001   1.285   .     A
C965   O1006   1.293   .     A
C965   C983    1.450   .     S
C965   O1003   1.296   .     A
C966   O1005   1.286   .     A
C966   C984    1.422   .     S
C966   O1004   1.288   .     A
C967   O1009   1.375   .     S
C967   N998    1.386   .     A
C968   N997    1.386   .     A
C968   O1011   1.375   .     S
C968   C1191   1.430   .     S
C969   N998    1.359   .     A
C969   O1013   1.381   .     S
C970   O1015   1.380   .     S
C970   N997    1.359   .     A
C970   C1189   1.430   .     S
C971   C988    1.398   .     A
C971   H993    1.084   .     S
C972   C987    1.398   .     A
C972   H994    1.084   .     S
C972   C1048   1.370   .     S
C973   C987    1.396   .     A
C973   H995    1.083   .     S
C973   C1045   1.370   .     S
C974   C988    1.396   .     A
C974   H996    1.083   .     S
C975   C979    1.386   .     A
C975   C985    1.394   .     A
C975   H989    1.084   .     S
C976   C980    1.387   .     A
C976   C986    1.398   .     A
C976   H990    1.084   .     S
C977   C981    1.392   .     A
C977   H991    1.083   .     S
C977   C986    1.397   .     A
C978   C985    1.392   .     A
C978   C982    1.387   .     A
C978   H992    1.084   .     S
C979   O1017   1.383   .     S
C979   C983    1.413   .     A
C980   O1022   1.384   .     S
C980   C984    1.400   .     A
C981   C984    1.401   .     A
C981   O1027   1.389   .     S
C982   O1032   1.385   .     S
C982   C983    1.413   .     A
C986   C319    1.441   1_556 S
N997   Zn1007  2.021   .     S
N998   Zn1008  2.021   .     S
O999   Zn1007  2.001   .     S
O1000  Zn1008  2.001   .     S
O1001  Zn1007  1.995   .     S
O1002  Zn1008  1.995   .     S
O1003  Zn1007  2.002   .     S
O1004  Zn1008  2.002   .     S
O1005  Zn1007  1.995   .     S
O1006  Zn1008  1.995   .     S
O1009  H1010   0.979   .     S
O1011  H1012   0.979   .     S
O1013  H1014   0.989   .     S
O1015  H1016   0.989   .     S
O1017  C1018   1.410   .     S
C1018  H1021   1.114   .     S
C1018  H1020   1.109   .     S
C1018  H1019   1.113   .     S
O1022  C1023   1.410   .     S
C1023  H1026   1.109   .     S
C1023  H1024   1.114   .     S
C1023  H1025   1.112   .     S
O1027  C1028   1.411   .     S
C1028  H1030   1.109   .     S
C1028  H1029   1.110   .     S
C1028  H1031   1.115   .     S
O1032  C1033   1.413   .     S
C1033  H1036   1.114   .     S
C1033  H1034   1.109   .     S
C1033  H1035   1.112   .     S
C1037  O1073   1.288   .     A
C1037  C1062   1.419   .     S
C1037  O1076   1.286   .     A
C1038  C1061   1.418   .     S
C1038  O1074   1.289   .     A
C1038  O1075   1.285   .     A
C1039  O1080   1.293   .     A
C1039  C1057   1.450   .     S
C1039  O1077   1.296   .     A
C1040  O1079   1.286   .     A
C1040  C1058   1.422   .     S
C1040  O1078   1.288   .     A
C1041  O1083   1.375   .     S
C1041  N1072   1.386   .     A
C1042  N1071   1.386   .     A
C1042  O1085   1.375   .     S
C1042  C1265   1.430   .     S
C1043  N1072   1.359   .     A
C1043  O1087   1.381   .     S
C1044  O1089   1.380   .     S
C1044  N1071   1.359   .     A
C1044  C1263   1.430   .     S
C1045  C1062   1.398   .     A
C1045  H1067   1.084   .     S
C1046  C1061   1.398   .     A
C1046  H1068   1.084   .     S
C1046  C900    1.370   1_655 S
C1047  C1061   1.396   .     A
C1047  H1069   1.083   .     S
C1047  C897    1.370   1_655 S
C1048  C1062   1.396   .     A
C1048  H1070   1.083   .     S
C1049  C1053   1.386   .     A
C1049  C1059   1.394   .     A
C1049  H1063   1.084   .     S
C1050  C1054   1.387   .     A
C1050  C1060   1.398   .     A
C1050  H1064   1.084   .     S
C1051  C1055   1.392   .     A
C1051  H1065   1.083   .     S
C1051  C1060   1.397   .     A
C1052  C1059   1.392   .     A
C1052  C1056   1.387   .     A
C1052  H1066   1.084   .     S
C1053  O1091   1.383   .     S
C1053  C1057   1.413   .     A
C1054  O1096   1.384   .     S
C1054  C1058   1.400   .     A
C1055  C1058   1.401   .     A
C1055  O1101   1.389   .     S
C1056  O1106   1.385   .     S
C1056  C1057   1.413   .     A
C1060  C393    1.441   1_556 S
N1071  Zn1081  2.021   .     S
N1072  Zn1082  2.021   .     S
O1073  Zn1081  2.001   .     S
O1074  Zn1082  2.001   .     S
O1075  Zn1081  1.995   .     S
O1076  Zn1082  1.995   .     S
O1077  Zn1081  2.002   .     S
O1078  Zn1082  2.002   .     S
O1079  Zn1081  1.995   .     S
O1080  Zn1082  1.995   .     S
O1083  H1084   0.979   .     S
O1085  H1086   0.979   .     S
O1087  H1088   0.989   .     S
O1089  H1090   0.989   .     S
O1091  C1092   1.410   .     S
C1092  H1095   1.114   .     S
C1092  H1094   1.109   .     S
C1092  H1093   1.113   .     S
O1096  C1097   1.410   .     S
C1097  H1100   1.109   .     S
C1097  H1098   1.114   .     S
C1097  H1099   1.112   .     S
O1101  C1102   1.411   .     S
C1102  H1104   1.109   .     S
C1102  H1103   1.110   .     S
C1102  H1105   1.115   .     S
O1106  C1107   1.413   .     S
C1107  H1110   1.114   .     S
C1107  H1108   1.109   .     S
C1107  H1109   1.112   .     S
C1111  O1147   1.288   .     A
C1111  C1136   1.419   .     S
C1111  O1150   1.286   .     A
C1112  C1135   1.418   .     S
C1112  O1148   1.289   .     A
C1112  O1149   1.285   .     A
C1113  O1154   1.293   .     A
C1113  C1131   1.450   .     S
C1113  O1151   1.296   .     A
C1114  O1153   1.286   .     A
C1114  C1132   1.422   .     S
C1114  O1152   1.288   .     A
C1115  O1157   1.375   .     S
C1115  N1146   1.386   .     A
C1116  N1145   1.386   .     A
C1116  O1159   1.375   .     S
C1116  C673    1.430   1_565 S
C1117  N1146   1.359   .     A
C1117  O1161   1.381   .     S
C1118  O1163   1.380   .     S
C1118  N1145   1.359   .     A
C1118  C671    1.430   1_565 S
C1119  C1136   1.398   .     A
C1119  H1141   1.084   .     S
C1119  C1269   1.370   1_455 S
C1120  C1135   1.398   .     A
C1120  H1142   1.084   .     S
C1120  C1196   1.370   .     S
C1121  C1135   1.396   .     A
C1121  H1143   1.083   .     S
C1121  C1193   1.370   .     S
C1122  C1136   1.396   .     A
C1122  H1144   1.083   .     S
C1122  C1268   1.370   1_455 S
C1123  C1127   1.386   .     A
C1123  C1133   1.394   .     A
C1123  H1137   1.084   .     S
C1124  C1128   1.387   .     A
C1124  C1134   1.398   .     A
C1124  H1138   1.084   .     S
C1125  C1129   1.392   .     A
C1125  H1139   1.083   .     S
C1125  C1134   1.397   .     A
C1126  C1133   1.392   .     A
C1126  C1130   1.387   .     A
C1126  H1140   1.084   .     S
C1127  O1165   1.383   .     S
C1127  C1131   1.413   .     A
C1128  O1170   1.384   .     S
C1128  C1132   1.400   .     A
C1129  C1132   1.401   .     A
C1129  O1175   1.389   .     S
C1130  O1180   1.385   .     S
C1130  C1131   1.413   .     A
C1134  C467    1.441   1_556 S
N1145  Zn1155  2.021   .     S
N1146  Zn1156  2.021   .     S
O1147  Zn1155  2.001   .     S
O1148  Zn1156  2.001   .     S
O1149  Zn1155  1.995   .     S
O1150  Zn1156  1.995   .     S
O1151  Zn1155  2.002   .     S
O1152  Zn1156  2.002   .     S
O1153  Zn1155  1.995   .     S
O1154  Zn1156  1.995   .     S
O1157  H1158   0.979   .     S
O1159  H1160   0.979   .     S
O1161  H1162   0.989   .     S
O1163  H1164   0.989   .     S
O1165  C1166   1.410   .     S
C1166  H1169   1.114   .     S
C1166  H1168   1.109   .     S
C1166  H1167   1.113   .     S
O1170  C1171   1.410   .     S
C1171  H1174   1.109   .     S
C1171  H1172   1.114   .     S
C1171  H1173   1.112   .     S
O1175  C1176   1.411   .     S
C1176  H1178   1.109   .     S
C1176  H1177   1.110   .     S
C1176  H1179   1.115   .     S
O1180  C1181   1.413   .     S
C1181  H1184   1.114   .     S
C1181  H1182   1.109   .     S
C1181  H1183   1.112   .     S
C1185  O1221   1.288   .     A
C1185  C1210   1.419   .     S
C1185  O1224   1.286   .     A
C1186  C1209   1.418   .     S
C1186  O1222   1.289   .     A
C1186  O1223   1.285   .     A
C1187  O1228   1.293   .     A
C1187  C1205   1.450   .     S
C1187  O1225   1.296   .     A
C1188  O1227   1.286   .     A
C1188  C1206   1.422   .     S
C1188  O1226   1.288   .     A
C1189  O1231   1.375   .     S
C1189  N1220   1.386   .     A
C1190  N1219   1.386   .     A
C1190  O1233   1.375   .     S
C1190  C747    1.430   1_565 S
C1191  N1220   1.359   .     A
C1191  O1235   1.381   .     S
C1192  O1237   1.380   .     S
C1192  N1219   1.359   .     A
C1192  C745    1.430   1_565 S
C1193  C1210   1.398   .     A
C1193  H1215   1.084   .     S
C1194  C1209   1.398   .     A
C1194  H1216   1.084   .     S
C1194  C1270   1.370   .     S
C1195  C1209   1.396   .     A
C1195  H1217   1.083   .     S
C1195  C1267   1.370   .     S
C1196  C1210   1.396   .     A
C1196  H1218   1.083   .     S
C1197  C1201   1.386   .     A
C1197  C1207   1.394   .     A
C1197  H1211   1.084   .     S
C1198  C1202   1.387   .     A
C1198  C1208   1.398   .     A
C1198  H1212   1.084   .     S
C1199  C1203   1.392   .     A
C1199  H1213   1.083   .     S
C1199  C1208   1.397   .     A
C1200  C1207   1.392   .     A
C1200  C1204   1.387   .     A
C1200  H1214   1.084   .     S
C1201  O1239   1.383   .     S
C1201  C1205   1.413   .     A
C1202  O1244   1.384   .     S
C1202  C1206   1.400   .     A
C1203  C1206   1.401   .     A
C1203  O1249   1.389   .     S
C1204  O1254   1.385   .     S
C1204  C1205   1.413   .     A
C1208  C541    1.441   1_556 S
N1219  Zn1229  2.021   .     S
N1220  Zn1230  2.021   .     S
O1221  Zn1229  2.001   .     S
O1222  Zn1230  2.001   .     S
O1223  Zn1229  1.995   .     S
O1224  Zn1230  1.995   .     S
O1225  Zn1229  2.002   .     S
O1226  Zn1230  2.002   .     S
O1227  Zn1229  1.995   .     S
O1228  Zn1230  1.995   .     S
O1231  H1232   0.979   .     S
O1233  H1234   0.979   .     S
O1235  H1236   0.989   .     S
O1237  H1238   0.989   .     S
O1239  C1240   1.410   .     S
C1240  H1243   1.114   .     S
C1240  H1242   1.109   .     S
C1240  H1241   1.113   .     S
O1244  C1245   1.410   .     S
C1245  H1248   1.109   .     S
C1245  H1246   1.114   .     S
C1245  H1247   1.112   .     S
O1249  C1250   1.411   .     S
C1250  H1252   1.109   .     S
C1250  H1251   1.110   .     S
C1250  H1253   1.115   .     S
O1254  C1255   1.413   .     S
C1255  H1258   1.114   .     S
C1255  H1256   1.109   .     S
C1255  H1257   1.112   .     S
C1259  O1295   1.288   .     A
C1259  C1284   1.419   .     S
C1259  O1298   1.286   .     A
C1260  C1283   1.418   .     S
C1260  O1296   1.289   .     A
C1260  O1297   1.285   .     A
C1261  O1302   1.293   .     A
C1261  C1279   1.450   .     S
C1261  O1299   1.296   .     A
C1262  O1301   1.286   .     A
C1262  C1280   1.422   .     S
C1262  O1300   1.288   .     A
C1263  O1305   1.375   .     S
C1263  N1294   1.386   .     A
C1264  N1293   1.386   .     A
C1264  O1307   1.375   .     S
C1264  C821    1.430   1_565 S
C1265  N1294   1.359   .     A
C1265  O1309   1.381   .     S
C1266  O1311   1.380   .     S
C1266  N1293   1.359   .     A
C1266  C819    1.430   1_565 S
C1267  C1284   1.398   .     A
C1267  H1289   1.084   .     S
C1268  C1283   1.398   .     A
C1268  H1290   1.084   .     S
C1268  C1122   1.370   1_655 S
C1269  C1283   1.396   .     A
C1269  H1291   1.083   .     S
C1269  C1119   1.370   1_655 S
C1270  C1284   1.396   .     A
C1270  H1292   1.083   .     S
C1271  C1275   1.386   .     A
C1271  C1281   1.394   .     A
C1271  H1285   1.084   .     S
C1272  C1276   1.387   .     A
C1272  C1282   1.398   .     A
C1272  H1286   1.084   .     S
C1273  C1277   1.392   .     A
C1273  H1287   1.083   .     S
C1273  C1282   1.397   .     A
C1274  C1281   1.392   .     A
C1274  C1278   1.387   .     A
C1274  H1288   1.084   .     S
C1275  O1313   1.383   .     S
C1275  C1279   1.413   .     A
C1276  O1318   1.384   .     S
C1276  C1280   1.400   .     A
C1277  C1280   1.401   .     A
C1277  O1323   1.389   .     S
C1278  O1328   1.385   .     S
C1278  C1279   1.413   .     A
C1282  C615    1.441   1_556 S
N1293  Zn1303  2.021   .     S
N1294  Zn1304  2.021   .     S
O1295  Zn1303  2.001   .     S
O1296  Zn1304  2.001   .     S
O1297  Zn1303  1.995   .     S
O1298  Zn1304  1.995   .     S
O1299  Zn1303  2.002   .     S
O1300  Zn1304  2.002   .     S
O1301  Zn1303  1.995   .     S
O1302  Zn1304  1.995   .     S
O1305  H1306   0.979   .     S
O1307  H1308   0.979   .     S
O1309  H1310   0.989   .     S
O1311  H1312   0.989   .     S
O1313  C1314   1.410   .     S
C1314  H1317   1.114   .     S
C1314  H1316   1.109   .     S
C1314  H1315   1.113   .     S
O1318  C1319   1.410   .     S
C1319  H1322   1.109   .     S
C1319  H1320   1.114   .     S
C1319  H1321   1.112   .     S
O1323  C1324   1.411   .     S
C1324  H1326   1.109   .     S
C1324  H1325   1.110   .     S
C1324  H1327   1.115   .     S
O1328  C1329   1.413   .     S
C1329  H1332   1.114   .     S
C1329  H1330   1.109   .     S
C1329  H1331   1.112   .     S
