data_str_m3_o1_o1_pcu_sym.61
_audit_creation_date              2020-01-03
_audit_creation_method            'Materials Studio'
_symmetry_space_group_name_H-M    'P1'
_symmetry_Int_Tables_number       1
_symmetry_cell_setting            triclinic
loop_
_symmetry_equiv_pos_as_xyz
  x,y,z
_cell_length_a                    30.9850
_cell_length_b                    30.0801
_cell_length_c                    29.6268
_cell_angle_alpha                 90.0000
_cell_angle_beta                  90.0000
_cell_angle_gamma                 90.0000
loop_
_atom_site_label
_atom_site_type_symbol
_atom_site_fract_x
_atom_site_fract_y
_atom_site_fract_z
_atom_site_U_iso_or_equiv
_atom_site_adp_type
_atom_site_occupancy
C1     C     0.06028   0.19027   0.16667   0.00000  Uiso   1.00
C2     C     0.00000   0.21087   0.30938   0.00000  Uiso   1.00
C3     C     0.00000   0.21087   0.02395   0.00000  Uiso   1.00
C4     C     0.00000   0.28913   0.30938   0.00000  Uiso   1.00
C5     C     0.25000   0.03913   0.02395   0.00000  Uiso   1.00
C6     C     0.25000   0.46087   0.30938   0.00000  Uiso   1.00
C7     C     0.25000   0.46087   0.02395   0.00000  Uiso   1.00
C8     C     0.25000   0.03913   0.30938   0.00000  Uiso   1.00
C9     C     0.39042   0.14128   0.12547   0.00000  Uiso   1.00
C10    C     0.10958   0.35872   0.20786   0.00000  Uiso   1.00
C11    C     0.10958   0.35872   0.12547   0.00000  Uiso   1.00
C12    C     0.43972   0.30973   0.16667   0.00000  Uiso   1.00
C13    C     0.39042   0.14128   0.20786   0.00000  Uiso   1.00
C14    C     0.10958   0.14128   0.20786   0.00000  Uiso   1.00
C15    C     0.39042   0.35872   0.12547   0.00000  Uiso   1.00
C16    C     0.39042   0.35872   0.20786   0.00000  Uiso   1.00
C17    C     0.10958   0.14128   0.12547   0.00000  Uiso   1.00
C18    C     0.14042   0.39128   0.12547   0.00000  Uiso   1.00
C19    C     0.35958   0.10872   0.20786   0.00000  Uiso   1.00
C20    C     0.35958   0.10872   0.12547   0.00000  Uiso   1.00
C21    C     0.14042   0.39128   0.20786   0.00000  Uiso   1.00
C22    C     0.35958   0.39128   0.20786   0.00000  Uiso   1.00
C23    C     0.43972   0.19027   0.16667   0.00000  Uiso   1.00
C24    C     0.14042   0.10872   0.12547   0.00000  Uiso   1.00
C25    C     0.14042   0.10872   0.20786   0.00000  Uiso   1.00
C26    C     0.35958   0.39128   0.12547   0.00000  Uiso   1.00
C27    C     0.09366   0.34258   0.16667   0.00000  Uiso   1.00
C28    C     0.40634   0.15742   0.16667   0.00000  Uiso   1.00
C29    C     0.40634   0.34258   0.16667   0.00000  Uiso   1.00
C30    C     0.09366   0.15742   0.16667   0.00000  Uiso   1.00
C31    C     0.34366   0.09258   0.16667   0.00000  Uiso   1.00
C32    C     0.15634   0.40742   0.16667   0.00000  Uiso   1.00
C33    C     0.15634   0.09258   0.16667   0.00000  Uiso   1.00
C34    C     0.06028   0.30973   0.16667   0.00000  Uiso   1.00
C35    C     0.34366   0.40742   0.16667   0.00000  Uiso   1.00
C36    C     0.31028   0.44027   0.16667   0.00000  Uiso   1.00
C37    C     0.18972   0.05973   0.16667   0.00000  Uiso   1.00
C38    C     0.18972   0.44027   0.16667   0.00000  Uiso   1.00
C39    C     0.31028   0.05973   0.16667   0.00000  Uiso   1.00
C40    C    -0.00000   0.28913   0.02395   0.00000  Uiso   1.00
Cl41   Cl   -0.00000   0.34009   0.05303   0.00000  Uiso   1.00
Cl42   Cl   -0.00000   0.15991   0.28030   0.00000  Uiso   1.00
Cl43   Cl   -0.00000   0.15991   0.05303   0.00000  Uiso   1.00
Cl44   Cl   -0.00000   0.34009   0.28030   0.00000  Uiso   1.00
Cl45   Cl    0.25000   0.09009   0.05303   0.00000  Uiso   1.00
Cl46   Cl    0.25000   0.40991   0.28030   0.00000  Uiso   1.00
Cl47   Cl    0.25000   0.40991   0.05303   0.00000  Uiso   1.00
Cl48   Cl    0.25000   0.09009   0.28030   0.00000  Uiso   1.00
F49    F     0.40419   0.15685   0.08492   0.00000  Uiso   1.00
F50    F     0.34581   0.09315   0.24842   0.00000  Uiso   1.00
F51    F     0.34581   0.09315   0.08492   0.00000  Uiso   1.00
F52    F     0.15419   0.40685   0.24842   0.00000  Uiso   1.00
F53    F     0.34581   0.40685   0.24842   0.00000  Uiso   1.00
F54    F     0.15419   0.09315   0.08492   0.00000  Uiso   1.00
F55    F     0.15419   0.09315   0.24842   0.00000  Uiso   1.00
F56    F     0.34581   0.40685   0.08492   0.00000  Uiso   1.00
F57    F     0.09581   0.34315   0.24842   0.00000  Uiso   1.00
F58    F     0.09581   0.34315   0.08492   0.00000  Uiso   1.00
F59    F     0.40419   0.15685   0.24842   0.00000  Uiso   1.00
F60    F     0.09581   0.15685   0.24842   0.00000  Uiso   1.00
F61    F     0.40419   0.34315   0.08492   0.00000  Uiso   1.00
F62    F     0.40419   0.34315   0.24842   0.00000  Uiso   1.00
F63    F     0.09581   0.15685   0.08492   0.00000  Uiso   1.00
F64    F     0.15419   0.40685   0.08492   0.00000  Uiso   1.00
N65    N    -0.00000   0.25000   0.28573   0.00000  Uiso   1.00
N66    N    -0.00000   0.25000   0.04760   0.00000  Uiso   1.00
N67    N     0.25000   0.00000   0.28573   0.00000  Uiso   1.00
N68    N     0.25000   0.00000   0.04760   0.00000  Uiso   1.00
O69    O     0.04580   0.20419   0.20487   0.00000  Uiso   1.00
O70    O     0.20419   0.04581   0.12846   0.00000  Uiso   1.00
O71    O     0.20419   0.04581   0.20487   0.00000  Uiso   1.00
O72    O     0.29580   0.45419   0.12846   0.00000  Uiso   1.00
O73    O     0.20419   0.45419   0.12846   0.00000  Uiso   1.00
O74    O     0.29580   0.04581   0.20487   0.00000  Uiso   1.00
O75    O     0.29580   0.04581   0.12846   0.00000  Uiso   1.00
O76    O     0.20419   0.45419   0.20487   0.00000  Uiso   1.00
O77    O     0.45419   0.29581   0.12846   0.00000  Uiso   1.00
O78    O     0.45419   0.29581   0.20487   0.00000  Uiso   1.00
O79    O     0.04580   0.20419   0.12846   0.00000  Uiso   1.00
O80    O     0.45419   0.20419   0.12846   0.00000  Uiso   1.00
O81    O     0.04580   0.29581   0.20487   0.00000  Uiso   1.00
O82    O     0.04580   0.29581   0.12846   0.00000  Uiso   1.00
O83    O     0.45419   0.20419   0.20487   0.00000  Uiso   1.00
O84    O     0.29580   0.45419   0.20487   0.00000  Uiso   1.00
Zn85   Zn   -0.00000   0.25000   0.21771   0.00000  Uiso   1.00
Zn86   Zn   -0.00000   0.25000   0.11563   0.00000  Uiso   1.00
Zn87   Zn    0.25000   0.00000   0.21771   0.00000  Uiso   1.00
Zn88   Zn    0.25000   0.00000   0.11563   0.00000  Uiso   1.00
C89    C     0.56028   0.19027   0.16667   0.00000  Uiso   1.00
C90    C     0.50000   0.21087   0.30938   0.00000  Uiso   1.00
C91    C     0.50000   0.21087   0.02395   0.00000  Uiso   1.00
C92    C     0.50000   0.28913   0.30938   0.00000  Uiso   1.00
C93    C     0.75000   0.03913   0.02395   0.00000  Uiso   1.00
C94    C     0.75000   0.46087   0.30938   0.00000  Uiso   1.00
C95    C     0.75000   0.46087   0.02395   0.00000  Uiso   1.00
C96    C     0.75000   0.03913   0.30938   0.00000  Uiso   1.00
C97    C     0.89042   0.14128   0.12547   0.00000  Uiso   1.00
C98    C     0.60958   0.35872   0.20786   0.00000  Uiso   1.00
C99    C     0.60958   0.35872   0.12547   0.00000  Uiso   1.00
C100   C     0.93972   0.30973   0.16667   0.00000  Uiso   1.00
C101   C     0.89042   0.14128   0.20786   0.00000  Uiso   1.00
C102   C     0.60958   0.14128   0.20786   0.00000  Uiso   1.00
C103   C     0.89042   0.35872   0.12547   0.00000  Uiso   1.00
C104   C     0.89042   0.35872   0.20786   0.00000  Uiso   1.00
C105   C     0.60958   0.14128   0.12547   0.00000  Uiso   1.00
C106   C     0.64042   0.39128   0.12547   0.00000  Uiso   1.00
C107   C     0.85958   0.10872   0.20786   0.00000  Uiso   1.00
C108   C     0.85958   0.10872   0.12547   0.00000  Uiso   1.00
C109   C     0.64042   0.39128   0.20786   0.00000  Uiso   1.00
C110   C     0.85958   0.39128   0.20786   0.00000  Uiso   1.00
C111   C     0.93972   0.19027   0.16667   0.00000  Uiso   1.00
C112   C     0.64042   0.10872   0.12547   0.00000  Uiso   1.00
C113   C     0.64042   0.10872   0.20786   0.00000  Uiso   1.00
C114   C     0.85958   0.39128   0.12547   0.00000  Uiso   1.00
C115   C     0.59366   0.34258   0.16667   0.00000  Uiso   1.00
C116   C     0.90634   0.15742   0.16667   0.00000  Uiso   1.00
C117   C     0.90634   0.34258   0.16667   0.00000  Uiso   1.00
C118   C     0.59366   0.15742   0.16667   0.00000  Uiso   1.00
C119   C     0.84366   0.09258   0.16667   0.00000  Uiso   1.00
C120   C     0.65634   0.40742   0.16667   0.00000  Uiso   1.00
C121   C     0.65634   0.09258   0.16667   0.00000  Uiso   1.00
C122   C     0.56028   0.30973   0.16667   0.00000  Uiso   1.00
C123   C     0.84366   0.40742   0.16667   0.00000  Uiso   1.00
C124   C     0.81028   0.44027   0.16667   0.00000  Uiso   1.00
C125   C     0.68972   0.05973   0.16667   0.00000  Uiso   1.00
C126   C     0.68972   0.44027   0.16667   0.00000  Uiso   1.00
C127   C     0.81028   0.05973   0.16667   0.00000  Uiso   1.00
C128   C     0.50000   0.28913   0.02395   0.00000  Uiso   1.00
Cl129  Cl    0.50000   0.34009   0.05303   0.00000  Uiso   1.00
Cl130  Cl    0.50000   0.15991   0.28030   0.00000  Uiso   1.00
Cl131  Cl    0.50000   0.15991   0.05303   0.00000  Uiso   1.00
Cl132  Cl    0.50000   0.34009   0.28030   0.00000  Uiso   1.00
Cl133  Cl    0.75000   0.09009   0.05303   0.00000  Uiso   1.00
Cl134  Cl    0.75000   0.40991   0.28030   0.00000  Uiso   1.00
Cl135  Cl    0.75000   0.40991   0.05303   0.00000  Uiso   1.00
Cl136  Cl    0.75000   0.09009   0.28030   0.00000  Uiso   1.00
F137   F     0.90419   0.15685   0.08492   0.00000  Uiso   1.00
F138   F     0.84581   0.09315   0.24842   0.00000  Uiso   1.00
F139   F     0.84581   0.09315   0.08492   0.00000  Uiso   1.00
F140   F     0.65419   0.40685   0.24842   0.00000  Uiso   1.00
F141   F     0.84581   0.40685   0.24842   0.00000  Uiso   1.00
F142   F     0.65419   0.09315   0.08492   0.00000  Uiso   1.00
F143   F     0.65419   0.09315   0.24842   0.00000  Uiso   1.00
F144   F     0.84581   0.40685   0.08492   0.00000  Uiso   1.00
F145   F     0.59581   0.34315   0.24842   0.00000  Uiso   1.00
F146   F     0.59581   0.34315   0.08492   0.00000  Uiso   1.00
F147   F     0.90419   0.15685   0.24842   0.00000  Uiso   1.00
F148   F     0.59581   0.15685   0.24842   0.00000  Uiso   1.00
F149   F     0.90419   0.34315   0.08492   0.00000  Uiso   1.00
F150   F     0.90419   0.34315   0.24842   0.00000  Uiso   1.00
F151   F     0.59581   0.15685   0.08492   0.00000  Uiso   1.00
F152   F     0.65419   0.40685   0.08492   0.00000  Uiso   1.00
N153   N     0.50000   0.25000   0.28573   0.00000  Uiso   1.00
N154   N     0.50000   0.25000   0.04760   0.00000  Uiso   1.00
N155   N     0.75000   0.00000   0.28573   0.00000  Uiso   1.00
N156   N     0.75000   0.00000   0.04760   0.00000  Uiso   1.00
O157   O     0.54580   0.20419   0.20487   0.00000  Uiso   1.00
O158   O     0.70419   0.04581   0.12846   0.00000  Uiso   1.00
O159   O     0.70419   0.04581   0.20487   0.00000  Uiso   1.00
O160   O     0.79580   0.45419   0.12846   0.00000  Uiso   1.00
O161   O     0.70419   0.45419   0.12846   0.00000  Uiso   1.00
O162   O     0.79580   0.04581   0.20487   0.00000  Uiso   1.00
O163   O     0.79580   0.04581   0.12846   0.00000  Uiso   1.00
O164   O     0.70419   0.45419   0.20487   0.00000  Uiso   1.00
O165   O     0.95419   0.29581   0.12846   0.00000  Uiso   1.00
O166   O     0.95419   0.29581   0.20487   0.00000  Uiso   1.00
O167   O     0.54580   0.20419   0.12846   0.00000  Uiso   1.00
O168   O     0.95419   0.20419   0.12846   0.00000  Uiso   1.00
O169   O     0.54580   0.29581   0.20487   0.00000  Uiso   1.00
O170   O     0.54580   0.29581   0.12846   0.00000  Uiso   1.00
O171   O     0.95419   0.20419   0.20487   0.00000  Uiso   1.00
O172   O     0.79580   0.45419   0.20487   0.00000  Uiso   1.00
Zn173  Zn    0.50000   0.25000   0.21771   0.00000  Uiso   1.00
Zn174  Zn    0.50000   0.25000   0.11563   0.00000  Uiso   1.00
Zn175  Zn    0.75000   0.00000   0.21771   0.00000  Uiso   1.00
Zn176  Zn    0.75000   0.00000   0.11563   0.00000  Uiso   1.00
C177   C     0.06028   0.69027   0.16667   0.00000  Uiso   1.00
C178   C     0.00000   0.71087   0.30938   0.00000  Uiso   1.00
C179   C     0.00000   0.71087   0.02395   0.00000  Uiso   1.00
C180   C     0.00000   0.78913   0.30938   0.00000  Uiso   1.00
C181   C     0.25000   0.53913   0.02395   0.00000  Uiso   1.00
C182   C     0.25000   0.96087   0.30938   0.00000  Uiso   1.00
C183   C     0.25000   0.96087   0.02395   0.00000  Uiso   1.00
C184   C     0.25000   0.53913   0.30938   0.00000  Uiso   1.00
C185   C     0.39042   0.64128   0.12547   0.00000  Uiso   1.00
C186   C     0.10958   0.85872   0.20786   0.00000  Uiso   1.00
C187   C     0.10958   0.85872   0.12547   0.00000  Uiso   1.00
C188   C     0.43972   0.80973   0.16667   0.00000  Uiso   1.00
C189   C     0.39042   0.64128   0.20786   0.00000  Uiso   1.00
C190   C     0.10958   0.64128   0.20786   0.00000  Uiso   1.00
C191   C     0.39042   0.85872   0.12547   0.00000  Uiso   1.00
C192   C     0.39042   0.85872   0.20786   0.00000  Uiso   1.00
C193   C     0.10958   0.64128   0.12547   0.00000  Uiso   1.00
C194   C     0.14042   0.89128   0.12547   0.00000  Uiso   1.00
C195   C     0.35958   0.60872   0.20786   0.00000  Uiso   1.00
C196   C     0.35958   0.60872   0.12547   0.00000  Uiso   1.00
C197   C     0.14042   0.89128   0.20786   0.00000  Uiso   1.00
C198   C     0.35958   0.89128   0.20786   0.00000  Uiso   1.00
C199   C     0.43972   0.69027   0.16667   0.00000  Uiso   1.00
C200   C     0.14042   0.60872   0.12547   0.00000  Uiso   1.00
C201   C     0.14042   0.60872   0.20786   0.00000  Uiso   1.00
C202   C     0.35958   0.89128   0.12547   0.00000  Uiso   1.00
C203   C     0.09366   0.84258   0.16667   0.00000  Uiso   1.00
C204   C     0.40634   0.65742   0.16667   0.00000  Uiso   1.00
C205   C     0.40634   0.84258   0.16667   0.00000  Uiso   1.00
C206   C     0.09366   0.65742   0.16667   0.00000  Uiso   1.00
C207   C     0.34366   0.59258   0.16667   0.00000  Uiso   1.00
C208   C     0.15634   0.90742   0.16667   0.00000  Uiso   1.00
C209   C     0.15634   0.59258   0.16667   0.00000  Uiso   1.00
C210   C     0.06028   0.80973   0.16667   0.00000  Uiso   1.00
C211   C     0.34366   0.90742   0.16667   0.00000  Uiso   1.00
C212   C     0.31028   0.94027   0.16667   0.00000  Uiso   1.00
C213   C     0.18972   0.55973   0.16667   0.00000  Uiso   1.00
C214   C     0.18972   0.94027   0.16667   0.00000  Uiso   1.00
C215   C     0.31028   0.55973   0.16667   0.00000  Uiso   1.00
C216   C    -0.00000   0.78913   0.02395   0.00000  Uiso   1.00
Cl217  Cl   -0.00000   0.84009   0.05303   0.00000  Uiso   1.00
Cl218  Cl   -0.00000   0.65991   0.28030   0.00000  Uiso   1.00
Cl219  Cl   -0.00000   0.65991   0.05303   0.00000  Uiso   1.00
Cl220  Cl   -0.00000   0.84009   0.28030   0.00000  Uiso   1.00
Cl221  Cl    0.25000   0.59009   0.05303   0.00000  Uiso   1.00
Cl222  Cl    0.25000   0.90991   0.28030   0.00000  Uiso   1.00
Cl223  Cl    0.25000   0.90991   0.05303   0.00000  Uiso   1.00
Cl224  Cl    0.25000   0.59009   0.28030   0.00000  Uiso   1.00
F225   F     0.40419   0.65685   0.08492   0.00000  Uiso   1.00
F226   F     0.34581   0.59315   0.24842   0.00000  Uiso   1.00
F227   F     0.34581   0.59315   0.08492   0.00000  Uiso   1.00
F228   F     0.15419   0.90685   0.24842   0.00000  Uiso   1.00
F229   F     0.34581   0.90685   0.24842   0.00000  Uiso   1.00
F230   F     0.15419   0.59315   0.08492   0.00000  Uiso   1.00
F231   F     0.15419   0.59315   0.24842   0.00000  Uiso   1.00
F232   F     0.34581   0.90685   0.08492   0.00000  Uiso   1.00
F233   F     0.09581   0.84315   0.24842   0.00000  Uiso   1.00
F234   F     0.09581   0.84315   0.08492   0.00000  Uiso   1.00
F235   F     0.40419   0.65685   0.24842   0.00000  Uiso   1.00
F236   F     0.09581   0.65685   0.24842   0.00000  Uiso   1.00
F237   F     0.40419   0.84315   0.08492   0.00000  Uiso   1.00
F238   F     0.40419   0.84315   0.24842   0.00000  Uiso   1.00
F239   F     0.09581   0.65685   0.08492   0.00000  Uiso   1.00
F240   F     0.15419   0.90685   0.08492   0.00000  Uiso   1.00
N241   N    -0.00000   0.75000   0.28573   0.00000  Uiso   1.00
N242   N    -0.00000   0.75000   0.04760   0.00000  Uiso   1.00
N243   N     0.25000   0.50000   0.28573   0.00000  Uiso   1.00
N244   N     0.25000   0.50000   0.04760   0.00000  Uiso   1.00
O245   O     0.04580   0.70419   0.20487   0.00000  Uiso   1.00
O246   O     0.20419   0.54581   0.12846   0.00000  Uiso   1.00
O247   O     0.20419   0.54581   0.20487   0.00000  Uiso   1.00
O248   O     0.29580   0.95419   0.12846   0.00000  Uiso   1.00
O249   O     0.20419   0.95419   0.12846   0.00000  Uiso   1.00
O250   O     0.29580   0.54581   0.20487   0.00000  Uiso   1.00
O251   O     0.29580   0.54581   0.12846   0.00000  Uiso   1.00
O252   O     0.20419   0.95419   0.20487   0.00000  Uiso   1.00
O253   O     0.45419   0.79581   0.12846   0.00000  Uiso   1.00
O254   O     0.45419   0.79581   0.20487   0.00000  Uiso   1.00
O255   O     0.04580   0.70419   0.12846   0.00000  Uiso   1.00
O256   O     0.45419   0.70419   0.12846   0.00000  Uiso   1.00
O257   O     0.04580   0.79581   0.20487   0.00000  Uiso   1.00
O258   O     0.04580   0.79581   0.12846   0.00000  Uiso   1.00
O259   O     0.45419   0.70419   0.20487   0.00000  Uiso   1.00
O260   O     0.29580   0.95419   0.20487   0.00000  Uiso   1.00
Zn261  Zn   -0.00000   0.75000   0.21771   0.00000  Uiso   1.00
Zn262  Zn   -0.00000   0.75000   0.11563   0.00000  Uiso   1.00
Zn263  Zn    0.25000   0.50000   0.21771   0.00000  Uiso   1.00
Zn264  Zn    0.25000   0.50000   0.11563   0.00000  Uiso   1.00
C265   C     0.56028   0.69027   0.16667   0.00000  Uiso   1.00
C266   C     0.50000   0.71087   0.30938   0.00000  Uiso   1.00
C267   C     0.50000   0.71087   0.02395   0.00000  Uiso   1.00
C268   C     0.50000   0.78913   0.30938   0.00000  Uiso   1.00
C269   C     0.75000   0.53913   0.02395   0.00000  Uiso   1.00
C270   C     0.75000   0.96087   0.30938   0.00000  Uiso   1.00
C271   C     0.75000   0.96087   0.02395   0.00000  Uiso   1.00
C272   C     0.75000   0.53913   0.30938   0.00000  Uiso   1.00
C273   C     0.89042   0.64128   0.12547   0.00000  Uiso   1.00
C274   C     0.60958   0.85872   0.20786   0.00000  Uiso   1.00
C275   C     0.60958   0.85872   0.12547   0.00000  Uiso   1.00
C276   C     0.93972   0.80973   0.16667   0.00000  Uiso   1.00
C277   C     0.89042   0.64128   0.20786   0.00000  Uiso   1.00
C278   C     0.60958   0.64128   0.20786   0.00000  Uiso   1.00
C279   C     0.89042   0.85872   0.12547   0.00000  Uiso   1.00
C280   C     0.89042   0.85872   0.20786   0.00000  Uiso   1.00
C281   C     0.60958   0.64128   0.12547   0.00000  Uiso   1.00
C282   C     0.64042   0.89128   0.12547   0.00000  Uiso   1.00
C283   C     0.85958   0.60872   0.20786   0.00000  Uiso   1.00
C284   C     0.85958   0.60872   0.12547   0.00000  Uiso   1.00
C285   C     0.64042   0.89128   0.20786   0.00000  Uiso   1.00
C286   C     0.85958   0.89128   0.20786   0.00000  Uiso   1.00
C287   C     0.93972   0.69027   0.16667   0.00000  Uiso   1.00
C288   C     0.64042   0.60872   0.12547   0.00000  Uiso   1.00
C289   C     0.64042   0.60872   0.20786   0.00000  Uiso   1.00
C290   C     0.85958   0.89128   0.12547   0.00000  Uiso   1.00
C291   C     0.59366   0.84258   0.16667   0.00000  Uiso   1.00
C292   C     0.90634   0.65742   0.16667   0.00000  Uiso   1.00
C293   C     0.90634   0.84258   0.16667   0.00000  Uiso   1.00
C294   C     0.59366   0.65742   0.16667   0.00000  Uiso   1.00
C295   C     0.84366   0.59258   0.16667   0.00000  Uiso   1.00
C296   C     0.65634   0.90742   0.16667   0.00000  Uiso   1.00
C297   C     0.65634   0.59258   0.16667   0.00000  Uiso   1.00
C298   C     0.56028   0.80973   0.16667   0.00000  Uiso   1.00
C299   C     0.84366   0.90742   0.16667   0.00000  Uiso   1.00
C300   C     0.81028   0.94027   0.16667   0.00000  Uiso   1.00
C301   C     0.68972   0.55973   0.16667   0.00000  Uiso   1.00
C302   C     0.68972   0.94027   0.16667   0.00000  Uiso   1.00
C303   C     0.81028   0.55973   0.16667   0.00000  Uiso   1.00
C304   C     0.50000   0.78913   0.02395   0.00000  Uiso   1.00
Cl305  Cl    0.50000   0.84009   0.05303   0.00000  Uiso   1.00
Cl306  Cl    0.50000   0.65991   0.28030   0.00000  Uiso   1.00
Cl307  Cl    0.50000   0.65991   0.05303   0.00000  Uiso   1.00
Cl308  Cl    0.50000   0.84009   0.28030   0.00000  Uiso   1.00
Cl309  Cl    0.75000   0.59009   0.05303   0.00000  Uiso   1.00
Cl310  Cl    0.75000   0.90991   0.28030   0.00000  Uiso   1.00
Cl311  Cl    0.75000   0.90991   0.05303   0.00000  Uiso   1.00
Cl312  Cl    0.75000   0.59009   0.28030   0.00000  Uiso   1.00
F313   F     0.90419   0.65685   0.08492   0.00000  Uiso   1.00
F314   F     0.84581   0.59315   0.24842   0.00000  Uiso   1.00
F315   F     0.84581   0.59315   0.08492   0.00000  Uiso   1.00
F316   F     0.65419   0.90685   0.24842   0.00000  Uiso   1.00
F317   F     0.84581   0.90685   0.24842   0.00000  Uiso   1.00
F318   F     0.65419   0.59315   0.08492   0.00000  Uiso   1.00
F319   F     0.65419   0.59315   0.24842   0.00000  Uiso   1.00
F320   F     0.84581   0.90685   0.08492   0.00000  Uiso   1.00
F321   F     0.59581   0.84315   0.24842   0.00000  Uiso   1.00
F322   F     0.59581   0.84315   0.08492   0.00000  Uiso   1.00
F323   F     0.90419   0.65685   0.24842   0.00000  Uiso   1.00
F324   F     0.59581   0.65685   0.24842   0.00000  Uiso   1.00
F325   F     0.90419   0.84315   0.08492   0.00000  Uiso   1.00
F326   F     0.90419   0.84315   0.24842   0.00000  Uiso   1.00
F327   F     0.59581   0.65685   0.08492   0.00000  Uiso   1.00
F328   F     0.65419   0.90685   0.08492   0.00000  Uiso   1.00
N329   N     0.50000   0.75000   0.28573   0.00000  Uiso   1.00
N330   N     0.50000   0.75000   0.04760   0.00000  Uiso   1.00
N331   N     0.75000   0.50000   0.28573   0.00000  Uiso   1.00
N332   N     0.75000   0.50000   0.04760   0.00000  Uiso   1.00
O333   O     0.54580   0.70419   0.20487   0.00000  Uiso   1.00
O334   O     0.70419   0.54581   0.12846   0.00000  Uiso   1.00
O335   O     0.70419   0.54581   0.20487   0.00000  Uiso   1.00
O336   O     0.79580   0.95419   0.12846   0.00000  Uiso   1.00
O337   O     0.70419   0.95419   0.12846   0.00000  Uiso   1.00
O338   O     0.79580   0.54581   0.20487   0.00000  Uiso   1.00
O339   O     0.79580   0.54581   0.12846   0.00000  Uiso   1.00
O340   O     0.70419   0.95419   0.20487   0.00000  Uiso   1.00
O341   O     0.95419   0.79581   0.12846   0.00000  Uiso   1.00
O342   O     0.95419   0.79581   0.20487   0.00000  Uiso   1.00
O343   O     0.54580   0.70419   0.12846   0.00000  Uiso   1.00
O344   O     0.95419   0.70419   0.12846   0.00000  Uiso   1.00
O345   O     0.54580   0.79581   0.20487   0.00000  Uiso   1.00
O346   O     0.54580   0.79581   0.12846   0.00000  Uiso   1.00
O347   O     0.95419   0.70419   0.20487   0.00000  Uiso   1.00
O348   O     0.79580   0.95419   0.20487   0.00000  Uiso   1.00
Zn349  Zn    0.50000   0.75000   0.21771   0.00000  Uiso   1.00
Zn350  Zn    0.50000   0.75000   0.11563   0.00000  Uiso   1.00
Zn351  Zn    0.75000   0.50000   0.21771   0.00000  Uiso   1.00
Zn352  Zn    0.75000   0.50000   0.11563   0.00000  Uiso   1.00
C353   C     0.06028   0.19027   0.50000   0.00000  Uiso   1.00
C354   C     0.00000   0.21087   0.64271   0.00000  Uiso   1.00
C355   C     0.00000   0.21087   0.35729   0.00000  Uiso   1.00
C356   C     0.00000   0.28913   0.64271   0.00000  Uiso   1.00
C357   C     0.25000   0.03913   0.35729   0.00000  Uiso   1.00
C358   C     0.25000   0.46087   0.64271   0.00000  Uiso   1.00
C359   C     0.25000   0.46087   0.35729   0.00000  Uiso   1.00
C360   C     0.25000   0.03913   0.64271   0.00000  Uiso   1.00
C361   C     0.39042   0.14128   0.45881   0.00000  Uiso   1.00
C362   C     0.10958   0.35872   0.54119   0.00000  Uiso   1.00
C363   C     0.10958   0.35872   0.45881   0.00000  Uiso   1.00
C364   C     0.43972   0.30973   0.50000   0.00000  Uiso   1.00
C365   C     0.39042   0.14128   0.54119   0.00000  Uiso   1.00
C366   C     0.10958   0.14128   0.54119   0.00000  Uiso   1.00
C367   C     0.39042   0.35872   0.45881   0.00000  Uiso   1.00
C368   C     0.39042   0.35872   0.54119   0.00000  Uiso   1.00
C369   C     0.10958   0.14128   0.45881   0.00000  Uiso   1.00
C370   C     0.14042   0.39128   0.45881   0.00000  Uiso   1.00
C371   C     0.35958   0.10872   0.54119   0.00000  Uiso   1.00
C372   C     0.35958   0.10872   0.45881   0.00000  Uiso   1.00
C373   C     0.14042   0.39128   0.54119   0.00000  Uiso   1.00
C374   C     0.35958   0.39128   0.54119   0.00000  Uiso   1.00
C375   C     0.43972   0.19027   0.50000   0.00000  Uiso   1.00
C376   C     0.14042   0.10872   0.45881   0.00000  Uiso   1.00
C377   C     0.14042   0.10872   0.54119   0.00000  Uiso   1.00
C378   C     0.35958   0.39128   0.45881   0.00000  Uiso   1.00
C379   C     0.09366   0.34258   0.50000   0.00000  Uiso   1.00
C380   C     0.40634   0.15742   0.50000   0.00000  Uiso   1.00
C381   C     0.40634   0.34258   0.50000   0.00000  Uiso   1.00
C382   C     0.09366   0.15742   0.50000   0.00000  Uiso   1.00
C383   C     0.34366   0.09258   0.50000   0.00000  Uiso   1.00
C384   C     0.15634   0.40742   0.50000   0.00000  Uiso   1.00
C385   C     0.15634   0.09258   0.50000   0.00000  Uiso   1.00
C386   C     0.06028   0.30973   0.50000   0.00000  Uiso   1.00
C387   C     0.34366   0.40742   0.50000   0.00000  Uiso   1.00
C388   C     0.31028   0.44027   0.50000   0.00000  Uiso   1.00
C389   C     0.18972   0.05973   0.50000   0.00000  Uiso   1.00
C390   C     0.18972   0.44027   0.50000   0.00000  Uiso   1.00
C391   C     0.31028   0.05973   0.50000   0.00000  Uiso   1.00
C392   C    -0.00000   0.28913   0.35729   0.00000  Uiso   1.00
Cl393  Cl   -0.00000   0.34009   0.38636   0.00000  Uiso   1.00
Cl394  Cl   -0.00000   0.15991   0.61364   0.00000  Uiso   1.00
Cl395  Cl   -0.00000   0.15991   0.38636   0.00000  Uiso   1.00
Cl396  Cl   -0.00000   0.34009   0.61364   0.00000  Uiso   1.00
Cl397  Cl    0.25000   0.09009   0.38636   0.00000  Uiso   1.00
Cl398  Cl    0.25000   0.40991   0.61364   0.00000  Uiso   1.00
Cl399  Cl    0.25000   0.40991   0.38636   0.00000  Uiso   1.00
Cl400  Cl    0.25000   0.09009   0.61364   0.00000  Uiso   1.00
F401   F     0.40419   0.15685   0.41825   0.00000  Uiso   1.00
F402   F     0.34581   0.09315   0.58175   0.00000  Uiso   1.00
F403   F     0.34581   0.09315   0.41825   0.00000  Uiso   1.00
F404   F     0.15419   0.40685   0.58175   0.00000  Uiso   1.00
F405   F     0.34581   0.40685   0.58175   0.00000  Uiso   1.00
F406   F     0.15419   0.09315   0.41825   0.00000  Uiso   1.00
F407   F     0.15419   0.09315   0.58175   0.00000  Uiso   1.00
F408   F     0.34581   0.40685   0.41825   0.00000  Uiso   1.00
F409   F     0.09581   0.34315   0.58175   0.00000  Uiso   1.00
F410   F     0.09581   0.34315   0.41825   0.00000  Uiso   1.00
F411   F     0.40419   0.15685   0.58175   0.00000  Uiso   1.00
F412   F     0.09581   0.15685   0.58175   0.00000  Uiso   1.00
F413   F     0.40419   0.34315   0.41825   0.00000  Uiso   1.00
F414   F     0.40419   0.34315   0.58175   0.00000  Uiso   1.00
F415   F     0.09581   0.15685   0.41825   0.00000  Uiso   1.00
F416   F     0.15419   0.40685   0.41825   0.00000  Uiso   1.00
N417   N    -0.00000   0.25000   0.61907   0.00000  Uiso   1.00
N418   N    -0.00000   0.25000   0.38093   0.00000  Uiso   1.00
N419   N     0.25000   0.00000   0.61907   0.00000  Uiso   1.00
N420   N     0.25000   0.00000   0.38093   0.00000  Uiso   1.00
O421   O     0.04580   0.20419   0.53821   0.00000  Uiso   1.00
O422   O     0.20419   0.04581   0.46179   0.00000  Uiso   1.00
O423   O     0.20419   0.04581   0.53821   0.00000  Uiso   1.00
O424   O     0.29580   0.45419   0.46179   0.00000  Uiso   1.00
O425   O     0.20419   0.45419   0.46179   0.00000  Uiso   1.00
O426   O     0.29580   0.04581   0.53821   0.00000  Uiso   1.00
O427   O     0.29580   0.04581   0.46179   0.00000  Uiso   1.00
O428   O     0.20419   0.45419   0.53821   0.00000  Uiso   1.00
O429   O     0.45419   0.29581   0.46179   0.00000  Uiso   1.00
O430   O     0.45419   0.29581   0.53821   0.00000  Uiso   1.00
O431   O     0.04580   0.20419   0.46179   0.00000  Uiso   1.00
O432   O     0.45419   0.20419   0.46179   0.00000  Uiso   1.00
O433   O     0.04580   0.29581   0.53821   0.00000  Uiso   1.00
O434   O     0.04580   0.29581   0.46179   0.00000  Uiso   1.00
O435   O     0.45419   0.20419   0.53821   0.00000  Uiso   1.00
O436   O     0.29580   0.45419   0.53821   0.00000  Uiso   1.00
Zn437  Zn   -0.00000   0.25000   0.55104   0.00000  Uiso   1.00
Zn438  Zn   -0.00000   0.25000   0.44896   0.00000  Uiso   1.00
Zn439  Zn    0.25000   0.00000   0.55104   0.00000  Uiso   1.00
Zn440  Zn    0.25000   0.00000   0.44896   0.00000  Uiso   1.00
C441   C     0.56028   0.19027   0.50000   0.00000  Uiso   1.00
C442   C     0.50000   0.21087   0.64271   0.00000  Uiso   1.00
C443   C     0.50000   0.21087   0.35729   0.00000  Uiso   1.00
C444   C     0.50000   0.28913   0.64271   0.00000  Uiso   1.00
C445   C     0.75000   0.03913   0.35729   0.00000  Uiso   1.00
C446   C     0.75000   0.46087   0.64271   0.00000  Uiso   1.00
C447   C     0.75000   0.46087   0.35729   0.00000  Uiso   1.00
C448   C     0.75000   0.03913   0.64271   0.00000  Uiso   1.00
C449   C     0.89042   0.14128   0.45881   0.00000  Uiso   1.00
C450   C     0.60958   0.35872   0.54119   0.00000  Uiso   1.00
C451   C     0.60958   0.35872   0.45881   0.00000  Uiso   1.00
C452   C     0.93972   0.30973   0.50000   0.00000  Uiso   1.00
C453   C     0.89042   0.14128   0.54119   0.00000  Uiso   1.00
C454   C     0.60958   0.14128   0.54119   0.00000  Uiso   1.00
C455   C     0.89042   0.35872   0.45881   0.00000  Uiso   1.00
C456   C     0.89042   0.35872   0.54119   0.00000  Uiso   1.00
C457   C     0.60958   0.14128   0.45881   0.00000  Uiso   1.00
C458   C     0.64042   0.39128   0.45881   0.00000  Uiso   1.00
C459   C     0.85958   0.10872   0.54119   0.00000  Uiso   1.00
C460   C     0.85958   0.10872   0.45881   0.00000  Uiso   1.00
C461   C     0.64042   0.39128   0.54119   0.00000  Uiso   1.00
C462   C     0.85958   0.39128   0.54119   0.00000  Uiso   1.00
C463   C     0.93972   0.19027   0.50000   0.00000  Uiso   1.00
C464   C     0.64042   0.10872   0.45881   0.00000  Uiso   1.00
C465   C     0.64042   0.10872   0.54119   0.00000  Uiso   1.00
C466   C     0.85958   0.39128   0.45881   0.00000  Uiso   1.00
C467   C     0.59366   0.34258   0.50000   0.00000  Uiso   1.00
C468   C     0.90634   0.15742   0.50000   0.00000  Uiso   1.00
C469   C     0.90634   0.34258   0.50000   0.00000  Uiso   1.00
C470   C     0.59366   0.15742   0.50000   0.00000  Uiso   1.00
C471   C     0.84366   0.09258   0.50000   0.00000  Uiso   1.00
C472   C     0.65634   0.40742   0.50000   0.00000  Uiso   1.00
C473   C     0.65634   0.09258   0.50000   0.00000  Uiso   1.00
C474   C     0.56028   0.30973   0.50000   0.00000  Uiso   1.00
C475   C     0.84366   0.40742   0.50000   0.00000  Uiso   1.00
C476   C     0.81028   0.44027   0.50000   0.00000  Uiso   1.00
C477   C     0.68972   0.05973   0.50000   0.00000  Uiso   1.00
C478   C     0.68972   0.44027   0.50000   0.00000  Uiso   1.00
C479   C     0.81028   0.05973   0.50000   0.00000  Uiso   1.00
C480   C     0.50000   0.28913   0.35729   0.00000  Uiso   1.00
Cl481  Cl    0.50000   0.34009   0.38636   0.00000  Uiso   1.00
Cl482  Cl    0.50000   0.15991   0.61364   0.00000  Uiso   1.00
Cl483  Cl    0.50000   0.15991   0.38636   0.00000  Uiso   1.00
Cl484  Cl    0.50000   0.34009   0.61364   0.00000  Uiso   1.00
Cl485  Cl    0.75000   0.09009   0.38636   0.00000  Uiso   1.00
Cl486  Cl    0.75000   0.40991   0.61364   0.00000  Uiso   1.00
Cl487  Cl    0.75000   0.40991   0.38636   0.00000  Uiso   1.00
Cl488  Cl    0.75000   0.09009   0.61364   0.00000  Uiso   1.00
F489   F     0.90419   0.15685   0.41825   0.00000  Uiso   1.00
F490   F     0.84581   0.09315   0.58175   0.00000  Uiso   1.00
F491   F     0.84581   0.09315   0.41825   0.00000  Uiso   1.00
F492   F     0.65419   0.40685   0.58175   0.00000  Uiso   1.00
F493   F     0.84581   0.40685   0.58175   0.00000  Uiso   1.00
F494   F     0.65419   0.09315   0.41825   0.00000  Uiso   1.00
F495   F     0.65419   0.09315   0.58175   0.00000  Uiso   1.00
F496   F     0.84581   0.40685   0.41825   0.00000  Uiso   1.00
F497   F     0.59581   0.34315   0.58175   0.00000  Uiso   1.00
F498   F     0.59581   0.34315   0.41825   0.00000  Uiso   1.00
F499   F     0.90419   0.15685   0.58175   0.00000  Uiso   1.00
F500   F     0.59581   0.15685   0.58175   0.00000  Uiso   1.00
F501   F     0.90419   0.34315   0.41825   0.00000  Uiso   1.00
F502   F     0.90419   0.34315   0.58175   0.00000  Uiso   1.00
F503   F     0.59581   0.15685   0.41825   0.00000  Uiso   1.00
F504   F     0.65419   0.40685   0.41825   0.00000  Uiso   1.00
N505   N     0.50000   0.25000   0.61907   0.00000  Uiso   1.00
N506   N     0.50000   0.25000   0.38093   0.00000  Uiso   1.00
N507   N     0.75000   0.00000   0.61907   0.00000  Uiso   1.00
N508   N     0.75000   0.00000   0.38093   0.00000  Uiso   1.00
O509   O     0.54580   0.20419   0.53821   0.00000  Uiso   1.00
O510   O     0.70419   0.04581   0.46179   0.00000  Uiso   1.00
O511   O     0.70419   0.04581   0.53821   0.00000  Uiso   1.00
O512   O     0.79580   0.45419   0.46179   0.00000  Uiso   1.00
O513   O     0.70419   0.45419   0.46179   0.00000  Uiso   1.00
O514   O     0.79580   0.04581   0.53821   0.00000  Uiso   1.00
O515   O     0.79580   0.04581   0.46179   0.00000  Uiso   1.00
O516   O     0.70419   0.45419   0.53821   0.00000  Uiso   1.00
O517   O     0.95419   0.29581   0.46179   0.00000  Uiso   1.00
O518   O     0.95419   0.29581   0.53821   0.00000  Uiso   1.00
O519   O     0.54580   0.20419   0.46179   0.00000  Uiso   1.00
O520   O     0.95419   0.20419   0.46179   0.00000  Uiso   1.00
O521   O     0.54580   0.29581   0.53821   0.00000  Uiso   1.00
O522   O     0.54580   0.29581   0.46179   0.00000  Uiso   1.00
O523   O     0.95419   0.20419   0.53821   0.00000  Uiso   1.00
O524   O     0.79580   0.45419   0.53821   0.00000  Uiso   1.00
Zn525  Zn    0.50000   0.25000   0.55104   0.00000  Uiso   1.00
Zn526  Zn    0.50000   0.25000   0.44896   0.00000  Uiso   1.00
Zn527  Zn    0.75000   0.00000   0.55104   0.00000  Uiso   1.00
Zn528  Zn    0.75000   0.00000   0.44896   0.00000  Uiso   1.00
C529   C     0.06028   0.69027   0.50000   0.00000  Uiso   1.00
C530   C     0.00000   0.71087   0.64271   0.00000  Uiso   1.00
C531   C     0.00000   0.71087   0.35729   0.00000  Uiso   1.00
C532   C     0.00000   0.78913   0.64271   0.00000  Uiso   1.00
C533   C     0.25000   0.53913   0.35729   0.00000  Uiso   1.00
C534   C     0.25000   0.96087   0.64271   0.00000  Uiso   1.00
C535   C     0.25000   0.96087   0.35729   0.00000  Uiso   1.00
C536   C     0.25000   0.53913   0.64271   0.00000  Uiso   1.00
C537   C     0.39042   0.64128   0.45881   0.00000  Uiso   1.00
C538   C     0.10958   0.85872   0.54119   0.00000  Uiso   1.00
C539   C     0.10958   0.85872   0.45881   0.00000  Uiso   1.00
C540   C     0.43972   0.80973   0.50000   0.00000  Uiso   1.00
C541   C     0.39042   0.64128   0.54119   0.00000  Uiso   1.00
C542   C     0.10958   0.64128   0.54119   0.00000  Uiso   1.00
C543   C     0.39042   0.85872   0.45881   0.00000  Uiso   1.00
C544   C     0.39042   0.85872   0.54119   0.00000  Uiso   1.00
C545   C     0.10958   0.64128   0.45881   0.00000  Uiso   1.00
C546   C     0.14042   0.89128   0.45881   0.00000  Uiso   1.00
C547   C     0.35958   0.60872   0.54119   0.00000  Uiso   1.00
C548   C     0.35958   0.60872   0.45881   0.00000  Uiso   1.00
C549   C     0.14042   0.89128   0.54119   0.00000  Uiso   1.00
C550   C     0.35958   0.89128   0.54119   0.00000  Uiso   1.00
C551   C     0.43972   0.69027   0.50000   0.00000  Uiso   1.00
C552   C     0.14042   0.60872   0.45881   0.00000  Uiso   1.00
C553   C     0.14042   0.60872   0.54119   0.00000  Uiso   1.00
C554   C     0.35958   0.89128   0.45881   0.00000  Uiso   1.00
C555   C     0.09366   0.84258   0.50000   0.00000  Uiso   1.00
C556   C     0.40634   0.65742   0.50000   0.00000  Uiso   1.00
C557   C     0.40634   0.84258   0.50000   0.00000  Uiso   1.00
C558   C     0.09366   0.65742   0.50000   0.00000  Uiso   1.00
C559   C     0.34366   0.59258   0.50000   0.00000  Uiso   1.00
C560   C     0.15634   0.90742   0.50000   0.00000  Uiso   1.00
C561   C     0.15634   0.59258   0.50000   0.00000  Uiso   1.00
C562   C     0.06028   0.80973   0.50000   0.00000  Uiso   1.00
C563   C     0.34366   0.90742   0.50000   0.00000  Uiso   1.00
C564   C     0.31028   0.94027   0.50000   0.00000  Uiso   1.00
C565   C     0.18972   0.55973   0.50000   0.00000  Uiso   1.00
C566   C     0.18972   0.94027   0.50000   0.00000  Uiso   1.00
C567   C     0.31028   0.55973   0.50000   0.00000  Uiso   1.00
C568   C    -0.00000   0.78913   0.35729   0.00000  Uiso   1.00
Cl569  Cl   -0.00000   0.84009   0.38636   0.00000  Uiso   1.00
Cl570  Cl   -0.00000   0.65991   0.61364   0.00000  Uiso   1.00
Cl571  Cl   -0.00000   0.65991   0.38636   0.00000  Uiso   1.00
Cl572  Cl   -0.00000   0.84009   0.61364   0.00000  Uiso   1.00
Cl573  Cl    0.25000   0.59009   0.38636   0.00000  Uiso   1.00
Cl574  Cl    0.25000   0.90991   0.61364   0.00000  Uiso   1.00
Cl575  Cl    0.25000   0.90991   0.38636   0.00000  Uiso   1.00
Cl576  Cl    0.25000   0.59009   0.61364   0.00000  Uiso   1.00
F577   F     0.40419   0.65685   0.41825   0.00000  Uiso   1.00
F578   F     0.34581   0.59315   0.58175   0.00000  Uiso   1.00
F579   F     0.34581   0.59315   0.41825   0.00000  Uiso   1.00
F580   F     0.15419   0.90685   0.58175   0.00000  Uiso   1.00
F581   F     0.34581   0.90685   0.58175   0.00000  Uiso   1.00
F582   F     0.15419   0.59315   0.41825   0.00000  Uiso   1.00
F583   F     0.15419   0.59315   0.58175   0.00000  Uiso   1.00
F584   F     0.34581   0.90685   0.41825   0.00000  Uiso   1.00
F585   F     0.09581   0.84315   0.58175   0.00000  Uiso   1.00
F586   F     0.09581   0.84315   0.41825   0.00000  Uiso   1.00
F587   F     0.40419   0.65685   0.58175   0.00000  Uiso   1.00
F588   F     0.09581   0.65685   0.58175   0.00000  Uiso   1.00
F589   F     0.40419   0.84315   0.41825   0.00000  Uiso   1.00
F590   F     0.40419   0.84315   0.58175   0.00000  Uiso   1.00
F591   F     0.09581   0.65685   0.41825   0.00000  Uiso   1.00
F592   F     0.15419   0.90685   0.41825   0.00000  Uiso   1.00
N593   N    -0.00000   0.75000   0.61907   0.00000  Uiso   1.00
N594   N    -0.00000   0.75000   0.38093   0.00000  Uiso   1.00
N595   N     0.25000   0.50000   0.61907   0.00000  Uiso   1.00
N596   N     0.25000   0.50000   0.38093   0.00000  Uiso   1.00
O597   O     0.04580   0.70419   0.53821   0.00000  Uiso   1.00
O598   O     0.20419   0.54581   0.46179   0.00000  Uiso   1.00
O599   O     0.20419   0.54581   0.53821   0.00000  Uiso   1.00
O600   O     0.29580   0.95419   0.46179   0.00000  Uiso   1.00
O601   O     0.20419   0.95419   0.46179   0.00000  Uiso   1.00
O602   O     0.29580   0.54581   0.53821   0.00000  Uiso   1.00
O603   O     0.29580   0.54581   0.46179   0.00000  Uiso   1.00
O604   O     0.20419   0.95419   0.53821   0.00000  Uiso   1.00
O605   O     0.45419   0.79581   0.46179   0.00000  Uiso   1.00
O606   O     0.45419   0.79581   0.53821   0.00000  Uiso   1.00
O607   O     0.04580   0.70419   0.46179   0.00000  Uiso   1.00
O608   O     0.45419   0.70419   0.46179   0.00000  Uiso   1.00
O609   O     0.04580   0.79581   0.53821   0.00000  Uiso   1.00
O610   O     0.04580   0.79581   0.46179   0.00000  Uiso   1.00
O611   O     0.45419   0.70419   0.53821   0.00000  Uiso   1.00
O612   O     0.29580   0.95419   0.53821   0.00000  Uiso   1.00
Zn613  Zn   -0.00000   0.75000   0.55104   0.00000  Uiso   1.00
Zn614  Zn   -0.00000   0.75000   0.44896   0.00000  Uiso   1.00
Zn615  Zn    0.25000   0.50000   0.55104   0.00000  Uiso   1.00
Zn616  Zn    0.25000   0.50000   0.44896   0.00000  Uiso   1.00
C617   C     0.56028   0.69027   0.50000   0.00000  Uiso   1.00
C618   C     0.50000   0.71087   0.64271   0.00000  Uiso   1.00
C619   C     0.50000   0.71087   0.35729   0.00000  Uiso   1.00
C620   C     0.50000   0.78913   0.64271   0.00000  Uiso   1.00
C621   C     0.75000   0.53913   0.35729   0.00000  Uiso   1.00
C622   C     0.75000   0.96087   0.64271   0.00000  Uiso   1.00
C623   C     0.75000   0.96087   0.35729   0.00000  Uiso   1.00
C624   C     0.75000   0.53913   0.64271   0.00000  Uiso   1.00
C625   C     0.89042   0.64128   0.45881   0.00000  Uiso   1.00
C626   C     0.60958   0.85872   0.54119   0.00000  Uiso   1.00
C627   C     0.60958   0.85872   0.45881   0.00000  Uiso   1.00
C628   C     0.93972   0.80973   0.50000   0.00000  Uiso   1.00
C629   C     0.89042   0.64128   0.54119   0.00000  Uiso   1.00
C630   C     0.60958   0.64128   0.54119   0.00000  Uiso   1.00
C631   C     0.89042   0.85872   0.45881   0.00000  Uiso   1.00
C632   C     0.89042   0.85872   0.54119   0.00000  Uiso   1.00
C633   C     0.60958   0.64128   0.45881   0.00000  Uiso   1.00
C634   C     0.64042   0.89128   0.45881   0.00000  Uiso   1.00
C635   C     0.85958   0.60872   0.54119   0.00000  Uiso   1.00
C636   C     0.85958   0.60872   0.45881   0.00000  Uiso   1.00
C637   C     0.64042   0.89128   0.54119   0.00000  Uiso   1.00
C638   C     0.85958   0.89128   0.54119   0.00000  Uiso   1.00
C639   C     0.93972   0.69027   0.50000   0.00000  Uiso   1.00
C640   C     0.64042   0.60872   0.45881   0.00000  Uiso   1.00
C641   C     0.64042   0.60872   0.54119   0.00000  Uiso   1.00
C642   C     0.85958   0.89128   0.45881   0.00000  Uiso   1.00
C643   C     0.59366   0.84258   0.50000   0.00000  Uiso   1.00
C644   C     0.90634   0.65742   0.50000   0.00000  Uiso   1.00
C645   C     0.90634   0.84258   0.50000   0.00000  Uiso   1.00
C646   C     0.59366   0.65742   0.50000   0.00000  Uiso   1.00
C647   C     0.84366   0.59258   0.50000   0.00000  Uiso   1.00
C648   C     0.65634   0.90742   0.50000   0.00000  Uiso   1.00
C649   C     0.65634   0.59258   0.50000   0.00000  Uiso   1.00
C650   C     0.56028   0.80973   0.50000   0.00000  Uiso   1.00
C651   C     0.84366   0.90742   0.50000   0.00000  Uiso   1.00
C652   C     0.81028   0.94027   0.50000   0.00000  Uiso   1.00
C653   C     0.68972   0.55973   0.50000   0.00000  Uiso   1.00
C654   C     0.68972   0.94027   0.50000   0.00000  Uiso   1.00
C655   C     0.81028   0.55973   0.50000   0.00000  Uiso   1.00
C656   C     0.50000   0.78913   0.35729   0.00000  Uiso   1.00
Cl657  Cl    0.50000   0.84009   0.38636   0.00000  Uiso   1.00
Cl658  Cl    0.50000   0.65991   0.61364   0.00000  Uiso   1.00
Cl659  Cl    0.50000   0.65991   0.38636   0.00000  Uiso   1.00
Cl660  Cl    0.50000   0.84009   0.61364   0.00000  Uiso   1.00
Cl661  Cl    0.75000   0.59009   0.38636   0.00000  Uiso   1.00
Cl662  Cl    0.75000   0.90991   0.61364   0.00000  Uiso   1.00
Cl663  Cl    0.75000   0.90991   0.38636   0.00000  Uiso   1.00
Cl664  Cl    0.75000   0.59009   0.61364   0.00000  Uiso   1.00
F665   F     0.90419   0.65685   0.41825   0.00000  Uiso   1.00
F666   F     0.84581   0.59315   0.58175   0.00000  Uiso   1.00
F667   F     0.84581   0.59315   0.41825   0.00000  Uiso   1.00
F668   F     0.65419   0.90685   0.58175   0.00000  Uiso   1.00
F669   F     0.84581   0.90685   0.58175   0.00000  Uiso   1.00
F670   F     0.65419   0.59315   0.41825   0.00000  Uiso   1.00
F671   F     0.65419   0.59315   0.58175   0.00000  Uiso   1.00
F672   F     0.84581   0.90685   0.41825   0.00000  Uiso   1.00
F673   F     0.59581   0.84315   0.58175   0.00000  Uiso   1.00
F674   F     0.59581   0.84315   0.41825   0.00000  Uiso   1.00
F675   F     0.90419   0.65685   0.58175   0.00000  Uiso   1.00
F676   F     0.59581   0.65685   0.58175   0.00000  Uiso   1.00
F677   F     0.90419   0.84315   0.41825   0.00000  Uiso   1.00
F678   F     0.90419   0.84315   0.58175   0.00000  Uiso   1.00
F679   F     0.59581   0.65685   0.41825   0.00000  Uiso   1.00
F680   F     0.65419   0.90685   0.41825   0.00000  Uiso   1.00
N681   N     0.50000   0.75000   0.61907   0.00000  Uiso   1.00
N682   N     0.50000   0.75000   0.38093   0.00000  Uiso   1.00
N683   N     0.75000   0.50000   0.61907   0.00000  Uiso   1.00
N684   N     0.75000   0.50000   0.38093   0.00000  Uiso   1.00
O685   O     0.54580   0.70419   0.53821   0.00000  Uiso   1.00
O686   O     0.70419   0.54581   0.46179   0.00000  Uiso   1.00
O687   O     0.70419   0.54581   0.53821   0.00000  Uiso   1.00
O688   O     0.79580   0.95419   0.46179   0.00000  Uiso   1.00
O689   O     0.70419   0.95419   0.46179   0.00000  Uiso   1.00
O690   O     0.79580   0.54581   0.53821   0.00000  Uiso   1.00
O691   O     0.79580   0.54581   0.46179   0.00000  Uiso   1.00
O692   O     0.70419   0.95419   0.53821   0.00000  Uiso   1.00
O693   O     0.95419   0.79581   0.46179   0.00000  Uiso   1.00
O694   O     0.95419   0.79581   0.53821   0.00000  Uiso   1.00
O695   O     0.54580   0.70419   0.46179   0.00000  Uiso   1.00
O696   O     0.95419   0.70419   0.46179   0.00000  Uiso   1.00
O697   O     0.54580   0.79581   0.53821   0.00000  Uiso   1.00
O698   O     0.54580   0.79581   0.46179   0.00000  Uiso   1.00
O699   O     0.95419   0.70419   0.53821   0.00000  Uiso   1.00
O700   O     0.79580   0.95419   0.53821   0.00000  Uiso   1.00
Zn701  Zn    0.50000   0.75000   0.55104   0.00000  Uiso   1.00
Zn702  Zn    0.50000   0.75000   0.44896   0.00000  Uiso   1.00
Zn703  Zn    0.75000   0.50000   0.55104   0.00000  Uiso   1.00
Zn704  Zn    0.75000   0.50000   0.44896   0.00000  Uiso   1.00
C705   C     0.06028   0.19027   0.83333   0.00000  Uiso   1.00
C706   C     0.00000   0.21087   0.97605   0.00000  Uiso   1.00
C707   C     0.00000   0.21087   0.69062   0.00000  Uiso   1.00
C708   C     0.00000   0.28913   0.97605   0.00000  Uiso   1.00
C709   C     0.25000   0.03913   0.69062   0.00000  Uiso   1.00
C710   C     0.25000   0.46087   0.97605   0.00000  Uiso   1.00
C711   C     0.25000   0.46087   0.69062   0.00000  Uiso   1.00
C712   C     0.25000   0.03913   0.97605   0.00000  Uiso   1.00
C713   C     0.39042   0.14128   0.79214   0.00000  Uiso   1.00
C714   C     0.10958   0.35872   0.87453   0.00000  Uiso   1.00
C715   C     0.10958   0.35872   0.79214   0.00000  Uiso   1.00
C716   C     0.43972   0.30973   0.83333   0.00000  Uiso   1.00
C717   C     0.39042   0.14128   0.87453   0.00000  Uiso   1.00
C718   C     0.10958   0.14128   0.87453   0.00000  Uiso   1.00
C719   C     0.39042   0.35872   0.79214   0.00000  Uiso   1.00
C720   C     0.39042   0.35872   0.87453   0.00000  Uiso   1.00
C721   C     0.10958   0.14128   0.79214   0.00000  Uiso   1.00
C722   C     0.14042   0.39128   0.79214   0.00000  Uiso   1.00
C723   C     0.35958   0.10872   0.87453   0.00000  Uiso   1.00
C724   C     0.35958   0.10872   0.79214   0.00000  Uiso   1.00
C725   C     0.14042   0.39128   0.87453   0.00000  Uiso   1.00
C726   C     0.35958   0.39128   0.87453   0.00000  Uiso   1.00
C727   C     0.43972   0.19027   0.83333   0.00000  Uiso   1.00
C728   C     0.14042   0.10872   0.79214   0.00000  Uiso   1.00
C729   C     0.14042   0.10872   0.87453   0.00000  Uiso   1.00
C730   C     0.35958   0.39128   0.79214   0.00000  Uiso   1.00
C731   C     0.09366   0.34258   0.83333   0.00000  Uiso   1.00
C732   C     0.40634   0.15742   0.83333   0.00000  Uiso   1.00
C733   C     0.40634   0.34258   0.83333   0.00000  Uiso   1.00
C734   C     0.09366   0.15742   0.83333   0.00000  Uiso   1.00
C735   C     0.34366   0.09258   0.83333   0.00000  Uiso   1.00
C736   C     0.15634   0.40742   0.83333   0.00000  Uiso   1.00
C737   C     0.15634   0.09258   0.83333   0.00000  Uiso   1.00
C738   C     0.06028   0.30973   0.83333   0.00000  Uiso   1.00
C739   C     0.34366   0.40742   0.83333   0.00000  Uiso   1.00
C740   C     0.31028   0.44027   0.83333   0.00000  Uiso   1.00
C741   C     0.18972   0.05973   0.83333   0.00000  Uiso   1.00
C742   C     0.18972   0.44027   0.83333   0.00000  Uiso   1.00
C743   C     0.31028   0.05973   0.83333   0.00000  Uiso   1.00
C744   C    -0.00000   0.28913   0.69062   0.00000  Uiso   1.00
Cl745  Cl   -0.00000   0.34009   0.71970   0.00000  Uiso   1.00
Cl746  Cl   -0.00000   0.15991   0.94697   0.00000  Uiso   1.00
Cl747  Cl   -0.00000   0.15991   0.71970   0.00000  Uiso   1.00
Cl748  Cl   -0.00000   0.34009   0.94697   0.00000  Uiso   1.00
Cl749  Cl    0.25000   0.09009   0.71970   0.00000  Uiso   1.00
Cl750  Cl    0.25000   0.40991   0.94697   0.00000  Uiso   1.00
Cl751  Cl    0.25000   0.40991   0.71970   0.00000  Uiso   1.00
Cl752  Cl    0.25000   0.09009   0.94697   0.00000  Uiso   1.00
F753   F     0.40419   0.15685   0.75158   0.00000  Uiso   1.00
F754   F     0.34581   0.09315   0.91508   0.00000  Uiso   1.00
F755   F     0.34581   0.09315   0.75158   0.00000  Uiso   1.00
F756   F     0.15419   0.40685   0.91508   0.00000  Uiso   1.00
F757   F     0.34581   0.40685   0.91508   0.00000  Uiso   1.00
F758   F     0.15419   0.09315   0.75158   0.00000  Uiso   1.00
F759   F     0.15419   0.09315   0.91508   0.00000  Uiso   1.00
F760   F     0.34581   0.40685   0.75158   0.00000  Uiso   1.00
F761   F     0.09581   0.34315   0.91508   0.00000  Uiso   1.00
F762   F     0.09581   0.34315   0.75158   0.00000  Uiso   1.00
F763   F     0.40419   0.15685   0.91508   0.00000  Uiso   1.00
F764   F     0.09581   0.15685   0.91508   0.00000  Uiso   1.00
F765   F     0.40419   0.34315   0.75158   0.00000  Uiso   1.00
F766   F     0.40419   0.34315   0.91508   0.00000  Uiso   1.00
F767   F     0.09581   0.15685   0.75158   0.00000  Uiso   1.00
F768   F     0.15419   0.40685   0.75158   0.00000  Uiso   1.00
N769   N    -0.00000   0.25000   0.95240   0.00000  Uiso   1.00
N770   N    -0.00000   0.25000   0.71427   0.00000  Uiso   1.00
N771   N     0.25000   0.00000   0.95240   0.00000  Uiso   1.00
N772   N     0.25000   0.00000   0.71427   0.00000  Uiso   1.00
O773   O     0.04580   0.20419   0.87154   0.00000  Uiso   1.00
O774   O     0.20419   0.04581   0.79513   0.00000  Uiso   1.00
O775   O     0.20419   0.04581   0.87154   0.00000  Uiso   1.00
O776   O     0.29580   0.45419   0.79513   0.00000  Uiso   1.00
O777   O     0.20419   0.45419   0.79513   0.00000  Uiso   1.00
O778   O     0.29580   0.04581   0.87154   0.00000  Uiso   1.00
O779   O     0.29580   0.04581   0.79513   0.00000  Uiso   1.00
O780   O     0.20419   0.45419   0.87154   0.00000  Uiso   1.00
O781   O     0.45419   0.29581   0.79513   0.00000  Uiso   1.00
O782   O     0.45419   0.29581   0.87154   0.00000  Uiso   1.00
O783   O     0.04580   0.20419   0.79513   0.00000  Uiso   1.00
O784   O     0.45419   0.20419   0.79513   0.00000  Uiso   1.00
O785   O     0.04580   0.29581   0.87154   0.00000  Uiso   1.00
O786   O     0.04580   0.29581   0.79513   0.00000  Uiso   1.00
O787   O     0.45419   0.20419   0.87154   0.00000  Uiso   1.00
O788   O     0.29580   0.45419   0.87154   0.00000  Uiso   1.00
Zn789  Zn   -0.00000   0.25000   0.88437   0.00000  Uiso   1.00
Zn790  Zn   -0.00000   0.25000   0.78229   0.00000  Uiso   1.00
Zn791  Zn    0.25000   0.00000   0.88437   0.00000  Uiso   1.00
Zn792  Zn    0.25000   0.00000   0.78229   0.00000  Uiso   1.00
C793   C     0.56028   0.19027   0.83333   0.00000  Uiso   1.00
C794   C     0.50000   0.21087   0.97605   0.00000  Uiso   1.00
C795   C     0.50000   0.21087   0.69062   0.00000  Uiso   1.00
C796   C     0.50000   0.28913   0.97605   0.00000  Uiso   1.00
C797   C     0.75000   0.03913   0.69062   0.00000  Uiso   1.00
C798   C     0.75000   0.46087   0.97605   0.00000  Uiso   1.00
C799   C     0.75000   0.46087   0.69062   0.00000  Uiso   1.00
C800   C     0.75000   0.03913   0.97605   0.00000  Uiso   1.00
C801   C     0.89042   0.14128   0.79214   0.00000  Uiso   1.00
C802   C     0.60958   0.35872   0.87453   0.00000  Uiso   1.00
C803   C     0.60958   0.35872   0.79214   0.00000  Uiso   1.00
C804   C     0.93972   0.30973   0.83333   0.00000  Uiso   1.00
C805   C     0.89042   0.14128   0.87453   0.00000  Uiso   1.00
C806   C     0.60958   0.14128   0.87453   0.00000  Uiso   1.00
C807   C     0.89042   0.35872   0.79214   0.00000  Uiso   1.00
C808   C     0.89042   0.35872   0.87453   0.00000  Uiso   1.00
C809   C     0.60958   0.14128   0.79214   0.00000  Uiso   1.00
C810   C     0.64042   0.39128   0.79214   0.00000  Uiso   1.00
C811   C     0.85958   0.10872   0.87453   0.00000  Uiso   1.00
C812   C     0.85958   0.10872   0.79214   0.00000  Uiso   1.00
C813   C     0.64042   0.39128   0.87453   0.00000  Uiso   1.00
C814   C     0.85958   0.39128   0.87453   0.00000  Uiso   1.00
C815   C     0.93972   0.19027   0.83333   0.00000  Uiso   1.00
C816   C     0.64042   0.10872   0.79214   0.00000  Uiso   1.00
C817   C     0.64042   0.10872   0.87453   0.00000  Uiso   1.00
C818   C     0.85958   0.39128   0.79214   0.00000  Uiso   1.00
C819   C     0.59366   0.34258   0.83333   0.00000  Uiso   1.00
C820   C     0.90634   0.15742   0.83333   0.00000  Uiso   1.00
C821   C     0.90634   0.34258   0.83333   0.00000  Uiso   1.00
C822   C     0.59366   0.15742   0.83333   0.00000  Uiso   1.00
C823   C     0.84366   0.09258   0.83333   0.00000  Uiso   1.00
C824   C     0.65634   0.40742   0.83333   0.00000  Uiso   1.00
C825   C     0.65634   0.09258   0.83333   0.00000  Uiso   1.00
C826   C     0.56028   0.30973   0.83333   0.00000  Uiso   1.00
C827   C     0.84366   0.40742   0.83333   0.00000  Uiso   1.00
C828   C     0.81028   0.44027   0.83333   0.00000  Uiso   1.00
C829   C     0.68972   0.05973   0.83333   0.00000  Uiso   1.00
C830   C     0.68972   0.44027   0.83333   0.00000  Uiso   1.00
C831   C     0.81028   0.05973   0.83333   0.00000  Uiso   1.00
C832   C     0.50000   0.28913   0.69062   0.00000  Uiso   1.00
Cl833  Cl    0.50000   0.34009   0.71970   0.00000  Uiso   1.00
Cl834  Cl    0.50000   0.15991   0.94697   0.00000  Uiso   1.00
Cl835  Cl    0.50000   0.15991   0.71970   0.00000  Uiso   1.00
Cl836  Cl    0.50000   0.34009   0.94697   0.00000  Uiso   1.00
Cl837  Cl    0.75000   0.09009   0.71970   0.00000  Uiso   1.00
Cl838  Cl    0.75000   0.40991   0.94697   0.00000  Uiso   1.00
Cl839  Cl    0.75000   0.40991   0.71970   0.00000  Uiso   1.00
Cl840  Cl    0.75000   0.09009   0.94697   0.00000  Uiso   1.00
F841   F     0.90419   0.15685   0.75158   0.00000  Uiso   1.00
F842   F     0.84581   0.09315   0.91508   0.00000  Uiso   1.00
F843   F     0.84581   0.09315   0.75158   0.00000  Uiso   1.00
F844   F     0.65419   0.40685   0.91508   0.00000  Uiso   1.00
F845   F     0.84581   0.40685   0.91508   0.00000  Uiso   1.00
F846   F     0.65419   0.09315   0.75158   0.00000  Uiso   1.00
F847   F     0.65419   0.09315   0.91508   0.00000  Uiso   1.00
F848   F     0.84581   0.40685   0.75158   0.00000  Uiso   1.00
F849   F     0.59581   0.34315   0.91508   0.00000  Uiso   1.00
F850   F     0.59581   0.34315   0.75158   0.00000  Uiso   1.00
F851   F     0.90419   0.15685   0.91508   0.00000  Uiso   1.00
F852   F     0.59581   0.15685   0.91508   0.00000  Uiso   1.00
F853   F     0.90419   0.34315   0.75158   0.00000  Uiso   1.00
F854   F     0.90419   0.34315   0.91508   0.00000  Uiso   1.00
F855   F     0.59581   0.15685   0.75158   0.00000  Uiso   1.00
F856   F     0.65419   0.40685   0.75158   0.00000  Uiso   1.00
N857   N     0.50000   0.25000   0.95240   0.00000  Uiso   1.00
N858   N     0.50000   0.25000   0.71427   0.00000  Uiso   1.00
N859   N     0.75000   0.00000   0.95240   0.00000  Uiso   1.00
N860   N     0.75000   0.00000   0.71427   0.00000  Uiso   1.00
O861   O     0.54580   0.20419   0.87154   0.00000  Uiso   1.00
O862   O     0.70419   0.04581   0.79513   0.00000  Uiso   1.00
O863   O     0.70419   0.04581   0.87154   0.00000  Uiso   1.00
O864   O     0.79580   0.45419   0.79513   0.00000  Uiso   1.00
O865   O     0.70419   0.45419   0.79513   0.00000  Uiso   1.00
O866   O     0.79580   0.04581   0.87154   0.00000  Uiso   1.00
O867   O     0.79580   0.04581   0.79513   0.00000  Uiso   1.00
O868   O     0.70419   0.45419   0.87154   0.00000  Uiso   1.00
O869   O     0.95419   0.29581   0.79513   0.00000  Uiso   1.00
O870   O     0.95419   0.29581   0.87154   0.00000  Uiso   1.00
O871   O     0.54580   0.20419   0.79513   0.00000  Uiso   1.00
O872   O     0.95419   0.20419   0.79513   0.00000  Uiso   1.00
O873   O     0.54580   0.29581   0.87154   0.00000  Uiso   1.00
O874   O     0.54580   0.29581   0.79513   0.00000  Uiso   1.00
O875   O     0.95419   0.20419   0.87154   0.00000  Uiso   1.00
O876   O     0.79580   0.45419   0.87154   0.00000  Uiso   1.00
Zn877  Zn    0.50000   0.25000   0.88437   0.00000  Uiso   1.00
Zn878  Zn    0.50000   0.25000   0.78229   0.00000  Uiso   1.00
Zn879  Zn    0.75000   0.00000   0.88437   0.00000  Uiso   1.00
Zn880  Zn    0.75000   0.00000   0.78229   0.00000  Uiso   1.00
C881   C     0.06028   0.69027   0.83333   0.00000  Uiso   1.00
C882   C     0.00000   0.71087   0.97605   0.00000  Uiso   1.00
C883   C     0.00000   0.71087   0.69062   0.00000  Uiso   1.00
C884   C     0.00000   0.78913   0.97605   0.00000  Uiso   1.00
C885   C     0.25000   0.53913   0.69062   0.00000  Uiso   1.00
C886   C     0.25000   0.96087   0.97605   0.00000  Uiso   1.00
C887   C     0.25000   0.96087   0.69062   0.00000  Uiso   1.00
C888   C     0.25000   0.53913   0.97605   0.00000  Uiso   1.00
C889   C     0.39042   0.64128   0.79214   0.00000  Uiso   1.00
C890   C     0.10958   0.85872   0.87453   0.00000  Uiso   1.00
C891   C     0.10958   0.85872   0.79214   0.00000  Uiso   1.00
C892   C     0.43972   0.80973   0.83333   0.00000  Uiso   1.00
C893   C     0.39042   0.64128   0.87453   0.00000  Uiso   1.00
C894   C     0.10958   0.64128   0.87453   0.00000  Uiso   1.00
C895   C     0.39042   0.85872   0.79214   0.00000  Uiso   1.00
C896   C     0.39042   0.85872   0.87453   0.00000  Uiso   1.00
C897   C     0.10958   0.64128   0.79214   0.00000  Uiso   1.00
C898   C     0.14042   0.89128   0.79214   0.00000  Uiso   1.00
C899   C     0.35958   0.60872   0.87453   0.00000  Uiso   1.00
C900   C     0.35958   0.60872   0.79214   0.00000  Uiso   1.00
C901   C     0.14042   0.89128   0.87453   0.00000  Uiso   1.00
C902   C     0.35958   0.89128   0.87453   0.00000  Uiso   1.00
C903   C     0.43972   0.69027   0.83333   0.00000  Uiso   1.00
C904   C     0.14042   0.60872   0.79214   0.00000  Uiso   1.00
C905   C     0.14042   0.60872   0.87453   0.00000  Uiso   1.00
C906   C     0.35958   0.89128   0.79214   0.00000  Uiso   1.00
C907   C     0.09366   0.84258   0.83333   0.00000  Uiso   1.00
C908   C     0.40634   0.65742   0.83333   0.00000  Uiso   1.00
C909   C     0.40634   0.84258   0.83333   0.00000  Uiso   1.00
C910   C     0.09366   0.65742   0.83333   0.00000  Uiso   1.00
C911   C     0.34366   0.59258   0.83333   0.00000  Uiso   1.00
C912   C     0.15634   0.90742   0.83333   0.00000  Uiso   1.00
C913   C     0.15634   0.59258   0.83333   0.00000  Uiso   1.00
C914   C     0.06028   0.80973   0.83333   0.00000  Uiso   1.00
C915   C     0.34366   0.90742   0.83333   0.00000  Uiso   1.00
C916   C     0.31028   0.94027   0.83333   0.00000  Uiso   1.00
C917   C     0.18972   0.55973   0.83333   0.00000  Uiso   1.00
C918   C     0.18972   0.94027   0.83333   0.00000  Uiso   1.00
C919   C     0.31028   0.55973   0.83333   0.00000  Uiso   1.00
C920   C    -0.00000   0.78913   0.69062   0.00000  Uiso   1.00
Cl921  Cl   -0.00000   0.84009   0.71970   0.00000  Uiso   1.00
Cl922  Cl   -0.00000   0.65991   0.94697   0.00000  Uiso   1.00
Cl923  Cl   -0.00000   0.65991   0.71970   0.00000  Uiso   1.00
Cl924  Cl   -0.00000   0.84009   0.94697   0.00000  Uiso   1.00
Cl925  Cl    0.25000   0.59009   0.71970   0.00000  Uiso   1.00
Cl926  Cl    0.25000   0.90991   0.94697   0.00000  Uiso   1.00
Cl927  Cl    0.25000   0.90991   0.71970   0.00000  Uiso   1.00
Cl928  Cl    0.25000   0.59009   0.94697   0.00000  Uiso   1.00
F929   F     0.40419   0.65685   0.75158   0.00000  Uiso   1.00
F930   F     0.34581   0.59315   0.91508   0.00000  Uiso   1.00
F931   F     0.34581   0.59315   0.75158   0.00000  Uiso   1.00
F932   F     0.15419   0.90685   0.91508   0.00000  Uiso   1.00
F933   F     0.34581   0.90685   0.91508   0.00000  Uiso   1.00
F934   F     0.15419   0.59315   0.75158   0.00000  Uiso   1.00
F935   F     0.15419   0.59315   0.91508   0.00000  Uiso   1.00
F936   F     0.34581   0.90685   0.75158   0.00000  Uiso   1.00
F937   F     0.09581   0.84315   0.91508   0.00000  Uiso   1.00
F938   F     0.09581   0.84315   0.75158   0.00000  Uiso   1.00
F939   F     0.40419   0.65685   0.91508   0.00000  Uiso   1.00
F940   F     0.09581   0.65685   0.91508   0.00000  Uiso   1.00
F941   F     0.40419   0.84315   0.75158   0.00000  Uiso   1.00
F942   F     0.40419   0.84315   0.91508   0.00000  Uiso   1.00
F943   F     0.09581   0.65685   0.75158   0.00000  Uiso   1.00
F944   F     0.15419   0.90685   0.75158   0.00000  Uiso   1.00
N945   N    -0.00000   0.75000   0.95240   0.00000  Uiso   1.00
N946   N    -0.00000   0.75000   0.71427   0.00000  Uiso   1.00
N947   N     0.25000   0.50000   0.95240   0.00000  Uiso   1.00
N948   N     0.25000   0.50000   0.71427   0.00000  Uiso   1.00
O949   O     0.04580   0.70419   0.87154   0.00000  Uiso   1.00
O950   O     0.20419   0.54581   0.79513   0.00000  Uiso   1.00
O951   O     0.20419   0.54581   0.87154   0.00000  Uiso   1.00
O952   O     0.29580   0.95419   0.79513   0.00000  Uiso   1.00
O953   O     0.20419   0.95419   0.79513   0.00000  Uiso   1.00
O954   O     0.29580   0.54581   0.87154   0.00000  Uiso   1.00
O955   O     0.29580   0.54581   0.79513   0.00000  Uiso   1.00
O956   O     0.20419   0.95419   0.87154   0.00000  Uiso   1.00
O957   O     0.45419   0.79581   0.79513   0.00000  Uiso   1.00
O958   O     0.45419   0.79581   0.87154   0.00000  Uiso   1.00
O959   O     0.04580   0.70419   0.79513   0.00000  Uiso   1.00
O960   O     0.45419   0.70419   0.79513   0.00000  Uiso   1.00
O961   O     0.04580   0.79581   0.87154   0.00000  Uiso   1.00
O962   O     0.04580   0.79581   0.79513   0.00000  Uiso   1.00
O963   O     0.45419   0.70419   0.87154   0.00000  Uiso   1.00
O964   O     0.29580   0.95419   0.87154   0.00000  Uiso   1.00
Zn965  Zn   -0.00000   0.75000   0.88437   0.00000  Uiso   1.00
Zn966  Zn   -0.00000   0.75000   0.78229   0.00000  Uiso   1.00
Zn967  Zn    0.25000   0.50000   0.88437   0.00000  Uiso   1.00
Zn968  Zn    0.25000   0.50000   0.78229   0.00000  Uiso   1.00
C969   C     0.56028   0.69027   0.83333   0.00000  Uiso   1.00
C970   C     0.50000   0.71087   0.97605   0.00000  Uiso   1.00
C971   C     0.50000   0.71087   0.69062   0.00000  Uiso   1.00
C972   C     0.50000   0.78913   0.97605   0.00000  Uiso   1.00
C973   C     0.75000   0.53913   0.69062   0.00000  Uiso   1.00
C974   C     0.75000   0.96087   0.97605   0.00000  Uiso   1.00
C975   C     0.75000   0.96087   0.69062   0.00000  Uiso   1.00
C976   C     0.75000   0.53913   0.97605   0.00000  Uiso   1.00
C977   C     0.89042   0.64128   0.79214   0.00000  Uiso   1.00
C978   C     0.60958   0.85872   0.87453   0.00000  Uiso   1.00
C979   C     0.60958   0.85872   0.79214   0.00000  Uiso   1.00
C980   C     0.93972   0.80973   0.83333   0.00000  Uiso   1.00
C981   C     0.89042   0.64128   0.87453   0.00000  Uiso   1.00
C982   C     0.60958   0.64128   0.87453   0.00000  Uiso   1.00
C983   C     0.89042   0.85872   0.79214   0.00000  Uiso   1.00
C984   C     0.89042   0.85872   0.87453   0.00000  Uiso   1.00
C985   C     0.60958   0.64128   0.79214   0.00000  Uiso   1.00
C986   C     0.64042   0.89128   0.79214   0.00000  Uiso   1.00
C987   C     0.85958   0.60872   0.87453   0.00000  Uiso   1.00
C988   C     0.85958   0.60872   0.79214   0.00000  Uiso   1.00
C989   C     0.64042   0.89128   0.87453   0.00000  Uiso   1.00
C990   C     0.85958   0.89128   0.87453   0.00000  Uiso   1.00
C991   C     0.93972   0.69027   0.83333   0.00000  Uiso   1.00
C992   C     0.64042   0.60872   0.79214   0.00000  Uiso   1.00
C993   C     0.64042   0.60872   0.87453   0.00000  Uiso   1.00
C994   C     0.85958   0.89128   0.79214   0.00000  Uiso   1.00
C995   C     0.59366   0.84258   0.83333   0.00000  Uiso   1.00
C996   C     0.90634   0.65742   0.83333   0.00000  Uiso   1.00
C997   C     0.90634   0.84258   0.83333   0.00000  Uiso   1.00
C998   C     0.59366   0.65742   0.83333   0.00000  Uiso   1.00
C999   C     0.84366   0.59258   0.83333   0.00000  Uiso   1.00
C1000  C     0.65634   0.90742   0.83333   0.00000  Uiso   1.00
C1001  C     0.65634   0.59258   0.83333   0.00000  Uiso   1.00
C1002  C     0.56028   0.80973   0.83333   0.00000  Uiso   1.00
C1003  C     0.84366   0.90742   0.83333   0.00000  Uiso   1.00
C1004  C     0.81028   0.94027   0.83333   0.00000  Uiso   1.00
C1005  C     0.68972   0.55973   0.83333   0.00000  Uiso   1.00
C1006  C     0.68972   0.94027   0.83333   0.00000  Uiso   1.00
C1007  C     0.81028   0.55973   0.83333   0.00000  Uiso   1.00
C1008  C     0.50000   0.78913   0.69062   0.00000  Uiso   1.00
Cl1009 Cl    0.50000   0.84009   0.71970   0.00000  Uiso   1.00
Cl1010 Cl    0.50000   0.65991   0.94697   0.00000  Uiso   1.00
Cl1011 Cl    0.50000   0.65991   0.71970   0.00000  Uiso   1.00
Cl1012 Cl    0.50000   0.84009   0.94697   0.00000  Uiso   1.00
Cl1013 Cl    0.75000   0.59009   0.71970   0.00000  Uiso   1.00
Cl1014 Cl    0.75000   0.90991   0.94697   0.00000  Uiso   1.00
Cl1015 Cl    0.75000   0.90991   0.71970   0.00000  Uiso   1.00
Cl1016 Cl    0.75000   0.59009   0.94697   0.00000  Uiso   1.00
F1017  F     0.90419   0.65685   0.75158   0.00000  Uiso   1.00
F1018  F     0.84581   0.59315   0.91508   0.00000  Uiso   1.00
F1019  F     0.84581   0.59315   0.75158   0.00000  Uiso   1.00
F1020  F     0.65419   0.90685   0.91508   0.00000  Uiso   1.00
F1021  F     0.84581   0.90685   0.91508   0.00000  Uiso   1.00
F1022  F     0.65419   0.59315   0.75158   0.00000  Uiso   1.00
F1023  F     0.65419   0.59315   0.91508   0.00000  Uiso   1.00
F1024  F     0.84581   0.90685   0.75158   0.00000  Uiso   1.00
F1025  F     0.59581   0.84315   0.91508   0.00000  Uiso   1.00
F1026  F     0.59581   0.84315   0.75158   0.00000  Uiso   1.00
F1027  F     0.90419   0.65685   0.91508   0.00000  Uiso   1.00
F1028  F     0.59581   0.65685   0.91508   0.00000  Uiso   1.00
F1029  F     0.90419   0.84315   0.75158   0.00000  Uiso   1.00
F1030  F     0.90419   0.84315   0.91508   0.00000  Uiso   1.00
F1031  F     0.59581   0.65685   0.75158   0.00000  Uiso   1.00
F1032  F     0.65419   0.90685   0.75158   0.00000  Uiso   1.00
N1033  N     0.50000   0.75000   0.95240   0.00000  Uiso   1.00
N1034  N     0.50000   0.75000   0.71427   0.00000  Uiso   1.00
N1035  N     0.75000   0.50000   0.95240   0.00000  Uiso   1.00
N1036  N     0.75000   0.50000   0.71427   0.00000  Uiso   1.00
O1037  O     0.54580   0.70419   0.87154   0.00000  Uiso   1.00
O1038  O     0.70419   0.54581   0.79513   0.00000  Uiso   1.00
O1039  O     0.70419   0.54581   0.87154   0.00000  Uiso   1.00
O1040  O     0.79580   0.95419   0.79513   0.00000  Uiso   1.00
O1041  O     0.70419   0.95419   0.79513   0.00000  Uiso   1.00
O1042  O     0.79580   0.54581   0.87154   0.00000  Uiso   1.00
O1043  O     0.79580   0.54581   0.79513   0.00000  Uiso   1.00
O1044  O     0.70419   0.95419   0.87154   0.00000  Uiso   1.00
O1045  O     0.95419   0.79581   0.79513   0.00000  Uiso   1.00
O1046  O     0.95419   0.79581   0.87154   0.00000  Uiso   1.00
O1047  O     0.54580   0.70419   0.79513   0.00000  Uiso   1.00
O1048  O     0.95419   0.70419   0.79513   0.00000  Uiso   1.00
O1049  O     0.54580   0.79581   0.87154   0.00000  Uiso   1.00
O1050  O     0.54580   0.79581   0.79513   0.00000  Uiso   1.00
O1051  O     0.95419   0.70419   0.87154   0.00000  Uiso   1.00
O1052  O     0.79580   0.95419   0.87154   0.00000  Uiso   1.00
Zn1053 Zn    0.50000   0.75000   0.88437   0.00000  Uiso   1.00
Zn1054 Zn    0.50000   0.75000   0.78229   0.00000  Uiso   1.00
Zn1055 Zn    0.75000   0.50000   0.88437   0.00000  Uiso   1.00
Zn1056 Zn    0.75000   0.50000   0.78229   0.00000  Uiso   1.00
loop_
_geom_bond_atom_site_label_1
_geom_bond_atom_site_label_2
_geom_bond_distance
_geom_bond_site_symmetry_2
_ccdc_geom_bond_type
C1     O69     1.288   .     A
C1     O79     1.288   .     A
C1     C30     1.431   .     S
C2     C355    1.419   .     S
C2     Cl42    1.758   .     S
C2     N65     1.370   .     S
C3     C706    1.419   1_554 S
C3     Cl43    1.758   .     S
C3     N66     1.370   .     S
C4     C392    1.419   .     S
C4     Cl44    1.758   .     S
C4     N65     1.370   .     S
C5     N68     1.370   .     A
C5     Cl45    1.758   .     S
C5     C712    1.419   1_554 S
C6     Cl46    1.758   .     S
C6     C359    1.419   .     S
C6     N243    1.370   .     S
C7     Cl47    1.758   .     S
C7     C710    1.419   1_554 S
C7     N244    1.370   .     S
C8     Cl48    1.758   .     S
C8     N67     1.370   .     A
C8     C357    1.419   .     S
C9     F49     1.358   .     S
C9     C20     1.368   .     A
C9     C28     1.403   .     A
C10    C27     1.403   .     A
C10    C21     1.368   .     A
C10    F57     1.358   .     S
C11    C18     1.368   .     A
C11    F58     1.358   .     S
C11    C27     1.403   .     A
C12    C29     1.431   .     S
C12    O78     1.288   .     A
C12    O77     1.288   .     A
C13    C28     1.403   .     A
C13    C19     1.368   .     A
C13    F59     1.358   .     S
C14    C30     1.403   .     A
C14    F60     1.358   .     S
C14    C25     1.368   .     A
C15    C29     1.403   .     A
C15    C26     1.368   .     A
C15    F61     1.358   .     S
C16    F62     1.358   .     S
C16    C29     1.403   .     A
C16    C22     1.368   .     A
C17    C30     1.403   .     A
C17    C24     1.368   .     A
C17    F63     1.358   .     S
C18    C32     1.403   .     A
C18    F64     1.358   .     S
C19    C31     1.403   .     A
C19    F50     1.358   .     S
C20    F51     1.358   .     S
C20    C31     1.403   .     A
C21    C32     1.403   .     A
C21    F52     1.358   .     S
C22    C35     1.403   .     A
C22    F53     1.358   .     S
C23    O83     1.288   .     A
C23    C28     1.431   .     S
C23    O80     1.288   .     A
C24    F54     1.358   .     S
C24    C33     1.403   .     A
C25    F55     1.358   .     S
C25    C33     1.403   .     A
C26    C35     1.403   .     A
C26    F56     1.358   .     S
C27    C34     1.431   .     S
C31    C39     1.431   .     S
C32    C38     1.431   .     S
C33    C37     1.431   .     S
C34    O81     1.288   .     A
C34    O82     1.288   .     A
C35    C36     1.431   .     S
C36    O84     1.288   .     A
C36    O72     1.288   .     A
C37    O70     1.288   .     A
C37    O71     1.288   .     A
C38    O76     1.288   .     A
C38    O73     1.288   .     A
C39    O74     1.288   .     A
C39    O75     1.288   .     A
C40    N66     1.370   .     A
C40    Cl41    1.758   .     S
C40    C708    1.419   1_554 S
N65    Zn85    2.015   .     S
N66    Zn86    2.015   .     S
N67    Zn87    2.015   .     S
N67    C182    1.370   1_545 S
N68    Zn88    2.015   .     S
N68    C183    1.370   1_545 S
O69    Zn85    2.014   .     S
O70    Zn88    2.014   .     S
O71    Zn87    2.014   .     S
O72    Zn264   2.014   .     S
O73    Zn264   2.014   .     S
O74    Zn87    2.014   .     S
O75    Zn88    2.014   .     S
O76    Zn263   2.014   .     S
O77    Zn174   2.014   .     S
O78    Zn173   2.014   .     S
O79    Zn86    2.014   .     S
O80    Zn174   2.014   .     S
O81    Zn85    2.014   .     S
O82    Zn86    2.014   .     S
O83    Zn173   2.014   .     S
O84    Zn263   2.014   .     S
Zn85   O166    2.014   1_455 S
Zn85   O171    2.014   1_455 S
Zn86   O168    2.014   1_455 S
Zn86   O165    2.014   1_455 S
Zn87   O252    2.014   1_545 S
Zn87   O260    2.014   1_545 S
Zn88   O249    2.014   1_545 S
Zn88   O248    2.014   1_545 S
C89    O157    1.288   .     A
C89    O167    1.288   .     A
C89    C118    1.431   .     S
C90    C443    1.419   .     S
C90    Cl130   1.758   .     S
C90    N153    1.370   .     S
C91    C794    1.419   1_554 S
C91    Cl131   1.758   .     S
C91    N154    1.370   .     S
C92    C480    1.419   .     S
C92    Cl132   1.758   .     S
C92    N153    1.370   .     S
C93    N156    1.370   .     A
C93    Cl133   1.758   .     S
C93    C800    1.419   1_554 S
C94    Cl134   1.758   .     S
C94    C447    1.419   .     S
C94    N331    1.370   .     S
C95    Cl135   1.758   .     S
C95    C798    1.419   1_554 S
C95    N332    1.370   .     S
C96    Cl136   1.758   .     S
C96    N155    1.370   .     A
C96    C445    1.419   .     S
C97    F137    1.358   .     S
C97    C108    1.368   .     A
C97    C116    1.403   .     A
C98    C115    1.403   .     A
C98    C109    1.368   .     A
C98    F145    1.358   .     S
C99    C106    1.368   .     A
C99    F146    1.358   .     S
C99    C115    1.403   .     A
C100   C117    1.431   .     S
C100   O166    1.288   .     A
C100   O165    1.288   .     A
C101   C116    1.403   .     A
C101   C107    1.368   .     A
C101   F147    1.358   .     S
C102   C118    1.403   .     A
C102   F148    1.358   .     S
C102   C113    1.368   .     A
C103   C117    1.403   .     A
C103   C114    1.368   .     A
C103   F149    1.358   .     S
C104   F150    1.358   .     S
C104   C117    1.403   .     A
C104   C110    1.368   .     A
C105   C118    1.403   .     A
C105   C112    1.368   .     A
C105   F151    1.358   .     S
C106   C120    1.403   .     A
C106   F152    1.358   .     S
C107   C119    1.403   .     A
C107   F138    1.358   .     S
C108   F139    1.358   .     S
C108   C119    1.403   .     A
C109   C120    1.403   .     A
C109   F140    1.358   .     S
C110   C123    1.403   .     A
C110   F141    1.358   .     S
C111   O171    1.288   .     A
C111   C116    1.431   .     S
C111   O168    1.288   .     A
C112   F142    1.358   .     S
C112   C121    1.403   .     A
C113   F143    1.358   .     S
C113   C121    1.403   .     A
C114   C123    1.403   .     A
C114   F144    1.358   .     S
C115   C122    1.431   .     S
C119   C127    1.431   .     S
C120   C126    1.431   .     S
C121   C125    1.431   .     S
C122   O169    1.288   .     A
C122   O170    1.288   .     A
C123   C124    1.431   .     S
C124   O172    1.288   .     A
C124   O160    1.288   .     A
C125   O158    1.288   .     A
C125   O159    1.288   .     A
C126   O164    1.288   .     A
C126   O161    1.288   .     A
C127   O162    1.288   .     A
C127   O163    1.288   .     A
C128   N154    1.370   .     A
C128   Cl129   1.758   .     S
C128   C796    1.419   1_554 S
N153   Zn173   2.015   .     S
N154   Zn174   2.015   .     S
N155   Zn175   2.015   .     S
N155   C270    1.370   1_545 S
N156   Zn176   2.015   .     S
N156   C271    1.370   1_545 S
O157   Zn173   2.014   .     S
O158   Zn176   2.014   .     S
O159   Zn175   2.014   .     S
O160   Zn352   2.014   .     S
O161   Zn352   2.014   .     S
O162   Zn175   2.014   .     S
O163   Zn176   2.014   .     S
O164   Zn351   2.014   .     S
O165   Zn86    2.014   1_655 S
O166   Zn85    2.014   1_655 S
O167   Zn174   2.014   .     S
O168   Zn86    2.014   1_655 S
O169   Zn173   2.014   .     S
O170   Zn174   2.014   .     S
O171   Zn85    2.014   1_655 S
O172   Zn351   2.014   .     S
Zn175  O340    2.014   1_545 S
Zn175  O348    2.014   1_545 S
Zn176  O337    2.014   1_545 S
Zn176  O336    2.014   1_545 S
C177   O245    1.288   .     A
C177   O255    1.288   .     A
C177   C206    1.431   .     S
C178   C531    1.419   .     S
C178   Cl218   1.758   .     S
C178   N241    1.370   .     S
C179   C882    1.419   1_554 S
C179   Cl219   1.758   .     S
C179   N242    1.370   .     S
C180   C568    1.419   .     S
C180   Cl220   1.758   .     S
C180   N241    1.370   .     S
C181   N244    1.370   .     A
C181   Cl221   1.758   .     S
C181   C888    1.419   1_554 S
C182   Cl222   1.758   .     S
C182   C535    1.419   .     S
C182   N67     1.370   1_565 S
C183   Cl223   1.758   .     S
C183   C886    1.419   1_554 S
C183   N68     1.370   1_565 S
C184   Cl224   1.758   .     S
C184   N243    1.370   .     A
C184   C533    1.419   .     S
C185   F225    1.358   .     S
C185   C196    1.368   .     A
C185   C204    1.403   .     A
C186   C203    1.403   .     A
C186   C197    1.368   .     A
C186   F233    1.358   .     S
C187   C194    1.368   .     A
C187   F234    1.358   .     S
C187   C203    1.403   .     A
C188   C205    1.431   .     S
C188   O254    1.288   .     A
C188   O253    1.288   .     A
C189   C204    1.403   .     A
C189   C195    1.368   .     A
C189   F235    1.358   .     S
C190   C206    1.403   .     A
C190   F236    1.358   .     S
C190   C201    1.368   .     A
C191   C205    1.403   .     A
C191   C202    1.368   .     A
C191   F237    1.358   .     S
C192   F238    1.358   .     S
C192   C205    1.403   .     A
C192   C198    1.368   .     A
C193   C206    1.403   .     A
C193   C200    1.368   .     A
C193   F239    1.358   .     S
C194   C208    1.403   .     A
C194   F240    1.358   .     S
C195   C207    1.403   .     A
C195   F226    1.358   .     S
C196   F227    1.358   .     S
C196   C207    1.403   .     A
C197   C208    1.403   .     A
C197   F228    1.358   .     S
C198   C211    1.403   .     A
C198   F229    1.358   .     S
C199   O259    1.288   .     A
C199   C204    1.431   .     S
C199   O256    1.288   .     A
C200   F230    1.358   .     S
C200   C209    1.403   .     A
C201   F231    1.358   .     S
C201   C209    1.403   .     A
C202   C211    1.403   .     A
C202   F232    1.358   .     S
C203   C210    1.431   .     S
C207   C215    1.431   .     S
C208   C214    1.431   .     S
C209   C213    1.431   .     S
C210   O257    1.288   .     A
C210   O258    1.288   .     A
C211   C212    1.431   .     S
C212   O260    1.288   .     A
C212   O248    1.288   .     A
C213   O246    1.288   .     A
C213   O247    1.288   .     A
C214   O252    1.288   .     A
C214   O249    1.288   .     A
C215   O250    1.288   .     A
C215   O251    1.288   .     A
C216   N242    1.370   .     A
C216   Cl217   1.758   .     S
C216   C884    1.419   1_554 S
N241   Zn261   2.015   .     S
N242   Zn262   2.015   .     S
N243   Zn263   2.015   .     S
N244   Zn264   2.015   .     S
O245   Zn261   2.014   .     S
O246   Zn264   2.014   .     S
O247   Zn263   2.014   .     S
O248   Zn88    2.014   1_565 S
O249   Zn88    2.014   1_565 S
O250   Zn263   2.014   .     S
O251   Zn264   2.014   .     S
O252   Zn87    2.014   1_565 S
O253   Zn350   2.014   .     S
O254   Zn349   2.014   .     S
O255   Zn262   2.014   .     S
O256   Zn350   2.014   .     S
O257   Zn261   2.014   .     S
O258   Zn262   2.014   .     S
O259   Zn349   2.014   .     S
O260   Zn87    2.014   1_565 S
Zn261  O342    2.014   1_455 S
Zn261  O347    2.014   1_455 S
Zn262  O344    2.014   1_455 S
Zn262  O341    2.014   1_455 S
C265   O333    1.288   .     A
C265   O343    1.288   .     A
C265   C294    1.431   .     S
C266   C619    1.419   .     S
C266   Cl306   1.758   .     S
C266   N329    1.370   .     S
C267   C970    1.419   1_554 S
C267   Cl307   1.758   .     S
C267   N330    1.370   .     S
C268   C656    1.419   .     S
C268   Cl308   1.758   .     S
C268   N329    1.370   .     S
C269   N332    1.370   .     A
C269   Cl309   1.758   .     S
C269   C976    1.419   1_554 S
C270   Cl310   1.758   .     S
C270   C623    1.419   .     S
C270   N155    1.370   1_565 S
C271   Cl311   1.758   .     S
C271   C974    1.419   1_554 S
C271   N156    1.370   1_565 S
C272   Cl312   1.758   .     S
C272   N331    1.370   .     A
C272   C621    1.419   .     S
C273   F313    1.358   .     S
C273   C284    1.368   .     A
C273   C292    1.403   .     A
C274   C291    1.403   .     A
C274   C285    1.368   .     A
C274   F321    1.358   .     S
C275   C282    1.368   .     A
C275   F322    1.358   .     S
C275   C291    1.403   .     A
C276   C293    1.431   .     S
C276   O342    1.288   .     A
C276   O341    1.288   .     A
C277   C292    1.403   .     A
C277   C283    1.368   .     A
C277   F323    1.358   .     S
C278   C294    1.403   .     A
C278   F324    1.358   .     S
C278   C289    1.368   .     A
C279   C293    1.403   .     A
C279   C290    1.368   .     A
C279   F325    1.358   .     S
C280   F326    1.358   .     S
C280   C293    1.403   .     A
C280   C286    1.368   .     A
C281   C294    1.403   .     A
C281   C288    1.368   .     A
C281   F327    1.358   .     S
C282   C296    1.403   .     A
C282   F328    1.358   .     S
C283   C295    1.403   .     A
C283   F314    1.358   .     S
C284   F315    1.358   .     S
C284   C295    1.403   .     A
C285   C296    1.403   .     A
C285   F316    1.358   .     S
C286   C299    1.403   .     A
C286   F317    1.358   .     S
C287   O347    1.288   .     A
C287   C292    1.431   .     S
C287   O344    1.288   .     A
C288   F318    1.358   .     S
C288   C297    1.403   .     A
C289   F319    1.358   .     S
C289   C297    1.403   .     A
C290   C299    1.403   .     A
C290   F320    1.358   .     S
C291   C298    1.431   .     S
C295   C303    1.431   .     S
C296   C302    1.431   .     S
C297   C301    1.431   .     S
C298   O345    1.288   .     A
C298   O346    1.288   .     A
C299   C300    1.431   .     S
C300   O348    1.288   .     A
C300   O336    1.288   .     A
C301   O334    1.288   .     A
C301   O335    1.288   .     A
C302   O340    1.288   .     A
C302   O337    1.288   .     A
C303   O338    1.288   .     A
C303   O339    1.288   .     A
C304   N330    1.370   .     A
C304   Cl305   1.758   .     S
C304   C972    1.419   1_554 S
N329   Zn349   2.015   .     S
N330   Zn350   2.015   .     S
N331   Zn351   2.015   .     S
N332   Zn352   2.015   .     S
O333   Zn349   2.014   .     S
O334   Zn352   2.014   .     S
O335   Zn351   2.014   .     S
O336   Zn176   2.014   1_565 S
O337   Zn176   2.014   1_565 S
O338   Zn351   2.014   .     S
O339   Zn352   2.014   .     S
O340   Zn175   2.014   1_565 S
O341   Zn262   2.014   1_655 S
O342   Zn261   2.014   1_655 S
O343   Zn350   2.014   .     S
O344   Zn262   2.014   1_655 S
O345   Zn349   2.014   .     S
O346   Zn350   2.014   .     S
O347   Zn261   2.014   1_655 S
O348   Zn175   2.014   1_565 S
C353   O421    1.288   .     A
C353   O431    1.288   .     A
C353   C382    1.431   .     S
C354   C707    1.419   .     S
C354   Cl394   1.758   .     S
C354   N417    1.370   .     S
C355   Cl395   1.758   .     S
C355   N418    1.370   .     S
C356   C744    1.419   .     S
C356   Cl396   1.758   .     S
C356   N417    1.370   .     S
C357   N420    1.370   .     A
C357   Cl397   1.758   .     S
C358   Cl398   1.758   .     S
C358   C711    1.419   .     S
C358   N595    1.370   .     S
C359   Cl399   1.758   .     S
C359   N596    1.370   .     S
C360   Cl400   1.758   .     S
C360   N419    1.370   .     A
C360   C709    1.419   .     S
C361   F401    1.358   .     S
C361   C372    1.368   .     A
C361   C380    1.403   .     A
C362   C379    1.403   .     A
C362   C373    1.368   .     A
C362   F409    1.358   .     S
C363   C370    1.368   .     A
C363   F410    1.358   .     S
C363   C379    1.403   .     A
C364   C381    1.431   .     S
C364   O430    1.288   .     A
C364   O429    1.288   .     A
C365   C380    1.403   .     A
C365   C371    1.368   .     A
C365   F411    1.358   .     S
C366   C382    1.403   .     A
C366   F412    1.358   .     S
C366   C377    1.368   .     A
C367   C381    1.403   .     A
C367   C378    1.368   .     A
C367   F413    1.358   .     S
C368   F414    1.358   .     S
C368   C381    1.403   .     A
C368   C374    1.368   .     A
C369   C382    1.403   .     A
C369   C376    1.368   .     A
C369   F415    1.358   .     S
C370   C384    1.403   .     A
C370   F416    1.358   .     S
C371   C383    1.403   .     A
C371   F402    1.358   .     S
C372   F403    1.358   .     S
C372   C383    1.403   .     A
C373   C384    1.403   .     A
C373   F404    1.358   .     S
C374   C387    1.403   .     A
C374   F405    1.358   .     S
C375   O435    1.288   .     A
C375   C380    1.431   .     S
C375   O432    1.288   .     A
C376   F406    1.358   .     S
C376   C385    1.403   .     A
C377   F407    1.358   .     S
C377   C385    1.403   .     A
C378   C387    1.403   .     A
C378   F408    1.358   .     S
C379   C386    1.431   .     S
C383   C391    1.431   .     S
C384   C390    1.431   .     S
C385   C389    1.431   .     S
C386   O433    1.288   .     A
C386   O434    1.288   .     A
C387   C388    1.431   .     S
C388   O436    1.288   .     A
C388   O424    1.288   .     A
C389   O422    1.288   .     A
C389   O423    1.288   .     A
C390   O428    1.288   .     A
C390   O425    1.288   .     A
C391   O426    1.288   .     A
C391   O427    1.288   .     A
C392   N418    1.370   .     A
C392   Cl393   1.758   .     S
N417   Zn437   2.015   .     S
N418   Zn438   2.015   .     S
N419   Zn439   2.015   .     S
N419   C534    1.370   1_545 S
N420   Zn440   2.015   .     S
N420   C535    1.370   1_545 S
O421   Zn437   2.014   .     S
O422   Zn440   2.014   .     S
O423   Zn439   2.014   .     S
O424   Zn616   2.014   .     S
O425   Zn616   2.014   .     S
O426   Zn439   2.014   .     S
O427   Zn440   2.014   .     S
O428   Zn615   2.014   .     S
O429   Zn526   2.014   .     S
O430   Zn525   2.014   .     S
O431   Zn438   2.014   .     S
O432   Zn526   2.014   .     S
O433   Zn437   2.014   .     S
O434   Zn438   2.014   .     S
O435   Zn525   2.014   .     S
O436   Zn615   2.014   .     S
Zn437  O518    2.014   1_455 S
Zn437  O523    2.014   1_455 S
Zn438  O520    2.014   1_455 S
Zn438  O517    2.014   1_455 S
Zn439  O604    2.014   1_545 S
Zn439  O612    2.014   1_545 S
Zn440  O601    2.014   1_545 S
Zn440  O600    2.014   1_545 S
C441   O509    1.288   .     A
C441   O519    1.288   .     A
C441   C470    1.431   .     S
C442   C795    1.419   .     S
C442   Cl482   1.758   .     S
C442   N505    1.370   .     S
C443   Cl483   1.758   .     S
C443   N506    1.370   .     S
C444   C832    1.419   .     S
C444   Cl484   1.758   .     S
C444   N505    1.370   .     S
C445   N508    1.370   .     A
C445   Cl485   1.758   .     S
C446   Cl486   1.758   .     S
C446   C799    1.419   .     S
C446   N683    1.370   .     S
C447   Cl487   1.758   .     S
C447   N684    1.370   .     S
C448   Cl488   1.758   .     S
C448   N507    1.370   .     A
C448   C797    1.419   .     S
C449   F489    1.358   .     S
C449   C460    1.368   .     A
C449   C468    1.403   .     A
C450   C467    1.403   .     A
C450   C461    1.368   .     A
C450   F497    1.358   .     S
C451   C458    1.368   .     A
C451   F498    1.358   .     S
C451   C467    1.403   .     A
C452   C469    1.431   .     S
C452   O518    1.288   .     A
C452   O517    1.288   .     A
C453   C468    1.403   .     A
C453   C459    1.368   .     A
C453   F499    1.358   .     S
C454   C470    1.403   .     A
C454   F500    1.358   .     S
C454   C465    1.368   .     A
C455   C469    1.403   .     A
C455   C466    1.368   .     A
C455   F501    1.358   .     S
C456   F502    1.358   .     S
C456   C469    1.403   .     A
C456   C462    1.368   .     A
C457   C470    1.403   .     A
C457   C464    1.368   .     A
C457   F503    1.358   .     S
C458   C472    1.403   .     A
C458   F504    1.358   .     S
C459   C471    1.403   .     A
C459   F490    1.358   .     S
C460   F491    1.358   .     S
C460   C471    1.403   .     A
C461   C472    1.403   .     A
C461   F492    1.358   .     S
C462   C475    1.403   .     A
C462   F493    1.358   .     S
C463   O523    1.288   .     A
C463   C468    1.431   .     S
C463   O520    1.288   .     A
C464   F494    1.358   .     S
C464   C473    1.403   .     A
C465   F495    1.358   .     S
C465   C473    1.403   .     A
C466   C475    1.403   .     A
C466   F496    1.358   .     S
C467   C474    1.431   .     S
C471   C479    1.431   .     S
C472   C478    1.431   .     S
C473   C477    1.431   .     S
C474   O521    1.288   .     A
C474   O522    1.288   .     A
C475   C476    1.431   .     S
C476   O524    1.288   .     A
C476   O512    1.288   .     A
C477   O510    1.288   .     A
C477   O511    1.288   .     A
C478   O516    1.288   .     A
C478   O513    1.288   .     A
C479   O514    1.288   .     A
C479   O515    1.288   .     A
C480   N506    1.370   .     A
C480   Cl481   1.758   .     S
N505   Zn525   2.015   .     S
N506   Zn526   2.015   .     S
N507   Zn527   2.015   .     S
N507   C622    1.370   1_545 S
N508   Zn528   2.015   .     S
N508   C623    1.370   1_545 S
O509   Zn525   2.014   .     S
O510   Zn528   2.014   .     S
O511   Zn527   2.014   .     S
O512   Zn704   2.014   .     S
O513   Zn704   2.014   .     S
O514   Zn527   2.014   .     S
O515   Zn528   2.014   .     S
O516   Zn703   2.014   .     S
O517   Zn438   2.014   1_655 S
O518   Zn437   2.014   1_655 S
O519   Zn526   2.014   .     S
O520   Zn438   2.014   1_655 S
O521   Zn525   2.014   .     S
O522   Zn526   2.014   .     S
O523   Zn437   2.014   1_655 S
O524   Zn703   2.014   .     S
Zn527  O692    2.014   1_545 S
Zn527  O700    2.014   1_545 S
Zn528  O689    2.014   1_545 S
Zn528  O688    2.014   1_545 S
C529   O597    1.288   .     A
C529   O607    1.288   .     A
C529   C558    1.431   .     S
C530   C883    1.419   .     S
C530   Cl570   1.758   .     S
C530   N593    1.370   .     S
C531   Cl571   1.758   .     S
C531   N594    1.370   .     S
C532   C920    1.419   .     S
C532   Cl572   1.758   .     S
C532   N593    1.370   .     S
C533   N596    1.370   .     A
C533   Cl573   1.758   .     S
C534   Cl574   1.758   .     S
C534   C887    1.419   .     S
C534   N419    1.370   1_565 S
C535   Cl575   1.758   .     S
C535   N420    1.370   1_565 S
C536   Cl576   1.758   .     S
C536   N595    1.370   .     A
C536   C885    1.419   .     S
C537   F577    1.358   .     S
C537   C548    1.368   .     A
C537   C556    1.403   .     A
C538   C555    1.403   .     A
C538   C549    1.368   .     A
C538   F585    1.358   .     S
C539   C546    1.368   .     A
C539   F586    1.358   .     S
C539   C555    1.403   .     A
C540   C557    1.431   .     S
C540   O606    1.288   .     A
C540   O605    1.288   .     A
C541   C556    1.403   .     A
C541   C547    1.368   .     A
C541   F587    1.358   .     S
C542   C558    1.403   .     A
C542   F588    1.358   .     S
C542   C553    1.368   .     A
C543   C557    1.403   .     A
C543   C554    1.368   .     A
C543   F589    1.358   .     S
C544   F590    1.358   .     S
C544   C557    1.403   .     A
C544   C550    1.368   .     A
C545   C558    1.403   .     A
C545   C552    1.368   .     A
C545   F591    1.358   .     S
C546   C560    1.403   .     A
C546   F592    1.358   .     S
C547   C559    1.403   .     A
C547   F578    1.358   .     S
C548   F579    1.358   .     S
C548   C559    1.403   .     A
C549   C560    1.403   .     A
C549   F580    1.358   .     S
C550   C563    1.403   .     A
C550   F581    1.358   .     S
C551   O611    1.288   .     A
C551   C556    1.431   .     S
C551   O608    1.288   .     A
C552   F582    1.358   .     S
C552   C561    1.403   .     A
C553   F583    1.358   .     S
C553   C561    1.403   .     A
C554   C563    1.403   .     A
C554   F584    1.358   .     S
C555   C562    1.431   .     S
C559   C567    1.431   .     S
C560   C566    1.431   .     S
C561   C565    1.431   .     S
C562   O609    1.288   .     A
C562   O610    1.288   .     A
C563   C564    1.431   .     S
C564   O612    1.288   .     A
C564   O600    1.288   .     A
C565   O598    1.288   .     A
C565   O599    1.288   .     A
C566   O604    1.288   .     A
C566   O601    1.288   .     A
C567   O602    1.288   .     A
C567   O603    1.288   .     A
C568   N594    1.370   .     A
C568   Cl569   1.758   .     S
N593   Zn613   2.015   .     S
N594   Zn614   2.015   .     S
N595   Zn615   2.015   .     S
N596   Zn616   2.015   .     S
O597   Zn613   2.014   .     S
O598   Zn616   2.014   .     S
O599   Zn615   2.014   .     S
O600   Zn440   2.014   1_565 S
O601   Zn440   2.014   1_565 S
O602   Zn615   2.014   .     S
O603   Zn616   2.014   .     S
O604   Zn439   2.014   1_565 S
O605   Zn702   2.014   .     S
O606   Zn701   2.014   .     S
O607   Zn614   2.014   .     S
O608   Zn702   2.014   .     S
O609   Zn613   2.014   .     S
O610   Zn614   2.014   .     S
O611   Zn701   2.014   .     S
O612   Zn439   2.014   1_565 S
Zn613  O694    2.014   1_455 S
Zn613  O699    2.014   1_455 S
Zn614  O696    2.014   1_455 S
Zn614  O693    2.014   1_455 S
C617   O685    1.288   .     A
C617   O695    1.288   .     A
C617   C646    1.431   .     S
C618   C971    1.419   .     S
C618   Cl658   1.758   .     S
C618   N681    1.370   .     S
C619   Cl659   1.758   .     S
C619   N682    1.370   .     S
C620   C1008   1.419   .     S
C620   Cl660   1.758   .     S
C620   N681    1.370   .     S
C621   N684    1.370   .     A
C621   Cl661   1.758   .     S
C622   Cl662   1.758   .     S
C622   C975    1.419   .     S
C622   N507    1.370   1_565 S
C623   Cl663   1.758   .     S
C623   N508    1.370   1_565 S
C624   Cl664   1.758   .     S
C624   N683    1.370   .     A
C624   C973    1.419   .     S
C625   F665    1.358   .     S
C625   C636    1.368   .     A
C625   C644    1.403   .     A
C626   C643    1.403   .     A
C626   C637    1.368   .     A
C626   F673    1.358   .     S
C627   C634    1.368   .     A
C627   F674    1.358   .     S
C627   C643    1.403   .     A
C628   C645    1.431   .     S
C628   O694    1.288   .     A
C628   O693    1.288   .     A
C629   C644    1.403   .     A
C629   C635    1.368   .     A
C629   F675    1.358   .     S
C630   C646    1.403   .     A
C630   F676    1.358   .     S
C630   C641    1.368   .     A
C631   C645    1.403   .     A
C631   C642    1.368   .     A
C631   F677    1.358   .     S
C632   F678    1.358   .     S
C632   C645    1.403   .     A
C632   C638    1.368   .     A
C633   C646    1.403   .     A
C633   C640    1.368   .     A
C633   F679    1.358   .     S
C634   C648    1.403   .     A
C634   F680    1.358   .     S
C635   C647    1.403   .     A
C635   F666    1.358   .     S
C636   F667    1.358   .     S
C636   C647    1.403   .     A
C637   C648    1.403   .     A
C637   F668    1.358   .     S
C638   C651    1.403   .     A
C638   F669    1.358   .     S
C639   O699    1.288   .     A
C639   C644    1.431   .     S
C639   O696    1.288   .     A
C640   F670    1.358   .     S
C640   C649    1.403   .     A
C641   F671    1.358   .     S
C641   C649    1.403   .     A
C642   C651    1.403   .     A
C642   F672    1.358   .     S
C643   C650    1.431   .     S
C647   C655    1.431   .     S
C648   C654    1.431   .     S
C649   C653    1.431   .     S
C650   O697    1.288   .     A
C650   O698    1.288   .     A
C651   C652    1.431   .     S
C652   O700    1.288   .     A
C652   O688    1.288   .     A
C653   O686    1.288   .     A
C653   O687    1.288   .     A
C654   O692    1.288   .     A
C654   O689    1.288   .     A
C655   O690    1.288   .     A
C655   O691    1.288   .     A
C656   N682    1.370   .     A
C656   Cl657   1.758   .     S
N681   Zn701   2.015   .     S
N682   Zn702   2.015   .     S
N683   Zn703   2.015   .     S
N684   Zn704   2.015   .     S
O685   Zn701   2.014   .     S
O686   Zn704   2.014   .     S
O687   Zn703   2.014   .     S
O688   Zn528   2.014   1_565 S
O689   Zn528   2.014   1_565 S
O690   Zn703   2.014   .     S
O691   Zn704   2.014   .     S
O692   Zn527   2.014   1_565 S
O693   Zn614   2.014   1_655 S
O694   Zn613   2.014   1_655 S
O695   Zn702   2.014   .     S
O696   Zn614   2.014   1_655 S
O697   Zn701   2.014   .     S
O698   Zn702   2.014   .     S
O699   Zn613   2.014   1_655 S
O700   Zn527   2.014   1_565 S
C705   O773    1.288   .     A
C705   O783    1.288   .     A
C705   C734    1.431   .     S
C706   C3      1.419   1_556 S
C706   Cl746   1.758   .     S
C706   N769    1.370   .     S
C707   Cl747   1.758   .     S
C707   N770    1.370   .     S
C708   C40     1.419   1_556 S
C708   Cl748   1.758   .     S
C708   N769    1.370   .     S
C709   N772    1.370   .     A
C709   Cl749   1.758   .     S
C710   Cl750   1.758   .     S
C710   C7      1.419   1_556 S
C710   N947    1.370   .     S
C711   Cl751   1.758   .     S
C711   N948    1.370   .     S
C712   Cl752   1.758   .     S
C712   N771    1.370   .     A
C712   C5      1.419   1_556 S
C713   F753    1.358   .     S
C713   C724    1.368   .     A
C713   C732    1.403   .     A
C714   C731    1.403   .     A
C714   C725    1.368   .     A
C714   F761    1.358   .     S
C715   C722    1.368   .     A
C715   F762    1.358   .     S
C715   C731    1.403   .     A
C716   C733    1.431   .     S
C716   O782    1.288   .     A
C716   O781    1.288   .     A
C717   C732    1.403   .     A
C717   C723    1.368   .     A
C717   F763    1.358   .     S
C718   C734    1.403   .     A
C718   F764    1.358   .     S
C718   C729    1.368   .     A
C719   C733    1.403   .     A
C719   C730    1.368   .     A
C719   F765    1.358   .     S
C720   F766    1.358   .     S
C720   C733    1.403   .     A
C720   C726    1.368   .     A
C721   C734    1.403   .     A
C721   C728    1.368   .     A
C721   F767    1.358   .     S
C722   C736    1.403   .     A
C722   F768    1.358   .     S
C723   C735    1.403   .     A
C723   F754    1.358   .     S
C724   F755    1.358   .     S
C724   C735    1.403   .     A
C725   C736    1.403   .     A
C725   F756    1.358   .     S
C726   C739    1.403   .     A
C726   F757    1.358   .     S
C727   O787    1.288   .     A
C727   C732    1.431   .     S
C727   O784    1.288   .     A
C728   F758    1.358   .     S
C728   C737    1.403   .     A
C729   F759    1.358   .     S
C729   C737    1.403   .     A
C730   C739    1.403   .     A
C730   F760    1.358   .     S
C731   C738    1.431   .     S
C735   C743    1.431   .     S
C736   C742    1.431   .     S
C737   C741    1.431   .     S
C738   O785    1.288   .     A
C738   O786    1.288   .     A
C739   C740    1.431   .     S
C740   O788    1.288   .     A
C740   O776    1.288   .     A
C741   O774    1.288   .     A
C741   O775    1.288   .     A
C742   O780    1.288   .     A
C742   O777    1.288   .     A
C743   O778    1.288   .     A
C743   O779    1.288   .     A
C744   N770    1.370   .     A
C744   Cl745   1.758   .     S
N769   Zn789   2.015   .     S
N770   Zn790   2.015   .     S
N771   Zn791   2.015   .     S
N771   C886    1.370   1_545 S
N772   Zn792   2.015   .     S
N772   C887    1.370   1_545 S
O773   Zn789   2.014   .     S
O774   Zn792   2.014   .     S
O775   Zn791   2.014   .     S
O776   Zn968   2.014   .     S
O777   Zn968   2.014   .     S
O778   Zn791   2.014   .     S
O779   Zn792   2.014   .     S
O780   Zn967   2.014   .     S
O781   Zn878   2.014   .     S
O782   Zn877   2.014   .     S
O783   Zn790   2.014   .     S
O784   Zn878   2.014   .     S
O785   Zn789   2.014   .     S
O786   Zn790   2.014   .     S
O787   Zn877   2.014   .     S
O788   Zn967   2.014   .     S
Zn789  O870    2.014   1_455 S
Zn789  O875    2.014   1_455 S
Zn790  O872    2.014   1_455 S
Zn790  O869    2.014   1_455 S
Zn791  O956    2.014   1_545 S
Zn791  O964    2.014   1_545 S
Zn792  O953    2.014   1_545 S
Zn792  O952    2.014   1_545 S
C793   O861    1.288   .     A
C793   O871    1.288   .     A
C793   C822    1.431   .     S
C794   C91     1.419   1_556 S
C794   Cl834   1.758   .     S
C794   N857    1.370   .     S
C795   Cl835   1.758   .     S
C795   N858    1.370   .     S
C796   C128    1.419   1_556 S
C796   Cl836   1.758   .     S
C796   N857    1.370   .     S
C797   N860    1.370   .     A
C797   Cl837   1.758   .     S
C798   Cl838   1.758   .     S
C798   C95     1.419   1_556 S
C798   N1035   1.370   .     S
C799   Cl839   1.758   .     S
C799   N1036   1.370   .     S
C800   Cl840   1.758   .     S
C800   N859    1.370   .     A
C800   C93     1.419   1_556 S
C801   F841    1.358   .     S
C801   C812    1.368   .     A
C801   C820    1.403   .     A
C802   C819    1.403   .     A
C802   C813    1.368   .     A
C802   F849    1.358   .     S
C803   C810    1.368   .     A
C803   F850    1.358   .     S
C803   C819    1.403   .     A
C804   C821    1.431   .     S
C804   O870    1.288   .     A
C804   O869    1.288   .     A
C805   C820    1.403   .     A
C805   C811    1.368   .     A
C805   F851    1.358   .     S
C806   C822    1.403   .     A
C806   F852    1.358   .     S
C806   C817    1.368   .     A
C807   C821    1.403   .     A
C807   C818    1.368   .     A
C807   F853    1.358   .     S
C808   F854    1.358   .     S
C808   C821    1.403   .     A
C808   C814    1.368   .     A
C809   C822    1.403   .     A
C809   C816    1.368   .     A
C809   F855    1.358   .     S
C810   C824    1.403   .     A
C810   F856    1.358   .     S
C811   C823    1.403   .     A
C811   F842    1.358   .     S
C812   F843    1.358   .     S
C812   C823    1.403   .     A
C813   C824    1.403   .     A
C813   F844    1.358   .     S
C814   C827    1.403   .     A
C814   F845    1.358   .     S
C815   O875    1.288   .     A
C815   C820    1.431   .     S
C815   O872    1.288   .     A
C816   F846    1.358   .     S
C816   C825    1.403   .     A
C817   F847    1.358   .     S
C817   C825    1.403   .     A
C818   C827    1.403   .     A
C818   F848    1.358   .     S
C819   C826    1.431   .     S
C823   C831    1.431   .     S
C824   C830    1.431   .     S
C825   C829    1.431   .     S
C826   O873    1.288   .     A
C826   O874    1.288   .     A
C827   C828    1.431   .     S
C828   O876    1.288   .     A
C828   O864    1.288   .     A
C829   O862    1.288   .     A
C829   O863    1.288   .     A
C830   O868    1.288   .     A
C830   O865    1.288   .     A
C831   O866    1.288   .     A
C831   O867    1.288   .     A
C832   N858    1.370   .     A
C832   Cl833   1.758   .     S
N857   Zn877   2.015   .     S
N858   Zn878   2.015   .     S
N859   Zn879   2.015   .     S
N859   C974    1.370   1_545 S
N860   Zn880   2.015   .     S
N860   C975    1.370   1_545 S
O861   Zn877   2.014   .     S
O862   Zn880   2.014   .     S
O863   Zn879   2.014   .     S
O864   Zn1056  2.014   .     S
O865   Zn1056  2.014   .     S
O866   Zn879   2.014   .     S
O867   Zn880   2.014   .     S
O868   Zn1055  2.014   .     S
O869   Zn790   2.014   1_655 S
O870   Zn789   2.014   1_655 S
O871   Zn878   2.014   .     S
O872   Zn790   2.014   1_655 S
O873   Zn877   2.014   .     S
O874   Zn878   2.014   .     S
O875   Zn789   2.014   1_655 S
O876   Zn1055  2.014   .     S
Zn879  O1044   2.014   1_545 S
Zn879  O1052   2.014   1_545 S
Zn880  O1041   2.014   1_545 S
Zn880  O1040   2.014   1_545 S
C881   O949    1.288   .     A
C881   O959    1.288   .     A
C881   C910    1.431   .     S
C882   C179    1.419   1_556 S
C882   Cl922   1.758   .     S
C882   N945    1.370   .     S
C883   Cl923   1.758   .     S
C883   N946    1.370   .     S
C884   C216    1.419   1_556 S
C884   Cl924   1.758   .     S
C884   N945    1.370   .     S
C885   N948    1.370   .     A
C885   Cl925   1.758   .     S
C886   Cl926   1.758   .     S
C886   C183    1.419   1_556 S
C886   N771    1.370   1_565 S
C887   Cl927   1.758   .     S
C887   N772    1.370   1_565 S
C888   Cl928   1.758   .     S
C888   N947    1.370   .     A
C888   C181    1.419   1_556 S
C889   F929    1.358   .     S
C889   C900    1.368   .     A
C889   C908    1.403   .     A
C890   C907    1.403   .     A
C890   C901    1.368   .     A
C890   F937    1.358   .     S
C891   C898    1.368   .     A
C891   F938    1.358   .     S
C891   C907    1.403   .     A
C892   C909    1.431   .     S
C892   O958    1.288   .     A
C892   O957    1.288   .     A
C893   C908    1.403   .     A
C893   C899    1.368   .     A
C893   F939    1.358   .     S
C894   C910    1.403   .     A
C894   F940    1.358   .     S
C894   C905    1.368   .     A
C895   C909    1.403   .     A
C895   C906    1.368   .     A
C895   F941    1.358   .     S
C896   F942    1.358   .     S
C896   C909    1.403   .     A
C896   C902    1.368   .     A
C897   C910    1.403   .     A
C897   C904    1.368   .     A
C897   F943    1.358   .     S
C898   C912    1.403   .     A
C898   F944    1.358   .     S
C899   C911    1.403   .     A
C899   F930    1.358   .     S
C900   F931    1.358   .     S
C900   C911    1.403   .     A
C901   C912    1.403   .     A
C901   F932    1.358   .     S
C902   C915    1.403   .     A
C902   F933    1.358   .     S
C903   O963    1.288   .     A
C903   C908    1.431   .     S
C903   O960    1.288   .     A
C904   F934    1.358   .     S
C904   C913    1.403   .     A
C905   F935    1.358   .     S
C905   C913    1.403   .     A
C906   C915    1.403   .     A
C906   F936    1.358   .     S
C907   C914    1.431   .     S
C911   C919    1.431   .     S
C912   C918    1.431   .     S
C913   C917    1.431   .     S
C914   O961    1.288   .     A
C914   O962    1.288   .     A
C915   C916    1.431   .     S
C916   O964    1.288   .     A
C916   O952    1.288   .     A
C917   O950    1.288   .     A
C917   O951    1.288   .     A
C918   O956    1.288   .     A
C918   O953    1.288   .     A
C919   O954    1.288   .     A
C919   O955    1.288   .     A
C920   N946    1.370   .     A
C920   Cl921   1.758   .     S
N945   Zn965   2.015   .     S
N946   Zn966   2.015   .     S
N947   Zn967   2.015   .     S
N948   Zn968   2.015   .     S
O949   Zn965   2.014   .     S
O950   Zn968   2.014   .     S
O951   Zn967   2.014   .     S
O952   Zn792   2.014   1_565 S
O953   Zn792   2.014   1_565 S
O954   Zn967   2.014   .     S
O955   Zn968   2.014   .     S
O956   Zn791   2.014   1_565 S
O957   Zn1054  2.014   .     S
O958   Zn1053  2.014   .     S
O959   Zn966   2.014   .     S
O960   Zn1054  2.014   .     S
O961   Zn965   2.014   .     S
O962   Zn966   2.014   .     S
O963   Zn1053  2.014   .     S
O964   Zn791   2.014   1_565 S
Zn965  O1046   2.014   1_455 S
Zn965  O1051   2.014   1_455 S
Zn966  O1048   2.014   1_455 S
Zn966  O1045   2.014   1_455 S
C969   O1037   1.288   .     A
C969   O1047   1.288   .     A
C969   C998    1.431   .     S
C970   C267    1.419   1_556 S
C970   Cl1010  1.758   .     S
C970   N1033   1.370   .     S
C971   Cl1011  1.758   .     S
C971   N1034   1.370   .     S
C972   C304    1.419   1_556 S
C972   Cl1012  1.758   .     S
C972   N1033   1.370   .     S
C973   N1036   1.370   .     A
C973   Cl1013  1.758   .     S
C974   Cl1014  1.758   .     S
C974   C271    1.419   1_556 S
C974   N859    1.370   1_565 S
C975   Cl1015  1.758   .     S
C975   N860    1.370   1_565 S
C976   Cl1016  1.758   .     S
C976   N1035   1.370   .     A
C976   C269    1.419   1_556 S
C977   F1017   1.358   .     S
C977   C988    1.368   .     A
C977   C996    1.403   .     A
C978   C995    1.403   .     A
C978   C989    1.368   .     A
C978   F1025   1.358   .     S
C979   C986    1.368   .     A
C979   F1026   1.358   .     S
C979   C995    1.403   .     A
C980   C997    1.431   .     S
C980   O1046   1.288   .     A
C980   O1045   1.288   .     A
C981   C996    1.403   .     A
C981   C987    1.368   .     A
C981   F1027   1.358   .     S
C982   C998    1.403   .     A
C982   F1028   1.358   .     S
C982   C993    1.368   .     A
C983   C997    1.403   .     A
C983   C994    1.368   .     A
C983   F1029   1.358   .     S
C984   F1030   1.358   .     S
C984   C997    1.403   .     A
C984   C990    1.368   .     A
C985   C998    1.403   .     A
C985   C992    1.368   .     A
C985   F1031   1.358   .     S
C986   C1000   1.403   .     A
C986   F1032   1.358   .     S
C987   C999    1.403   .     A
C987   F1018   1.358   .     S
C988   F1019   1.358   .     S
C988   C999    1.403   .     A
C989   C1000   1.403   .     A
C989   F1020   1.358   .     S
C990   C1003   1.403   .     A
C990   F1021   1.358   .     S
C991   O1051   1.288   .     A
C991   C996    1.431   .     S
C991   O1048   1.288   .     A
C992   F1022   1.358   .     S
C992   C1001   1.403   .     A
C993   F1023   1.358   .     S
C993   C1001   1.403   .     A
C994   C1003   1.403   .     A
C994   F1024   1.358   .     S
C995   C1002   1.431   .     S
C999   C1007   1.431   .     S
C1000  C1006   1.431   .     S
C1001  C1005   1.431   .     S
C1002  O1049   1.288   .     A
C1002  O1050   1.288   .     A
C1003  C1004   1.431   .     S
C1004  O1052   1.288   .     A
C1004  O1040   1.288   .     A
C1005  O1038   1.288   .     A
C1005  O1039   1.288   .     A
C1006  O1044   1.288   .     A
C1006  O1041   1.288   .     A
C1007  O1042   1.288   .     A
C1007  O1043   1.288   .     A
C1008  N1034   1.370   .     A
C1008  Cl1009  1.758   .     S
N1033  Zn1053  2.015   .     S
N1034  Zn1054  2.015   .     S
N1035  Zn1055  2.015   .     S
N1036  Zn1056  2.015   .     S
O1037  Zn1053  2.014   .     S
O1038  Zn1056  2.014   .     S
O1039  Zn1055  2.014   .     S
O1040  Zn880   2.014   1_565 S
O1041  Zn880   2.014   1_565 S
O1042  Zn1055  2.014   .     S
O1043  Zn1056  2.014   .     S
O1044  Zn879   2.014   1_565 S
O1045  Zn966   2.014   1_655 S
O1046  Zn965   2.014   1_655 S
O1047  Zn1054  2.014   .     S
O1048  Zn966   2.014   1_655 S
O1049  Zn1053  2.014   .     S
O1050  Zn1054  2.014   .     S
O1051  Zn965   2.014   1_655 S
O1052  Zn879   2.014   1_565 S
