data_str_m3_o2_o10_pcu_sym.178
_audit_creation_date              2020-01-03
_audit_creation_method            'Materials Studio'
_symmetry_space_group_name_H-M    'P1'
_symmetry_Int_Tables_number       1
_symmetry_cell_setting            triclinic
loop_
_symmetry_equiv_pos_as_xyz
  x,y,z
_cell_length_a                    25.9512
_cell_length_b                    29.9704
_cell_length_c                    28.3172
_cell_angle_alpha                 89.5537
_cell_angle_beta                  98.3660
_cell_angle_gamma                 90.1184
loop_
_atom_site_label
_atom_site_type_symbol
_atom_site_fract_x
_atom_site_fract_y
_atom_site_fract_z
_atom_site_U_iso_or_equiv
_atom_site_adp_type
_atom_site_occupancy
C1     C     0.16694   0.16382   0.25023   0.00000  Uiso   1.00
C2     C     0.16701   0.33620   0.24985   0.00000  Uiso   1.00
C3     C     0.12418   0.23275   0.04713   0.00000  Uiso   1.00
C4     C     0.19264   0.28345   0.45056   0.00000  Uiso   1.00
C5     C     0.12517   0.23288   0.09691   0.00000  Uiso   1.00
C6     C     0.19243   0.28268   0.40090   0.00000  Uiso   1.00
C7     C     0.20808   0.26713   0.10756   0.00000  Uiso   1.00
C8     C     0.14064   0.21747   0.39449   0.00000  Uiso   1.00
C9     C     0.20895   0.26719   0.05805   0.00000  Uiso   1.00
C10    C     0.14023   0.21676   0.44408   0.00000  Uiso   1.00
C11    C     0.16652   0.25000   0.02665   0.00000  Uiso   1.00
C12    C     0.16644   0.25008   0.47326   0.00000  Uiso   1.00
C13    C     0.06726   0.24950   0.23779   0.00000  Uiso   1.00
C14    C     0.26607   0.25040   0.26222   0.00000  Uiso   1.00
C15    C     0.01284   0.24460   0.23170   0.00000  Uiso   1.00
C16    C     0.32051   0.25508   0.26838   0.00000  Uiso   1.00
C17    C     0.15710   0.04536   0.28843   0.00000  Uiso   1.00
C18    C     0.15890   0.45466   0.20881   0.00000  Uiso   1.00
C19    C     0.15262   0.09127   0.28784   0.00000  Uiso   1.00
C20    C     0.15445   0.40874   0.20807   0.00000  Uiso   1.00
C21    C     0.17052   0.11590   0.25114   0.00000  Uiso   1.00
C22    C     0.17067   0.38415   0.24995   0.00000  Uiso   1.00
C23    C     0.19343   0.09450   0.21562   0.00000  Uiso   1.00
C24    C     0.19196   0.40562   0.29209   0.00000  Uiso   1.00
C25    C     0.19803   0.04861   0.21644   0.00000  Uiso   1.00
C26    C     0.19650   0.45153   0.29263   0.00000  Uiso   1.00
C27    C     0.17946   0.02408   0.25261   0.00000  Uiso   1.00
C28    C     0.17955   0.47600   0.25110   0.00000  Uiso   1.00
H29    H     0.14173   0.02632   0.31594   0.00000  Uiso   1.00
H30    H     0.14479   0.47366   0.17684   0.00000  Uiso   1.00
H31    H     0.20805   0.11323   0.18750   0.00000  Uiso   1.00
H32    H     0.20535   0.38696   0.32447   0.00000  Uiso   1.00
H33    H     0.21557   0.03219   0.18877   0.00000  Uiso   1.00
H34    H     0.21273   0.46801   0.32539   0.00000  Uiso   1.00
H35    H     0.09004   0.21978   0.02499   0.00000  Uiso   1.00
H36    H     0.21265   0.31043   0.47076   0.00000  Uiso   1.00
H37    H     0.09245   0.21941   0.11207   0.00000  Uiso   1.00
H38    H     0.21278   0.30844   0.38398   0.00000  Uiso   1.00
H39    H     0.24081   0.28067   0.13110   0.00000  Uiso   1.00
H40    H     0.12022   0.19180   0.37253   0.00000  Uiso   1.00
H41    H     0.24306   0.28015   0.04472   0.00000  Uiso   1.00
H42    H     0.12009   0.18982   0.45933   0.00000  Uiso   1.00
N43    N     0.16667   0.24999   0.12623   0.00000  Uiso   1.00
N44    N     0.16667   0.25001   0.37376   0.00000  Uiso   1.00
O45    O     0.16667   0.18453   0.28974   0.00000  Uiso   1.00
O46    O     0.16666   0.31546   0.21026   0.00000  Uiso   1.00
O47    O     0.16667   0.18453   0.21026   0.00000  Uiso   1.00
O48    O     0.16666   0.31547   0.28974   0.00000  Uiso   1.00
O49    O     0.09058   0.25000   0.28044   0.00000  Uiso   1.00
O50    O     0.24275   0.25000   0.21955   0.00000  Uiso   1.00
O51    O     0.09058   0.24999   0.20096   0.00000  Uiso   1.00
O52    O     0.24275   0.25000   0.29903   0.00000  Uiso   1.00
Zn53   Zn    0.16667   0.25000   0.30307   0.00000  Uiso   1.00
Zn54   Zn    0.16667   0.24999   0.19693   0.00000  Uiso   1.00
O55    O     0.32151   0.23006   0.18761   0.00000  Uiso   1.00
C56    C     0.32439   0.18304   0.18634   0.00000  Uiso   1.00
H57    H     0.30793   0.16752   0.21682   0.00000  Uiso   1.00
H58    H     0.03213   0.17193   0.18725   0.00000  Uiso   1.00
C59    C     0.29281   0.16663   0.14027   0.00000  Uiso   1.00
H60    H     0.30822   0.18141   0.10904   0.00000  Uiso   1.00
H61    H     0.29526   0.12971   0.13855   0.00000  Uiso   1.00
H62    H     0.25134   0.17635   0.13892   0.00000  Uiso   1.00
O63    O     0.01189   0.26940   0.31254   0.00000  Uiso   1.00
C64    C     0.00891   0.31641   0.31417   0.00000  Uiso   1.00
H65    H     0.30133   0.32732   0.31465   0.00000  Uiso   1.00
H66    H     0.02402   0.33223   0.28312   0.00000  Uiso   1.00
C67    C     0.04208   0.33267   0.35950   0.00000  Uiso   1.00
H68    H     0.08334   0.32289   0.35952   0.00000  Uiso   1.00
H69    H     0.03977   0.36959   0.36144   0.00000  Uiso   1.00
H70    H     0.02789   0.31782   0.39129   0.00000  Uiso   1.00
F71    F     0.12941   0.11130   0.32209   0.00000  Uiso   1.00
F72    F     0.13291   0.38869   0.16703   0.00000  Uiso   1.00
C73    C     0.50028   0.16382   0.25023   0.00000  Uiso   1.00
C74    C     0.50034   0.33620   0.24985   0.00000  Uiso   1.00
C75    C     0.45752   0.23275   0.04713   0.00000  Uiso   1.00
C76    C     0.52597   0.28345   0.45056   0.00000  Uiso   1.00
C77    C     0.45850   0.23288   0.09691   0.00000  Uiso   1.00
C78    C     0.52576   0.28268   0.40090   0.00000  Uiso   1.00
C79    C     0.54141   0.26713   0.10756   0.00000  Uiso   1.00
C80    C     0.47398   0.21747   0.39449   0.00000  Uiso   1.00
C81    C     0.54229   0.26719   0.05805   0.00000  Uiso   1.00
C82    C     0.47356   0.21676   0.44408   0.00000  Uiso   1.00
C83    C     0.49986   0.25000   0.02665   0.00000  Uiso   1.00
C84    C     0.49978   0.25008   0.47326   0.00000  Uiso   1.00
C85    C     0.40059   0.24950   0.23779   0.00000  Uiso   1.00
C86    C     0.59940   0.25040   0.26222   0.00000  Uiso   1.00
C87    C     0.34617   0.24460   0.23170   0.00000  Uiso   1.00
C88    C     0.65384   0.25508   0.26838   0.00000  Uiso   1.00
C89    C     0.49044   0.04536   0.28843   0.00000  Uiso   1.00
C90    C     0.49224   0.45466   0.20881   0.00000  Uiso   1.00
C91    C     0.48596   0.09127   0.28784   0.00000  Uiso   1.00
C92    C     0.48778   0.40874   0.20807   0.00000  Uiso   1.00
C93    C     0.50386   0.11590   0.25114   0.00000  Uiso   1.00
C94    C     0.50401   0.38415   0.24995   0.00000  Uiso   1.00
C95    C     0.52676   0.09450   0.21562   0.00000  Uiso   1.00
C96    C     0.52529   0.40562   0.29209   0.00000  Uiso   1.00
C97    C     0.53136   0.04861   0.21644   0.00000  Uiso   1.00
C98    C     0.52983   0.45153   0.29263   0.00000  Uiso   1.00
C99    C     0.51280   0.02408   0.25261   0.00000  Uiso   1.00
C100   C     0.51288   0.47600   0.25110   0.00000  Uiso   1.00
H101   H     0.47506   0.02632   0.31594   0.00000  Uiso   1.00
H102   H     0.47813   0.47366   0.17684   0.00000  Uiso   1.00
H103   H     0.54138   0.11323   0.18750   0.00000  Uiso   1.00
H104   H     0.53869   0.38696   0.32447   0.00000  Uiso   1.00
H105   H     0.54890   0.03219   0.18877   0.00000  Uiso   1.00
H106   H     0.54606   0.46801   0.32539   0.00000  Uiso   1.00
H107   H     0.42337   0.21978   0.02499   0.00000  Uiso   1.00
H108   H     0.54599   0.31043   0.47076   0.00000  Uiso   1.00
H109   H     0.42578   0.21941   0.11207   0.00000  Uiso   1.00
H110   H     0.54611   0.30844   0.38398   0.00000  Uiso   1.00
H111   H     0.57415   0.28067   0.13110   0.00000  Uiso   1.00
H112   H     0.45356   0.19180   0.37253   0.00000  Uiso   1.00
H113   H     0.57639   0.28015   0.04472   0.00000  Uiso   1.00
H114   H     0.45342   0.18982   0.45933   0.00000  Uiso   1.00
N115   N     0.50000   0.24999   0.12623   0.00000  Uiso   1.00
N116   N     0.50000   0.25001   0.37376   0.00000  Uiso   1.00
O117   O     0.50000   0.18453   0.28974   0.00000  Uiso   1.00
O118   O     0.50000   0.31546   0.21026   0.00000  Uiso   1.00
O119   O     0.50000   0.18453   0.21026   0.00000  Uiso   1.00
O120   O     0.50000   0.31547   0.28974   0.00000  Uiso   1.00
O121   O     0.42392   0.25000   0.28044   0.00000  Uiso   1.00
O122   O     0.57608   0.25000   0.21955   0.00000  Uiso   1.00
O123   O     0.42392   0.24999   0.20096   0.00000  Uiso   1.00
O124   O     0.57608   0.25000   0.29903   0.00000  Uiso   1.00
Zn125  Zn    0.50000   0.25000   0.30307   0.00000  Uiso   1.00
Zn126  Zn    0.50000   0.24999   0.19693   0.00000  Uiso   1.00
O127   O     0.65484   0.23006   0.18761   0.00000  Uiso   1.00
C128   C     0.65773   0.18304   0.18634   0.00000  Uiso   1.00
H129   H     0.64126   0.16752   0.21682   0.00000  Uiso   1.00
H130   H     0.36546   0.17193   0.18725   0.00000  Uiso   1.00
C131   C     0.62614   0.16663   0.14027   0.00000  Uiso   1.00
H132   H     0.64155   0.18141   0.10904   0.00000  Uiso   1.00
H133   H     0.62860   0.12971   0.13855   0.00000  Uiso   1.00
H134   H     0.58468   0.17635   0.13892   0.00000  Uiso   1.00
O135   O     0.34523   0.26940   0.31254   0.00000  Uiso   1.00
C136   C     0.34224   0.31641   0.31417   0.00000  Uiso   1.00
H137   H     0.63466   0.32732   0.31465   0.00000  Uiso   1.00
H138   H     0.35736   0.33223   0.28312   0.00000  Uiso   1.00
C139   C     0.37541   0.33267   0.35950   0.00000  Uiso   1.00
H140   H     0.41667   0.32289   0.35952   0.00000  Uiso   1.00
H141   H     0.37310   0.36959   0.36144   0.00000  Uiso   1.00
H142   H     0.36123   0.31782   0.39129   0.00000  Uiso   1.00
F143   F     0.46274   0.11130   0.32209   0.00000  Uiso   1.00
F144   F     0.46625   0.38869   0.16703   0.00000  Uiso   1.00
C145   C     0.83361   0.16382   0.25023   0.00000  Uiso   1.00
C146   C     0.83367   0.33620   0.24985   0.00000  Uiso   1.00
C147   C     0.79085   0.23275   0.04713   0.00000  Uiso   1.00
C148   C     0.85930   0.28345   0.45056   0.00000  Uiso   1.00
C149   C     0.79183   0.23288   0.09691   0.00000  Uiso   1.00
C150   C     0.85910   0.28268   0.40090   0.00000  Uiso   1.00
C151   C     0.87474   0.26713   0.10756   0.00000  Uiso   1.00
C152   C     0.80731   0.21747   0.39449   0.00000  Uiso   1.00
C153   C     0.87562   0.26719   0.05805   0.00000  Uiso   1.00
C154   C     0.80689   0.21676   0.44408   0.00000  Uiso   1.00
C155   C     0.83319   0.25000   0.02665   0.00000  Uiso   1.00
C156   C     0.83311   0.25008   0.47326   0.00000  Uiso   1.00
C157   C     0.73393   0.24950   0.23779   0.00000  Uiso   1.00
C158   C     0.93274   0.25040   0.26222   0.00000  Uiso   1.00
C159   C     0.67951   0.24460   0.23170   0.00000  Uiso   1.00
C160   C     0.98718   0.25508   0.26838   0.00000  Uiso   1.00
C161   C     0.82377   0.04536   0.28843   0.00000  Uiso   1.00
C162   C     0.82557   0.45466   0.20881   0.00000  Uiso   1.00
C163   C     0.81929   0.09127   0.28784   0.00000  Uiso   1.00
C164   C     0.82112   0.40874   0.20807   0.00000  Uiso   1.00
C165   C     0.83719   0.11590   0.25114   0.00000  Uiso   1.00
C166   C     0.83734   0.38415   0.24995   0.00000  Uiso   1.00
C167   C     0.86009   0.09450   0.21562   0.00000  Uiso   1.00
C168   C     0.85862   0.40562   0.29209   0.00000  Uiso   1.00
C169   C     0.86469   0.04861   0.21644   0.00000  Uiso   1.00
C170   C     0.86316   0.45153   0.29263   0.00000  Uiso   1.00
C171   C     0.84613   0.02408   0.25261   0.00000  Uiso   1.00
C172   C     0.84621   0.47600   0.25110   0.00000  Uiso   1.00
H173   H     0.80839   0.02632   0.31594   0.00000  Uiso   1.00
H174   H     0.81146   0.47366   0.17684   0.00000  Uiso   1.00
H175   H     0.87472   0.11323   0.18750   0.00000  Uiso   1.00
H176   H     0.87202   0.38696   0.32447   0.00000  Uiso   1.00
H177   H     0.88223   0.03219   0.18877   0.00000  Uiso   1.00
H178   H     0.87939   0.46801   0.32539   0.00000  Uiso   1.00
H179   H     0.75671   0.21978   0.02499   0.00000  Uiso   1.00
H180   H     0.87932   0.31043   0.47076   0.00000  Uiso   1.00
H181   H     0.75912   0.21941   0.11207   0.00000  Uiso   1.00
H182   H     0.87944   0.30844   0.38398   0.00000  Uiso   1.00
H183   H     0.90748   0.28067   0.13110   0.00000  Uiso   1.00
H184   H     0.78689   0.19180   0.37253   0.00000  Uiso   1.00
H185   H     0.90973   0.28015   0.04472   0.00000  Uiso   1.00
H186   H     0.78676   0.18982   0.45933   0.00000  Uiso   1.00
N187   N     0.83333   0.24999   0.12623   0.00000  Uiso   1.00
N188   N     0.83333   0.25001   0.37376   0.00000  Uiso   1.00
O189   O     0.83334   0.18453   0.28974   0.00000  Uiso   1.00
O190   O     0.83333   0.31546   0.21026   0.00000  Uiso   1.00
O191   O     0.83334   0.18453   0.21026   0.00000  Uiso   1.00
O192   O     0.83333   0.31547   0.28974   0.00000  Uiso   1.00
O193   O     0.75725   0.25000   0.28044   0.00000  Uiso   1.00
O194   O     0.90942   0.25000   0.21955   0.00000  Uiso   1.00
O195   O     0.75725   0.24999   0.20096   0.00000  Uiso   1.00
O196   O     0.90942   0.25000   0.29903   0.00000  Uiso   1.00
Zn197  Zn    0.83333   0.25000   0.30307   0.00000  Uiso   1.00
Zn198  Zn    0.83333   0.24999   0.19693   0.00000  Uiso   1.00
O199   O     0.98817   0.23006   0.18761   0.00000  Uiso   1.00
C200   C     0.99106   0.18304   0.18634   0.00000  Uiso   1.00
H201   H     0.97460   0.16752   0.21682   0.00000  Uiso   1.00
H202   H     0.69879   0.17193   0.18725   0.00000  Uiso   1.00
C203   C     0.95948   0.16663   0.14027   0.00000  Uiso   1.00
H204   H     0.97488   0.18141   0.10904   0.00000  Uiso   1.00
H205   H     0.96193   0.12971   0.13855   0.00000  Uiso   1.00
H206   H     0.91801   0.17635   0.13892   0.00000  Uiso   1.00
O207   O     0.67856   0.26940   0.31254   0.00000  Uiso   1.00
C208   C     0.67558   0.31641   0.31417   0.00000  Uiso   1.00
H209   H     0.96799   0.32732   0.31465   0.00000  Uiso   1.00
H210   H     0.69069   0.33223   0.28312   0.00000  Uiso   1.00
C211   C     0.70874   0.33267   0.35950   0.00000  Uiso   1.00
H212   H     0.75001   0.32289   0.35952   0.00000  Uiso   1.00
H213   H     0.70643   0.36959   0.36144   0.00000  Uiso   1.00
H214   H     0.69456   0.31782   0.39129   0.00000  Uiso   1.00
F215   F     0.79608   0.11130   0.32209   0.00000  Uiso   1.00
F216   F     0.79958   0.38869   0.16703   0.00000  Uiso   1.00
C217   C     0.16694   0.66382   0.25023   0.00000  Uiso   1.00
C218   C     0.16701   0.83620   0.24985   0.00000  Uiso   1.00
C219   C     0.12418   0.73275   0.04713   0.00000  Uiso   1.00
C220   C     0.19264   0.78345   0.45056   0.00000  Uiso   1.00
C221   C     0.12517   0.73288   0.09691   0.00000  Uiso   1.00
C222   C     0.19243   0.78268   0.40090   0.00000  Uiso   1.00
C223   C     0.20808   0.76713   0.10756   0.00000  Uiso   1.00
C224   C     0.14064   0.71747   0.39449   0.00000  Uiso   1.00
C225   C     0.20895   0.76719   0.05805   0.00000  Uiso   1.00
C226   C     0.14023   0.71676   0.44408   0.00000  Uiso   1.00
C227   C     0.16652   0.75000   0.02665   0.00000  Uiso   1.00
C228   C     0.16644   0.75008   0.47326   0.00000  Uiso   1.00
C229   C     0.06726   0.74950   0.23779   0.00000  Uiso   1.00
C230   C     0.26607   0.75040   0.26222   0.00000  Uiso   1.00
C231   C     0.01284   0.74460   0.23170   0.00000  Uiso   1.00
C232   C     0.32051   0.75508   0.26838   0.00000  Uiso   1.00
C233   C     0.15710   0.54536   0.28843   0.00000  Uiso   1.00
C234   C     0.15890   0.95466   0.20881   0.00000  Uiso   1.00
C235   C     0.15262   0.59127   0.28784   0.00000  Uiso   1.00
C236   C     0.15445   0.90874   0.20807   0.00000  Uiso   1.00
C237   C     0.17052   0.61590   0.25114   0.00000  Uiso   1.00
C238   C     0.17067   0.88415   0.24995   0.00000  Uiso   1.00
C239   C     0.19343   0.59450   0.21562   0.00000  Uiso   1.00
C240   C     0.19196   0.90562   0.29209   0.00000  Uiso   1.00
C241   C     0.19803   0.54861   0.21644   0.00000  Uiso   1.00
C242   C     0.19650   0.95153   0.29263   0.00000  Uiso   1.00
C243   C     0.17946   0.52408   0.25261   0.00000  Uiso   1.00
C244   C     0.17955   0.97600   0.25110   0.00000  Uiso   1.00
H245   H     0.14173   0.52632   0.31594   0.00000  Uiso   1.00
H246   H     0.14479   0.97366   0.17684   0.00000  Uiso   1.00
H247   H     0.20805   0.61323   0.18750   0.00000  Uiso   1.00
H248   H     0.20535   0.88696   0.32447   0.00000  Uiso   1.00
H249   H     0.21557   0.53219   0.18877   0.00000  Uiso   1.00
H250   H     0.21273   0.96801   0.32539   0.00000  Uiso   1.00
H251   H     0.09004   0.71978   0.02499   0.00000  Uiso   1.00
H252   H     0.21265   0.81043   0.47076   0.00000  Uiso   1.00
H253   H     0.09245   0.71941   0.11207   0.00000  Uiso   1.00
H254   H     0.21278   0.80844   0.38398   0.00000  Uiso   1.00
H255   H     0.24081   0.78067   0.13110   0.00000  Uiso   1.00
H256   H     0.12022   0.69180   0.37253   0.00000  Uiso   1.00
H257   H     0.24306   0.78015   0.04472   0.00000  Uiso   1.00
H258   H     0.12009   0.68982   0.45933   0.00000  Uiso   1.00
N259   N     0.16667   0.74999   0.12623   0.00000  Uiso   1.00
N260   N     0.16667   0.75001   0.37376   0.00000  Uiso   1.00
O261   O     0.16667   0.68453   0.28974   0.00000  Uiso   1.00
O262   O     0.16666   0.81546   0.21026   0.00000  Uiso   1.00
O263   O     0.16667   0.68453   0.21026   0.00000  Uiso   1.00
O264   O     0.16666   0.81547   0.28974   0.00000  Uiso   1.00
O265   O     0.09058   0.75000   0.28044   0.00000  Uiso   1.00
O266   O     0.24275   0.75000   0.21955   0.00000  Uiso   1.00
O267   O     0.09058   0.74999   0.20096   0.00000  Uiso   1.00
O268   O     0.24275   0.75000   0.29903   0.00000  Uiso   1.00
Zn269  Zn    0.16667   0.75000   0.30307   0.00000  Uiso   1.00
Zn270  Zn    0.16667   0.74999   0.19693   0.00000  Uiso   1.00
O271   O     0.32151   0.73006   0.18761   0.00000  Uiso   1.00
C272   C     0.32439   0.68304   0.18634   0.00000  Uiso   1.00
H273   H     0.30793   0.66752   0.21682   0.00000  Uiso   1.00
H274   H     0.03213   0.67193   0.18725   0.00000  Uiso   1.00
C275   C     0.29281   0.66663   0.14027   0.00000  Uiso   1.00
H276   H     0.30822   0.68141   0.10904   0.00000  Uiso   1.00
H277   H     0.29526   0.62971   0.13855   0.00000  Uiso   1.00
H278   H     0.25134   0.67635   0.13892   0.00000  Uiso   1.00
O279   O     0.01189   0.76940   0.31254   0.00000  Uiso   1.00
C280   C     0.00891   0.81641   0.31417   0.00000  Uiso   1.00
H281   H     0.30133   0.82732   0.31465   0.00000  Uiso   1.00
H282   H     0.02402   0.83223   0.28312   0.00000  Uiso   1.00
C283   C     0.04208   0.83267   0.35950   0.00000  Uiso   1.00
H284   H     0.08334   0.82289   0.35952   0.00000  Uiso   1.00
H285   H     0.03977   0.86959   0.36144   0.00000  Uiso   1.00
H286   H     0.02789   0.81782   0.39129   0.00000  Uiso   1.00
F287   F     0.12941   0.61130   0.32209   0.00000  Uiso   1.00
F288   F     0.13291   0.88869   0.16703   0.00000  Uiso   1.00
C289   C     0.50028   0.66382   0.25023   0.00000  Uiso   1.00
C290   C     0.50034   0.83620   0.24985   0.00000  Uiso   1.00
C291   C     0.45752   0.73275   0.04713   0.00000  Uiso   1.00
C292   C     0.52597   0.78345   0.45056   0.00000  Uiso   1.00
C293   C     0.45850   0.73288   0.09691   0.00000  Uiso   1.00
C294   C     0.52576   0.78268   0.40090   0.00000  Uiso   1.00
C295   C     0.54141   0.76713   0.10756   0.00000  Uiso   1.00
C296   C     0.47398   0.71747   0.39449   0.00000  Uiso   1.00
C297   C     0.54229   0.76719   0.05805   0.00000  Uiso   1.00
C298   C     0.47356   0.71676   0.44408   0.00000  Uiso   1.00
C299   C     0.49986   0.75000   0.02665   0.00000  Uiso   1.00
C300   C     0.49978   0.75008   0.47326   0.00000  Uiso   1.00
C301   C     0.40059   0.74950   0.23779   0.00000  Uiso   1.00
C302   C     0.59940   0.75040   0.26222   0.00000  Uiso   1.00
C303   C     0.34617   0.74460   0.23170   0.00000  Uiso   1.00
C304   C     0.65384   0.75508   0.26838   0.00000  Uiso   1.00
C305   C     0.49044   0.54536   0.28843   0.00000  Uiso   1.00
C306   C     0.49224   0.95466   0.20881   0.00000  Uiso   1.00
C307   C     0.48596   0.59127   0.28784   0.00000  Uiso   1.00
C308   C     0.48778   0.90874   0.20807   0.00000  Uiso   1.00
C309   C     0.50386   0.61590   0.25114   0.00000  Uiso   1.00
C310   C     0.50401   0.88415   0.24995   0.00000  Uiso   1.00
C311   C     0.52676   0.59450   0.21562   0.00000  Uiso   1.00
C312   C     0.52529   0.90562   0.29209   0.00000  Uiso   1.00
C313   C     0.53136   0.54861   0.21644   0.00000  Uiso   1.00
C314   C     0.52983   0.95153   0.29263   0.00000  Uiso   1.00
C315   C     0.51280   0.52408   0.25261   0.00000  Uiso   1.00
C316   C     0.51288   0.97600   0.25110   0.00000  Uiso   1.00
H317   H     0.47506   0.52632   0.31594   0.00000  Uiso   1.00
H318   H     0.47813   0.97366   0.17684   0.00000  Uiso   1.00
H319   H     0.54138   0.61323   0.18750   0.00000  Uiso   1.00
H320   H     0.53869   0.88696   0.32447   0.00000  Uiso   1.00
H321   H     0.54890   0.53219   0.18877   0.00000  Uiso   1.00
H322   H     0.54606   0.96801   0.32539   0.00000  Uiso   1.00
H323   H     0.42337   0.71978   0.02499   0.00000  Uiso   1.00
H324   H     0.54599   0.81043   0.47076   0.00000  Uiso   1.00
H325   H     0.42578   0.71941   0.11207   0.00000  Uiso   1.00
H326   H     0.54611   0.80844   0.38398   0.00000  Uiso   1.00
H327   H     0.57415   0.78067   0.13110   0.00000  Uiso   1.00
H328   H     0.45356   0.69180   0.37253   0.00000  Uiso   1.00
H329   H     0.57639   0.78015   0.04472   0.00000  Uiso   1.00
H330   H     0.45342   0.68982   0.45933   0.00000  Uiso   1.00
N331   N     0.50000   0.74999   0.12623   0.00000  Uiso   1.00
N332   N     0.50000   0.75001   0.37376   0.00000  Uiso   1.00
O333   O     0.50000   0.68453   0.28974   0.00000  Uiso   1.00
O334   O     0.50000   0.81546   0.21026   0.00000  Uiso   1.00
O335   O     0.50000   0.68453   0.21026   0.00000  Uiso   1.00
O336   O     0.50000   0.81547   0.28974   0.00000  Uiso   1.00
O337   O     0.42392   0.75000   0.28044   0.00000  Uiso   1.00
O338   O     0.57608   0.75000   0.21955   0.00000  Uiso   1.00
O339   O     0.42392   0.74999   0.20096   0.00000  Uiso   1.00
O340   O     0.57608   0.75000   0.29903   0.00000  Uiso   1.00
Zn341  Zn    0.50000   0.75000   0.30307   0.00000  Uiso   1.00
Zn342  Zn    0.50000   0.74999   0.19693   0.00000  Uiso   1.00
O343   O     0.65484   0.73006   0.18761   0.00000  Uiso   1.00
C344   C     0.65773   0.68304   0.18634   0.00000  Uiso   1.00
H345   H     0.64126   0.66752   0.21682   0.00000  Uiso   1.00
H346   H     0.36546   0.67193   0.18725   0.00000  Uiso   1.00
C347   C     0.62614   0.66663   0.14027   0.00000  Uiso   1.00
H348   H     0.64155   0.68141   0.10904   0.00000  Uiso   1.00
H349   H     0.62860   0.62971   0.13855   0.00000  Uiso   1.00
H350   H     0.58468   0.67635   0.13892   0.00000  Uiso   1.00
O351   O     0.34523   0.76940   0.31254   0.00000  Uiso   1.00
C352   C     0.34224   0.81641   0.31417   0.00000  Uiso   1.00
H353   H     0.63466   0.82732   0.31465   0.00000  Uiso   1.00
H354   H     0.35736   0.83223   0.28312   0.00000  Uiso   1.00
C355   C     0.37541   0.83267   0.35950   0.00000  Uiso   1.00
H356   H     0.41667   0.82289   0.35952   0.00000  Uiso   1.00
H357   H     0.37310   0.86959   0.36144   0.00000  Uiso   1.00
H358   H     0.36123   0.81782   0.39129   0.00000  Uiso   1.00
F359   F     0.46274   0.61130   0.32209   0.00000  Uiso   1.00
F360   F     0.46625   0.88869   0.16703   0.00000  Uiso   1.00
C361   C     0.83361   0.66382   0.25023   0.00000  Uiso   1.00
C362   C     0.83367   0.83620   0.24985   0.00000  Uiso   1.00
C363   C     0.79085   0.73275   0.04713   0.00000  Uiso   1.00
C364   C     0.85930   0.78345   0.45056   0.00000  Uiso   1.00
C365   C     0.79183   0.73288   0.09691   0.00000  Uiso   1.00
C366   C     0.85910   0.78268   0.40090   0.00000  Uiso   1.00
C367   C     0.87474   0.76713   0.10756   0.00000  Uiso   1.00
C368   C     0.80731   0.71747   0.39449   0.00000  Uiso   1.00
C369   C     0.87562   0.76719   0.05805   0.00000  Uiso   1.00
C370   C     0.80689   0.71676   0.44408   0.00000  Uiso   1.00
C371   C     0.83319   0.75000   0.02665   0.00000  Uiso   1.00
C372   C     0.83311   0.75008   0.47326   0.00000  Uiso   1.00
C373   C     0.73393   0.74950   0.23779   0.00000  Uiso   1.00
C374   C     0.93274   0.75040   0.26222   0.00000  Uiso   1.00
C375   C     0.67951   0.74460   0.23170   0.00000  Uiso   1.00
C376   C     0.98718   0.75508   0.26838   0.00000  Uiso   1.00
C377   C     0.82377   0.54536   0.28843   0.00000  Uiso   1.00
C378   C     0.82557   0.95466   0.20881   0.00000  Uiso   1.00
C379   C     0.81929   0.59127   0.28784   0.00000  Uiso   1.00
C380   C     0.82112   0.90874   0.20807   0.00000  Uiso   1.00
C381   C     0.83719   0.61590   0.25114   0.00000  Uiso   1.00
C382   C     0.83734   0.88415   0.24995   0.00000  Uiso   1.00
C383   C     0.86009   0.59450   0.21562   0.00000  Uiso   1.00
C384   C     0.85862   0.90562   0.29209   0.00000  Uiso   1.00
C385   C     0.86469   0.54861   0.21644   0.00000  Uiso   1.00
C386   C     0.86316   0.95153   0.29263   0.00000  Uiso   1.00
C387   C     0.84613   0.52408   0.25261   0.00000  Uiso   1.00
C388   C     0.84621   0.97600   0.25110   0.00000  Uiso   1.00
H389   H     0.80839   0.52632   0.31594   0.00000  Uiso   1.00
H390   H     0.81146   0.97366   0.17684   0.00000  Uiso   1.00
H391   H     0.87472   0.61323   0.18750   0.00000  Uiso   1.00
H392   H     0.87202   0.88696   0.32447   0.00000  Uiso   1.00
H393   H     0.88223   0.53219   0.18877   0.00000  Uiso   1.00
H394   H     0.87939   0.96801   0.32539   0.00000  Uiso   1.00
H395   H     0.75671   0.71978   0.02499   0.00000  Uiso   1.00
H396   H     0.87932   0.81043   0.47076   0.00000  Uiso   1.00
H397   H     0.75912   0.71941   0.11207   0.00000  Uiso   1.00
H398   H     0.87944   0.80844   0.38398   0.00000  Uiso   1.00
H399   H     0.90748   0.78067   0.13110   0.00000  Uiso   1.00
H400   H     0.78689   0.69180   0.37253   0.00000  Uiso   1.00
H401   H     0.90973   0.78015   0.04472   0.00000  Uiso   1.00
H402   H     0.78676   0.68982   0.45933   0.00000  Uiso   1.00
N403   N     0.83333   0.74999   0.12623   0.00000  Uiso   1.00
N404   N     0.83333   0.75001   0.37376   0.00000  Uiso   1.00
O405   O     0.83334   0.68453   0.28974   0.00000  Uiso   1.00
O406   O     0.83333   0.81546   0.21026   0.00000  Uiso   1.00
O407   O     0.83334   0.68453   0.21026   0.00000  Uiso   1.00
O408   O     0.83333   0.81547   0.28974   0.00000  Uiso   1.00
O409   O     0.75725   0.75000   0.28044   0.00000  Uiso   1.00
O410   O     0.90942   0.75000   0.21955   0.00000  Uiso   1.00
O411   O     0.75725   0.74999   0.20096   0.00000  Uiso   1.00
O412   O     0.90942   0.75000   0.29903   0.00000  Uiso   1.00
Zn413  Zn    0.83333   0.75000   0.30307   0.00000  Uiso   1.00
Zn414  Zn    0.83333   0.74999   0.19693   0.00000  Uiso   1.00
O415   O     0.98817   0.73006   0.18761   0.00000  Uiso   1.00
C416   C     0.99106   0.68304   0.18634   0.00000  Uiso   1.00
H417   H     0.97460   0.66752   0.21682   0.00000  Uiso   1.00
H418   H     0.69879   0.67193   0.18725   0.00000  Uiso   1.00
C419   C     0.95948   0.66663   0.14027   0.00000  Uiso   1.00
H420   H     0.97488   0.68141   0.10904   0.00000  Uiso   1.00
H421   H     0.96193   0.62971   0.13855   0.00000  Uiso   1.00
H422   H     0.91801   0.67635   0.13892   0.00000  Uiso   1.00
O423   O     0.67856   0.76940   0.31254   0.00000  Uiso   1.00
C424   C     0.67558   0.81641   0.31417   0.00000  Uiso   1.00
H425   H     0.96799   0.82732   0.31465   0.00000  Uiso   1.00
H426   H     0.69069   0.83223   0.28312   0.00000  Uiso   1.00
C427   C     0.70874   0.83267   0.35950   0.00000  Uiso   1.00
H428   H     0.75001   0.82289   0.35952   0.00000  Uiso   1.00
H429   H     0.70643   0.86959   0.36144   0.00000  Uiso   1.00
H430   H     0.69456   0.81782   0.39129   0.00000  Uiso   1.00
F431   F     0.79608   0.61130   0.32209   0.00000  Uiso   1.00
F432   F     0.79958   0.88869   0.16703   0.00000  Uiso   1.00
C433   C     0.16694   0.16382   0.75023   0.00000  Uiso   1.00
C434   C     0.16701   0.33620   0.74985   0.00000  Uiso   1.00
C435   C     0.12418   0.23275   0.54713   0.00000  Uiso   1.00
C436   C     0.19264   0.28345   0.95056   0.00000  Uiso   1.00
C437   C     0.12517   0.23288   0.59691   0.00000  Uiso   1.00
C438   C     0.19243   0.28268   0.90090   0.00000  Uiso   1.00
C439   C     0.20808   0.26713   0.60756   0.00000  Uiso   1.00
C440   C     0.14064   0.21747   0.89449   0.00000  Uiso   1.00
C441   C     0.20895   0.26719   0.55805   0.00000  Uiso   1.00
C442   C     0.14023   0.21676   0.94408   0.00000  Uiso   1.00
C443   C     0.16652   0.25000   0.52665   0.00000  Uiso   1.00
C444   C     0.16644   0.25008   0.97326   0.00000  Uiso   1.00
C445   C     0.06726   0.24950   0.73779   0.00000  Uiso   1.00
C446   C     0.26607   0.25040   0.76222   0.00000  Uiso   1.00
C447   C     0.01284   0.24460   0.73170   0.00000  Uiso   1.00
C448   C     0.32051   0.25508   0.76838   0.00000  Uiso   1.00
C449   C     0.15710   0.04536   0.78843   0.00000  Uiso   1.00
C450   C     0.15890   0.45466   0.70881   0.00000  Uiso   1.00
C451   C     0.15262   0.09127   0.78784   0.00000  Uiso   1.00
C452   C     0.15445   0.40874   0.70807   0.00000  Uiso   1.00
C453   C     0.17052   0.11590   0.75114   0.00000  Uiso   1.00
C454   C     0.17067   0.38415   0.74995   0.00000  Uiso   1.00
C455   C     0.19343   0.09450   0.71562   0.00000  Uiso   1.00
C456   C     0.19196   0.40562   0.79209   0.00000  Uiso   1.00
C457   C     0.19803   0.04861   0.71644   0.00000  Uiso   1.00
C458   C     0.19650   0.45153   0.79263   0.00000  Uiso   1.00
C459   C     0.17946   0.02408   0.75261   0.00000  Uiso   1.00
C460   C     0.17955   0.47600   0.75110   0.00000  Uiso   1.00
H461   H     0.14173   0.02632   0.81594   0.00000  Uiso   1.00
H462   H     0.14479   0.47366   0.67684   0.00000  Uiso   1.00
H463   H     0.20805   0.11323   0.68750   0.00000  Uiso   1.00
H464   H     0.20535   0.38696   0.82447   0.00000  Uiso   1.00
H465   H     0.21557   0.03219   0.68877   0.00000  Uiso   1.00
H466   H     0.21273   0.46801   0.82539   0.00000  Uiso   1.00
H467   H     0.09004   0.21978   0.52499   0.00000  Uiso   1.00
H468   H     0.21265   0.31043   0.97076   0.00000  Uiso   1.00
H469   H     0.09245   0.21941   0.61207   0.00000  Uiso   1.00
H470   H     0.21278   0.30844   0.88398   0.00000  Uiso   1.00
H471   H     0.24081   0.28067   0.63110   0.00000  Uiso   1.00
H472   H     0.12022   0.19180   0.87253   0.00000  Uiso   1.00
H473   H     0.24306   0.28015   0.54472   0.00000  Uiso   1.00
H474   H     0.12009   0.18982   0.95933   0.00000  Uiso   1.00
N475   N     0.16667   0.24999   0.62623   0.00000  Uiso   1.00
N476   N     0.16667   0.25001   0.87376   0.00000  Uiso   1.00
O477   O     0.16667   0.18453   0.78974   0.00000  Uiso   1.00
O478   O     0.16666   0.31546   0.71026   0.00000  Uiso   1.00
O479   O     0.16667   0.18453   0.71026   0.00000  Uiso   1.00
O480   O     0.16666   0.31547   0.78974   0.00000  Uiso   1.00
O481   O     0.09058   0.25000   0.78044   0.00000  Uiso   1.00
O482   O     0.24275   0.25000   0.71955   0.00000  Uiso   1.00
O483   O     0.09058   0.24999   0.70096   0.00000  Uiso   1.00
O484   O     0.24275   0.25000   0.79903   0.00000  Uiso   1.00
Zn485  Zn    0.16667   0.25000   0.80307   0.00000  Uiso   1.00
Zn486  Zn    0.16667   0.24999   0.69693   0.00000  Uiso   1.00
O487   O     0.32151   0.23006   0.68761   0.00000  Uiso   1.00
C488   C     0.32439   0.18304   0.68634   0.00000  Uiso   1.00
H489   H     0.30793   0.16752   0.71682   0.00000  Uiso   1.00
H490   H     0.03213   0.17193   0.68725   0.00000  Uiso   1.00
C491   C     0.29281   0.16663   0.64027   0.00000  Uiso   1.00
H492   H     0.30822   0.18141   0.60904   0.00000  Uiso   1.00
H493   H     0.29526   0.12971   0.63855   0.00000  Uiso   1.00
H494   H     0.25134   0.17635   0.63892   0.00000  Uiso   1.00
O495   O     0.01189   0.26940   0.81254   0.00000  Uiso   1.00
C496   C     0.00891   0.31641   0.81417   0.00000  Uiso   1.00
H497   H     0.30133   0.32732   0.81465   0.00000  Uiso   1.00
H498   H     0.02402   0.33223   0.78312   0.00000  Uiso   1.00
C499   C     0.04208   0.33267   0.85950   0.00000  Uiso   1.00
H500   H     0.08334   0.32289   0.85952   0.00000  Uiso   1.00
H501   H     0.03977   0.36959   0.86144   0.00000  Uiso   1.00
H502   H     0.02789   0.31782   0.89129   0.00000  Uiso   1.00
F503   F     0.12941   0.11130   0.82209   0.00000  Uiso   1.00
F504   F     0.13291   0.38869   0.66703   0.00000  Uiso   1.00
C505   C     0.50028   0.16382   0.75023   0.00000  Uiso   1.00
C506   C     0.50034   0.33620   0.74985   0.00000  Uiso   1.00
C507   C     0.45752   0.23275   0.54713   0.00000  Uiso   1.00
C508   C     0.52597   0.28345   0.95056   0.00000  Uiso   1.00
C509   C     0.45850   0.23288   0.59691   0.00000  Uiso   1.00
C510   C     0.52576   0.28268   0.90090   0.00000  Uiso   1.00
C511   C     0.54141   0.26713   0.60756   0.00000  Uiso   1.00
C512   C     0.47398   0.21747   0.89449   0.00000  Uiso   1.00
C513   C     0.54229   0.26719   0.55805   0.00000  Uiso   1.00
C514   C     0.47356   0.21676   0.94408   0.00000  Uiso   1.00
C515   C     0.49986   0.25000   0.52665   0.00000  Uiso   1.00
C516   C     0.49978   0.25008   0.97326   0.00000  Uiso   1.00
C517   C     0.40059   0.24950   0.73779   0.00000  Uiso   1.00
C518   C     0.59940   0.25040   0.76222   0.00000  Uiso   1.00
C519   C     0.34617   0.24460   0.73170   0.00000  Uiso   1.00
C520   C     0.65384   0.25508   0.76838   0.00000  Uiso   1.00
C521   C     0.49044   0.04536   0.78843   0.00000  Uiso   1.00
C522   C     0.49224   0.45466   0.70881   0.00000  Uiso   1.00
C523   C     0.48596   0.09127   0.78784   0.00000  Uiso   1.00
C524   C     0.48778   0.40874   0.70807   0.00000  Uiso   1.00
C525   C     0.50386   0.11590   0.75114   0.00000  Uiso   1.00
C526   C     0.50401   0.38415   0.74995   0.00000  Uiso   1.00
C527   C     0.52676   0.09450   0.71562   0.00000  Uiso   1.00
C528   C     0.52529   0.40562   0.79209   0.00000  Uiso   1.00
C529   C     0.53136   0.04861   0.71644   0.00000  Uiso   1.00
C530   C     0.52983   0.45153   0.79263   0.00000  Uiso   1.00
C531   C     0.51280   0.02408   0.75261   0.00000  Uiso   1.00
C532   C     0.51288   0.47600   0.75110   0.00000  Uiso   1.00
H533   H     0.47506   0.02632   0.81594   0.00000  Uiso   1.00
H534   H     0.47813   0.47366   0.67684   0.00000  Uiso   1.00
H535   H     0.54138   0.11323   0.68750   0.00000  Uiso   1.00
H536   H     0.53869   0.38696   0.82447   0.00000  Uiso   1.00
H537   H     0.54890   0.03219   0.68877   0.00000  Uiso   1.00
H538   H     0.54606   0.46801   0.82539   0.00000  Uiso   1.00
H539   H     0.42337   0.21978   0.52499   0.00000  Uiso   1.00
H540   H     0.54599   0.31043   0.97076   0.00000  Uiso   1.00
H541   H     0.42578   0.21941   0.61207   0.00000  Uiso   1.00
H542   H     0.54611   0.30844   0.88398   0.00000  Uiso   1.00
H543   H     0.57415   0.28067   0.63110   0.00000  Uiso   1.00
H544   H     0.45356   0.19180   0.87253   0.00000  Uiso   1.00
H545   H     0.57639   0.28015   0.54472   0.00000  Uiso   1.00
H546   H     0.45342   0.18982   0.95933   0.00000  Uiso   1.00
N547   N     0.50000   0.24999   0.62623   0.00000  Uiso   1.00
N548   N     0.50000   0.25001   0.87376   0.00000  Uiso   1.00
O549   O     0.50000   0.18453   0.78974   0.00000  Uiso   1.00
O550   O     0.50000   0.31546   0.71026   0.00000  Uiso   1.00
O551   O     0.50000   0.18453   0.71026   0.00000  Uiso   1.00
O552   O     0.50000   0.31547   0.78974   0.00000  Uiso   1.00
O553   O     0.42392   0.25000   0.78044   0.00000  Uiso   1.00
O554   O     0.57608   0.25000   0.71955   0.00000  Uiso   1.00
O555   O     0.42392   0.24999   0.70096   0.00000  Uiso   1.00
O556   O     0.57608   0.25000   0.79903   0.00000  Uiso   1.00
Zn557  Zn    0.50000   0.25000   0.80307   0.00000  Uiso   1.00
Zn558  Zn    0.50000   0.24999   0.69693   0.00000  Uiso   1.00
O559   O     0.65484   0.23006   0.68761   0.00000  Uiso   1.00
C560   C     0.65773   0.18304   0.68634   0.00000  Uiso   1.00
H561   H     0.64126   0.16752   0.71682   0.00000  Uiso   1.00
H562   H     0.36546   0.17193   0.68725   0.00000  Uiso   1.00
C563   C     0.62614   0.16663   0.64027   0.00000  Uiso   1.00
H564   H     0.64155   0.18141   0.60904   0.00000  Uiso   1.00
H565   H     0.62860   0.12971   0.63855   0.00000  Uiso   1.00
H566   H     0.58468   0.17635   0.63892   0.00000  Uiso   1.00
O567   O     0.34523   0.26940   0.81254   0.00000  Uiso   1.00
C568   C     0.34224   0.31641   0.81417   0.00000  Uiso   1.00
H569   H     0.63466   0.32732   0.81465   0.00000  Uiso   1.00
H570   H     0.35736   0.33223   0.78312   0.00000  Uiso   1.00
C571   C     0.37541   0.33267   0.85950   0.00000  Uiso   1.00
H572   H     0.41667   0.32289   0.85952   0.00000  Uiso   1.00
H573   H     0.37310   0.36959   0.86144   0.00000  Uiso   1.00
H574   H     0.36123   0.31782   0.89129   0.00000  Uiso   1.00
F575   F     0.46274   0.11130   0.82209   0.00000  Uiso   1.00
F576   F     0.46625   0.38869   0.66703   0.00000  Uiso   1.00
C577   C     0.83361   0.16382   0.75023   0.00000  Uiso   1.00
C578   C     0.83367   0.33620   0.74985   0.00000  Uiso   1.00
C579   C     0.79085   0.23275   0.54713   0.00000  Uiso   1.00
C580   C     0.85930   0.28345   0.95056   0.00000  Uiso   1.00
C581   C     0.79183   0.23288   0.59691   0.00000  Uiso   1.00
C582   C     0.85910   0.28268   0.90090   0.00000  Uiso   1.00
C583   C     0.87474   0.26713   0.60756   0.00000  Uiso   1.00
C584   C     0.80731   0.21747   0.89449   0.00000  Uiso   1.00
C585   C     0.87562   0.26719   0.55805   0.00000  Uiso   1.00
C586   C     0.80689   0.21676   0.94408   0.00000  Uiso   1.00
C587   C     0.83319   0.25000   0.52665   0.00000  Uiso   1.00
C588   C     0.83311   0.25008   0.97326   0.00000  Uiso   1.00
C589   C     0.73393   0.24950   0.73779   0.00000  Uiso   1.00
C590   C     0.93274   0.25040   0.76222   0.00000  Uiso   1.00
C591   C     0.67951   0.24460   0.73170   0.00000  Uiso   1.00
C592   C     0.98718   0.25508   0.76838   0.00000  Uiso   1.00
C593   C     0.82377   0.04536   0.78843   0.00000  Uiso   1.00
C594   C     0.82557   0.45466   0.70881   0.00000  Uiso   1.00
C595   C     0.81929   0.09127   0.78784   0.00000  Uiso   1.00
C596   C     0.82112   0.40874   0.70807   0.00000  Uiso   1.00
C597   C     0.83719   0.11590   0.75114   0.00000  Uiso   1.00
C598   C     0.83734   0.38415   0.74995   0.00000  Uiso   1.00
C599   C     0.86009   0.09450   0.71562   0.00000  Uiso   1.00
C600   C     0.85862   0.40562   0.79209   0.00000  Uiso   1.00
C601   C     0.86469   0.04861   0.71644   0.00000  Uiso   1.00
C602   C     0.86316   0.45153   0.79263   0.00000  Uiso   1.00
C603   C     0.84613   0.02408   0.75261   0.00000  Uiso   1.00
C604   C     0.84621   0.47600   0.75110   0.00000  Uiso   1.00
H605   H     0.80839   0.02632   0.81594   0.00000  Uiso   1.00
H606   H     0.81146   0.47366   0.67684   0.00000  Uiso   1.00
H607   H     0.87472   0.11323   0.68750   0.00000  Uiso   1.00
H608   H     0.87202   0.38696   0.82447   0.00000  Uiso   1.00
H609   H     0.88223   0.03219   0.68877   0.00000  Uiso   1.00
H610   H     0.87939   0.46801   0.82539   0.00000  Uiso   1.00
H611   H     0.75671   0.21978   0.52499   0.00000  Uiso   1.00
H612   H     0.87932   0.31043   0.97076   0.00000  Uiso   1.00
H613   H     0.75912   0.21941   0.61207   0.00000  Uiso   1.00
H614   H     0.87944   0.30844   0.88398   0.00000  Uiso   1.00
H615   H     0.90748   0.28067   0.63110   0.00000  Uiso   1.00
H616   H     0.78689   0.19180   0.87253   0.00000  Uiso   1.00
H617   H     0.90973   0.28015   0.54472   0.00000  Uiso   1.00
H618   H     0.78676   0.18982   0.95933   0.00000  Uiso   1.00
N619   N     0.83333   0.24999   0.62623   0.00000  Uiso   1.00
N620   N     0.83333   0.25001   0.87376   0.00000  Uiso   1.00
O621   O     0.83334   0.18453   0.78974   0.00000  Uiso   1.00
O622   O     0.83333   0.31546   0.71026   0.00000  Uiso   1.00
O623   O     0.83334   0.18453   0.71026   0.00000  Uiso   1.00
O624   O     0.83333   0.31547   0.78974   0.00000  Uiso   1.00
O625   O     0.75725   0.25000   0.78044   0.00000  Uiso   1.00
O626   O     0.90942   0.25000   0.71955   0.00000  Uiso   1.00
O627   O     0.75725   0.24999   0.70096   0.00000  Uiso   1.00
O628   O     0.90942   0.25000   0.79903   0.00000  Uiso   1.00
Zn629  Zn    0.83333   0.25000   0.80307   0.00000  Uiso   1.00
Zn630  Zn    0.83333   0.24999   0.69693   0.00000  Uiso   1.00
O631   O     0.98817   0.23006   0.68761   0.00000  Uiso   1.00
C632   C     0.99106   0.18304   0.68634   0.00000  Uiso   1.00
H633   H     0.97460   0.16752   0.71682   0.00000  Uiso   1.00
H634   H     0.69879   0.17193   0.68725   0.00000  Uiso   1.00
C635   C     0.95948   0.16663   0.64027   0.00000  Uiso   1.00
H636   H     0.97488   0.18141   0.60904   0.00000  Uiso   1.00
H637   H     0.96193   0.12971   0.63855   0.00000  Uiso   1.00
H638   H     0.91801   0.17635   0.63892   0.00000  Uiso   1.00
O639   O     0.67856   0.26940   0.81254   0.00000  Uiso   1.00
C640   C     0.67558   0.31641   0.81417   0.00000  Uiso   1.00
H641   H     0.96799   0.32732   0.81465   0.00000  Uiso   1.00
H642   H     0.69069   0.33223   0.78312   0.00000  Uiso   1.00
C643   C     0.70874   0.33267   0.85950   0.00000  Uiso   1.00
H644   H     0.75001   0.32289   0.85952   0.00000  Uiso   1.00
H645   H     0.70643   0.36959   0.86144   0.00000  Uiso   1.00
H646   H     0.69456   0.31782   0.89129   0.00000  Uiso   1.00
F647   F     0.79608   0.11130   0.82209   0.00000  Uiso   1.00
F648   F     0.79958   0.38869   0.66703   0.00000  Uiso   1.00
C649   C     0.16694   0.66382   0.75023   0.00000  Uiso   1.00
C650   C     0.16701   0.83620   0.74985   0.00000  Uiso   1.00
C651   C     0.12418   0.73275   0.54713   0.00000  Uiso   1.00
C652   C     0.19264   0.78345   0.95056   0.00000  Uiso   1.00
C653   C     0.12517   0.73288   0.59691   0.00000  Uiso   1.00
C654   C     0.19243   0.78268   0.90090   0.00000  Uiso   1.00
C655   C     0.20808   0.76713   0.60756   0.00000  Uiso   1.00
C656   C     0.14064   0.71747   0.89449   0.00000  Uiso   1.00
C657   C     0.20895   0.76719   0.55805   0.00000  Uiso   1.00
C658   C     0.14023   0.71676   0.94408   0.00000  Uiso   1.00
C659   C     0.16652   0.75000   0.52665   0.00000  Uiso   1.00
C660   C     0.16644   0.75008   0.97326   0.00000  Uiso   1.00
C661   C     0.06726   0.74950   0.73779   0.00000  Uiso   1.00
C662   C     0.26607   0.75040   0.76222   0.00000  Uiso   1.00
C663   C     0.01284   0.74460   0.73170   0.00000  Uiso   1.00
C664   C     0.32051   0.75508   0.76838   0.00000  Uiso   1.00
C665   C     0.15710   0.54536   0.78843   0.00000  Uiso   1.00
C666   C     0.15890   0.95466   0.70881   0.00000  Uiso   1.00
C667   C     0.15262   0.59127   0.78784   0.00000  Uiso   1.00
C668   C     0.15445   0.90874   0.70807   0.00000  Uiso   1.00
C669   C     0.17052   0.61590   0.75114   0.00000  Uiso   1.00
C670   C     0.17067   0.88415   0.74995   0.00000  Uiso   1.00
C671   C     0.19343   0.59450   0.71562   0.00000  Uiso   1.00
C672   C     0.19196   0.90562   0.79209   0.00000  Uiso   1.00
C673   C     0.19803   0.54861   0.71644   0.00000  Uiso   1.00
C674   C     0.19650   0.95153   0.79263   0.00000  Uiso   1.00
C675   C     0.17946   0.52408   0.75261   0.00000  Uiso   1.00
C676   C     0.17955   0.97600   0.75110   0.00000  Uiso   1.00
H677   H     0.14173   0.52632   0.81594   0.00000  Uiso   1.00
H678   H     0.14479   0.97366   0.67684   0.00000  Uiso   1.00
H679   H     0.20805   0.61323   0.68750   0.00000  Uiso   1.00
H680   H     0.20535   0.88696   0.82447   0.00000  Uiso   1.00
H681   H     0.21557   0.53219   0.68877   0.00000  Uiso   1.00
H682   H     0.21273   0.96801   0.82539   0.00000  Uiso   1.00
H683   H     0.09004   0.71978   0.52499   0.00000  Uiso   1.00
H684   H     0.21265   0.81043   0.97076   0.00000  Uiso   1.00
H685   H     0.09245   0.71941   0.61207   0.00000  Uiso   1.00
H686   H     0.21278   0.80844   0.88398   0.00000  Uiso   1.00
H687   H     0.24081   0.78067   0.63110   0.00000  Uiso   1.00
H688   H     0.12022   0.69180   0.87253   0.00000  Uiso   1.00
H689   H     0.24306   0.78015   0.54472   0.00000  Uiso   1.00
H690   H     0.12009   0.68982   0.95933   0.00000  Uiso   1.00
N691   N     0.16667   0.74999   0.62623   0.00000  Uiso   1.00
N692   N     0.16667   0.75001   0.87376   0.00000  Uiso   1.00
O693   O     0.16667   0.68453   0.78974   0.00000  Uiso   1.00
O694   O     0.16666   0.81546   0.71026   0.00000  Uiso   1.00
O695   O     0.16667   0.68453   0.71026   0.00000  Uiso   1.00
O696   O     0.16666   0.81547   0.78974   0.00000  Uiso   1.00
O697   O     0.09058   0.75000   0.78044   0.00000  Uiso   1.00
O698   O     0.24275   0.75000   0.71955   0.00000  Uiso   1.00
O699   O     0.09058   0.74999   0.70096   0.00000  Uiso   1.00
O700   O     0.24275   0.75000   0.79903   0.00000  Uiso   1.00
Zn701  Zn    0.16667   0.75000   0.80307   0.00000  Uiso   1.00
Zn702  Zn    0.16667   0.74999   0.69693   0.00000  Uiso   1.00
O703   O     0.32151   0.73006   0.68761   0.00000  Uiso   1.00
C704   C     0.32439   0.68304   0.68634   0.00000  Uiso   1.00
H705   H     0.30793   0.66752   0.71682   0.00000  Uiso   1.00
H706   H     0.03213   0.67193   0.68725   0.00000  Uiso   1.00
C707   C     0.29281   0.66663   0.64027   0.00000  Uiso   1.00
H708   H     0.30822   0.68141   0.60904   0.00000  Uiso   1.00
H709   H     0.29526   0.62971   0.63855   0.00000  Uiso   1.00
H710   H     0.25134   0.67635   0.63892   0.00000  Uiso   1.00
O711   O     0.01189   0.76940   0.81254   0.00000  Uiso   1.00
C712   C     0.00891   0.81641   0.81417   0.00000  Uiso   1.00
H713   H     0.30133   0.82732   0.81465   0.00000  Uiso   1.00
H714   H     0.02402   0.83223   0.78312   0.00000  Uiso   1.00
C715   C     0.04208   0.83267   0.85950   0.00000  Uiso   1.00
H716   H     0.08334   0.82289   0.85952   0.00000  Uiso   1.00
H717   H     0.03977   0.86959   0.86144   0.00000  Uiso   1.00
H718   H     0.02789   0.81782   0.89129   0.00000  Uiso   1.00
F719   F     0.12941   0.61130   0.82209   0.00000  Uiso   1.00
F720   F     0.13291   0.88869   0.66703   0.00000  Uiso   1.00
C721   C     0.50028   0.66382   0.75023   0.00000  Uiso   1.00
C722   C     0.50034   0.83620   0.74985   0.00000  Uiso   1.00
C723   C     0.45752   0.73275   0.54713   0.00000  Uiso   1.00
C724   C     0.52597   0.78345   0.95056   0.00000  Uiso   1.00
C725   C     0.45850   0.73288   0.59691   0.00000  Uiso   1.00
C726   C     0.52576   0.78268   0.90090   0.00000  Uiso   1.00
C727   C     0.54141   0.76713   0.60756   0.00000  Uiso   1.00
C728   C     0.47398   0.71747   0.89449   0.00000  Uiso   1.00
C729   C     0.54229   0.76719   0.55805   0.00000  Uiso   1.00
C730   C     0.47356   0.71676   0.94408   0.00000  Uiso   1.00
C731   C     0.49986   0.75000   0.52665   0.00000  Uiso   1.00
C732   C     0.49978   0.75008   0.97326   0.00000  Uiso   1.00
C733   C     0.40059   0.74950   0.73779   0.00000  Uiso   1.00
C734   C     0.59940   0.75040   0.76222   0.00000  Uiso   1.00
C735   C     0.34617   0.74460   0.73170   0.00000  Uiso   1.00
C736   C     0.65384   0.75508   0.76838   0.00000  Uiso   1.00
C737   C     0.49044   0.54536   0.78843   0.00000  Uiso   1.00
C738   C     0.49224   0.95466   0.70881   0.00000  Uiso   1.00
C739   C     0.48596   0.59127   0.78784   0.00000  Uiso   1.00
C740   C     0.48778   0.90874   0.70807   0.00000  Uiso   1.00
C741   C     0.50386   0.61590   0.75114   0.00000  Uiso   1.00
C742   C     0.50401   0.88415   0.74995   0.00000  Uiso   1.00
C743   C     0.52676   0.59450   0.71562   0.00000  Uiso   1.00
C744   C     0.52529   0.90562   0.79209   0.00000  Uiso   1.00
C745   C     0.53136   0.54861   0.71644   0.00000  Uiso   1.00
C746   C     0.52983   0.95153   0.79263   0.00000  Uiso   1.00
C747   C     0.51280   0.52408   0.75261   0.00000  Uiso   1.00
C748   C     0.51288   0.97600   0.75110   0.00000  Uiso   1.00
H749   H     0.47506   0.52632   0.81594   0.00000  Uiso   1.00
H750   H     0.47813   0.97366   0.67684   0.00000  Uiso   1.00
H751   H     0.54138   0.61323   0.68750   0.00000  Uiso   1.00
H752   H     0.53869   0.88696   0.82447   0.00000  Uiso   1.00
H753   H     0.54890   0.53219   0.68877   0.00000  Uiso   1.00
H754   H     0.54606   0.96801   0.82539   0.00000  Uiso   1.00
H755   H     0.42337   0.71978   0.52499   0.00000  Uiso   1.00
H756   H     0.54599   0.81043   0.97076   0.00000  Uiso   1.00
H757   H     0.42578   0.71941   0.61207   0.00000  Uiso   1.00
H758   H     0.54611   0.80844   0.88398   0.00000  Uiso   1.00
H759   H     0.57415   0.78067   0.63110   0.00000  Uiso   1.00
H760   H     0.45356   0.69180   0.87253   0.00000  Uiso   1.00
H761   H     0.57639   0.78015   0.54472   0.00000  Uiso   1.00
H762   H     0.45342   0.68982   0.95933   0.00000  Uiso   1.00
N763   N     0.50000   0.74999   0.62623   0.00000  Uiso   1.00
N764   N     0.50000   0.75001   0.87376   0.00000  Uiso   1.00
O765   O     0.50000   0.68453   0.78974   0.00000  Uiso   1.00
O766   O     0.50000   0.81546   0.71026   0.00000  Uiso   1.00
O767   O     0.50000   0.68453   0.71026   0.00000  Uiso   1.00
O768   O     0.50000   0.81547   0.78974   0.00000  Uiso   1.00
O769   O     0.42392   0.75000   0.78044   0.00000  Uiso   1.00
O770   O     0.57608   0.75000   0.71955   0.00000  Uiso   1.00
O771   O     0.42392   0.74999   0.70096   0.00000  Uiso   1.00
O772   O     0.57608   0.75000   0.79903   0.00000  Uiso   1.00
Zn773  Zn    0.50000   0.75000   0.80307   0.00000  Uiso   1.00
Zn774  Zn    0.50000   0.74999   0.69693   0.00000  Uiso   1.00
O775   O     0.65484   0.73006   0.68761   0.00000  Uiso   1.00
C776   C     0.65773   0.68304   0.68634   0.00000  Uiso   1.00
H777   H     0.64126   0.66752   0.71682   0.00000  Uiso   1.00
H778   H     0.36546   0.67193   0.68725   0.00000  Uiso   1.00
C779   C     0.62614   0.66663   0.64027   0.00000  Uiso   1.00
H780   H     0.64155   0.68141   0.60904   0.00000  Uiso   1.00
H781   H     0.62860   0.62971   0.63855   0.00000  Uiso   1.00
H782   H     0.58468   0.67635   0.63892   0.00000  Uiso   1.00
O783   O     0.34523   0.76940   0.81254   0.00000  Uiso   1.00
C784   C     0.34224   0.81641   0.81417   0.00000  Uiso   1.00
H785   H     0.63466   0.82732   0.81465   0.00000  Uiso   1.00
H786   H     0.35736   0.83223   0.78312   0.00000  Uiso   1.00
C787   C     0.37541   0.83267   0.85950   0.00000  Uiso   1.00
H788   H     0.41667   0.82289   0.85952   0.00000  Uiso   1.00
H789   H     0.37310   0.86959   0.86144   0.00000  Uiso   1.00
H790   H     0.36123   0.81782   0.89129   0.00000  Uiso   1.00
F791   F     0.46274   0.61130   0.82209   0.00000  Uiso   1.00
F792   F     0.46625   0.88869   0.66703   0.00000  Uiso   1.00
C793   C     0.83361   0.66382   0.75023   0.00000  Uiso   1.00
C794   C     0.83367   0.83620   0.74985   0.00000  Uiso   1.00
C795   C     0.79085   0.73275   0.54713   0.00000  Uiso   1.00
C796   C     0.85930   0.78345   0.95056   0.00000  Uiso   1.00
C797   C     0.79183   0.73288   0.59691   0.00000  Uiso   1.00
C798   C     0.85910   0.78268   0.90090   0.00000  Uiso   1.00
C799   C     0.87474   0.76713   0.60756   0.00000  Uiso   1.00
C800   C     0.80731   0.71747   0.89449   0.00000  Uiso   1.00
C801   C     0.87562   0.76719   0.55805   0.00000  Uiso   1.00
C802   C     0.80689   0.71676   0.94408   0.00000  Uiso   1.00
C803   C     0.83319   0.75000   0.52665   0.00000  Uiso   1.00
C804   C     0.83311   0.75008   0.97326   0.00000  Uiso   1.00
C805   C     0.73393   0.74950   0.73779   0.00000  Uiso   1.00
C806   C     0.93274   0.75040   0.76222   0.00000  Uiso   1.00
C807   C     0.67951   0.74460   0.73170   0.00000  Uiso   1.00
C808   C     0.98718   0.75508   0.76838   0.00000  Uiso   1.00
C809   C     0.82377   0.54536   0.78843   0.00000  Uiso   1.00
C810   C     0.82557   0.95466   0.70881   0.00000  Uiso   1.00
C811   C     0.81929   0.59127   0.78784   0.00000  Uiso   1.00
C812   C     0.82112   0.90874   0.70807   0.00000  Uiso   1.00
C813   C     0.83719   0.61590   0.75114   0.00000  Uiso   1.00
C814   C     0.83734   0.88415   0.74995   0.00000  Uiso   1.00
C815   C     0.86009   0.59450   0.71562   0.00000  Uiso   1.00
C816   C     0.85862   0.90562   0.79209   0.00000  Uiso   1.00
C817   C     0.86469   0.54861   0.71644   0.00000  Uiso   1.00
C818   C     0.86316   0.95153   0.79263   0.00000  Uiso   1.00
C819   C     0.84613   0.52408   0.75261   0.00000  Uiso   1.00
C820   C     0.84621   0.97600   0.75110   0.00000  Uiso   1.00
H821   H     0.80839   0.52632   0.81594   0.00000  Uiso   1.00
H822   H     0.81146   0.97366   0.67684   0.00000  Uiso   1.00
H823   H     0.87472   0.61323   0.68750   0.00000  Uiso   1.00
H824   H     0.87202   0.88696   0.82447   0.00000  Uiso   1.00
H825   H     0.88223   0.53219   0.68877   0.00000  Uiso   1.00
H826   H     0.87939   0.96801   0.82539   0.00000  Uiso   1.00
H827   H     0.75671   0.71978   0.52499   0.00000  Uiso   1.00
H828   H     0.87932   0.81043   0.97076   0.00000  Uiso   1.00
H829   H     0.75912   0.71941   0.61207   0.00000  Uiso   1.00
H830   H     0.87944   0.80844   0.88398   0.00000  Uiso   1.00
H831   H     0.90748   0.78067   0.63110   0.00000  Uiso   1.00
H832   H     0.78689   0.69180   0.87253   0.00000  Uiso   1.00
H833   H     0.90973   0.78015   0.54472   0.00000  Uiso   1.00
H834   H     0.78676   0.68982   0.95933   0.00000  Uiso   1.00
N835   N     0.83333   0.74999   0.62623   0.00000  Uiso   1.00
N836   N     0.83333   0.75001   0.87376   0.00000  Uiso   1.00
O837   O     0.83334   0.68453   0.78974   0.00000  Uiso   1.00
O838   O     0.83333   0.81546   0.71026   0.00000  Uiso   1.00
O839   O     0.83334   0.68453   0.71026   0.00000  Uiso   1.00
O840   O     0.83333   0.81547   0.78974   0.00000  Uiso   1.00
O841   O     0.75725   0.75000   0.78044   0.00000  Uiso   1.00
O842   O     0.90942   0.75000   0.71955   0.00000  Uiso   1.00
O843   O     0.75725   0.74999   0.70096   0.00000  Uiso   1.00
O844   O     0.90942   0.75000   0.79903   0.00000  Uiso   1.00
Zn845  Zn    0.83333   0.75000   0.80307   0.00000  Uiso   1.00
Zn846  Zn    0.83333   0.74999   0.69693   0.00000  Uiso   1.00
O847   O     0.98817   0.73006   0.68761   0.00000  Uiso   1.00
C848   C     0.99106   0.68304   0.68634   0.00000  Uiso   1.00
H849   H     0.97460   0.66752   0.71682   0.00000  Uiso   1.00
H850   H     0.69879   0.67193   0.68725   0.00000  Uiso   1.00
C851   C     0.95948   0.66663   0.64027   0.00000  Uiso   1.00
H852   H     0.97488   0.68141   0.60904   0.00000  Uiso   1.00
H853   H     0.96193   0.62971   0.63855   0.00000  Uiso   1.00
H854   H     0.91801   0.67635   0.63892   0.00000  Uiso   1.00
O855   O     0.67856   0.76940   0.81254   0.00000  Uiso   1.00
C856   C     0.67558   0.81641   0.81417   0.00000  Uiso   1.00
H857   H     0.96799   0.82732   0.81465   0.00000  Uiso   1.00
H858   H     0.69069   0.83223   0.78312   0.00000  Uiso   1.00
C859   C     0.70874   0.83267   0.85950   0.00000  Uiso   1.00
H860   H     0.75001   0.82289   0.85952   0.00000  Uiso   1.00
H861   H     0.70643   0.86959   0.86144   0.00000  Uiso   1.00
H862   H     0.69456   0.81782   0.89129   0.00000  Uiso   1.00
F863   F     0.79608   0.61130   0.82209   0.00000  Uiso   1.00
F864   F     0.79958   0.88869   0.66703   0.00000  Uiso   1.00
loop_
_geom_bond_atom_site_label_1
_geom_bond_atom_site_label_2
_geom_bond_distance
_geom_bond_site_symmetry_2
_ccdc_geom_bond_type
C1     C21     1.439   .     S
C1     O45     1.285   .     A
C1     O47     1.286   .     A
C2     C22     1.440   .     S
C2     O46     1.285   .     A
C2     O48     1.286   .     A
C3     H35     1.082   .     S
C3     C11     1.410   .     A
C3     C5      1.406   .     A
C4     H36     1.082   .     S
C4     C12     1.411   .     A
C4     C6      1.406   .     A
C5     H37     1.082   .     S
C5     N43     1.363   .     A
C6     H38     1.082   .     S
C6     N44     1.362   .     A
C7     C9      1.405   .     A
C7     H39     1.081   .     S
C7     N43     1.363   .     A
C8     C10     1.406   .     A
C8     N44     1.362   .     A
C8     H40     1.081   .     S
C9     H41     1.082   .     S
C9     C11     1.410   .     A
C10    H42     1.082   .     S
C10    C12     1.410   .     A
C11    C444    1.512   1_554 S
C12    C443    1.512   .     S
C13    O49     1.270   .     A
C13    C15     1.405   .     S
C13    O51     1.280   .     A
C14    O52     1.279   .     A
C14    O50     1.270   .     A
C14    C16     1.405   .     S
C15    C160    1.352   1_455 S
C15    O199    1.390   1_455 S
C16    C87     1.352   .     S
C16    O135    1.390   .     S
C17    H29     1.084   .     S
C17    C19     1.381   .     A
C17    C27     1.398   .     A
C18    C28     1.398   .     A
C18    H30     1.084   .     S
C18    C20     1.381   .     A
C19    C21     1.403   .     A
C19    F71     1.358   .     S
C20    F72     1.358   .     S
C20    C22     1.403   .     A
C21    C23     1.400   .     A
C22    C24     1.401   .     A
C23    C25     1.381   .     A
C23    H31     1.083   .     S
C24    H32     1.084   .     S
C24    C26     1.381   .     A
C25    C27     1.397   .     A
C25    H33     1.084   .     S
C26    C28     1.397   .     A
C26    H34     1.084   .     S
C27    C244    1.442   1_545 S
C28    C243    1.442   .     S
N43    Zn54    2.002   .     S
N44    Zn53    2.002   .     S
O45    Zn53    2.001   .     S
O46    Zn54    2.001   .     S
O47    Zn54    1.995   .     S
O48    Zn53    1.995   .     S
O49    Zn53    1.985   .     S
O50    Zn54    1.985   .     S
O51    Zn54    1.994   .     S
O52    Zn53    1.994   .     S
O55    C56     1.412   .     S
O55    C87     1.390   .     S
C56    C59     1.521   .     S
C56    H57     1.115   .     S
C56    H130    1.114   .     S
H58    C200    1.114   1_455 S
C59    H60     1.111   .     S
C59    H61     1.110   .     S
C59    H62     1.111   .     S
O63    C64     1.413   .     S
O63    C160    1.390   1_455 S
C64    H66     1.116   .     S
C64    C67     1.521   .     S
C64    H209    1.114   1_455 S
H65    C136    1.114   .     S
C67    H69     1.110   .     S
C67    H70     1.111   .     S
C67    H68     1.111   .     S
C73    C93     1.439   .     S
C73    O117    1.285   .     A
C73    O119    1.286   .     A
C74    C94     1.440   .     S
C74    O118    1.285   .     A
C74    O120    1.286   .     A
C75    H107    1.082   .     S
C75    C83     1.410   .     A
C75    C77     1.406   .     A
C76    H108    1.082   .     S
C76    C84     1.411   .     A
C76    C78     1.406   .     A
C77    H109    1.082   .     S
C77    N115    1.363   .     A
C78    H110    1.082   .     S
C78    N116    1.362   .     A
C79    C81     1.405   .     A
C79    H111    1.081   .     S
C79    N115    1.363   .     A
C80    C82     1.406   .     A
C80    N116    1.362   .     A
C80    H112    1.081   .     S
C81    H113    1.082   .     S
C81    C83     1.410   .     A
C82    H114    1.082   .     S
C82    C84     1.410   .     A
C83    C516    1.512   1_554 S
C84    C515    1.512   .     S
C85    O121    1.270   .     A
C85    C87     1.405   .     S
C85    O123    1.280   .     A
C86    O124    1.279   .     A
C86    O122    1.270   .     A
C86    C88     1.405   .     S
C88    C159    1.352   .     S
C88    O207    1.390   .     S
C89    H101    1.084   .     S
C89    C91     1.381   .     A
C89    C99     1.398   .     A
C90    C100    1.398   .     A
C90    H102    1.084   .     S
C90    C92     1.381   .     A
C91    C93     1.403   .     A
C91    F143    1.358   .     S
C92    F144    1.358   .     S
C92    C94     1.403   .     A
C93    C95     1.400   .     A
C94    C96     1.401   .     A
C95    C97     1.381   .     A
C95    H103    1.083   .     S
C96    H104    1.084   .     S
C96    C98     1.381   .     A
C97    C99     1.397   .     A
C97    H105    1.084   .     S
C98    C100    1.397   .     A
C98    H106    1.084   .     S
C99    C316    1.442   1_545 S
C100   C315    1.442   .     S
N115   Zn126   2.002   .     S
N116   Zn125   2.002   .     S
O117   Zn125   2.001   .     S
O118   Zn126   2.001   .     S
O119   Zn126   1.995   .     S
O120   Zn125   1.995   .     S
O121   Zn125   1.985   .     S
O122   Zn126   1.985   .     S
O123   Zn126   1.994   .     S
O124   Zn125   1.994   .     S
O127   C128    1.412   .     S
O127   C159    1.390   .     S
C128   C131    1.521   .     S
C128   H129    1.115   .     S
C128   H202    1.114   .     S
C131   H132    1.111   .     S
C131   H133    1.110   .     S
C131   H134    1.111   .     S
O135   C136    1.413   .     S
C136   H138    1.116   .     S
C136   C139    1.521   .     S
H137   C208    1.114   .     S
C139   H141    1.110   .     S
C139   H142    1.111   .     S
C139   H140    1.111   .     S
C145   C165    1.439   .     S
C145   O189    1.285   .     A
C145   O191    1.286   .     A
C146   C166    1.440   .     S
C146   O190    1.285   .     A
C146   O192    1.286   .     A
C147   H179    1.082   .     S
C147   C155    1.410   .     A
C147   C149    1.406   .     A
C148   H180    1.082   .     S
C148   C156    1.411   .     A
C148   C150    1.406   .     A
C149   H181    1.082   .     S
C149   N187    1.363   .     A
C150   H182    1.082   .     S
C150   N188    1.362   .     A
C151   C153    1.405   .     A
C151   H183    1.081   .     S
C151   N187    1.363   .     A
C152   C154    1.406   .     A
C152   N188    1.362   .     A
C152   H184    1.081   .     S
C153   H185    1.082   .     S
C153   C155    1.410   .     A
C154   H186    1.082   .     S
C154   C156    1.410   .     A
C155   C588    1.512   1_554 S
C156   C587    1.512   .     S
C157   O193    1.270   .     A
C157   C159    1.405   .     S
C157   O195    1.280   .     A
C158   O196    1.279   .     A
C158   O194    1.270   .     A
C158   C160    1.405   .     S
C160   C15     1.352   1_655 S
C160   O63     1.390   1_655 S
C161   H173    1.084   .     S
C161   C163    1.381   .     A
C161   C171    1.398   .     A
C162   C172    1.398   .     A
C162   H174    1.084   .     S
C162   C164    1.381   .     A
C163   C165    1.403   .     A
C163   F215    1.358   .     S
C164   F216    1.358   .     S
C164   C166    1.403   .     A
C165   C167    1.400   .     A
C166   C168    1.401   .     A
C167   C169    1.381   .     A
C167   H175    1.083   .     S
C168   H176    1.084   .     S
C168   C170    1.381   .     A
C169   C171    1.397   .     A
C169   H177    1.084   .     S
C170   C172    1.397   .     A
C170   H178    1.084   .     S
C171   C388    1.442   1_545 S
C172   C387    1.442   .     S
N187   Zn198   2.002   .     S
N188   Zn197   2.002   .     S
O189   Zn197   2.001   .     S
O190   Zn198   2.001   .     S
O191   Zn198   1.995   .     S
O192   Zn197   1.995   .     S
O193   Zn197   1.985   .     S
O194   Zn198   1.985   .     S
O195   Zn198   1.994   .     S
O196   Zn197   1.994   .     S
O199   C200    1.412   .     S
O199   C15     1.390   1_655 S
C200   C203    1.521   .     S
C200   H201    1.115   .     S
C200   H58     1.114   1_655 S
C203   H204    1.111   .     S
C203   H205    1.110   .     S
C203   H206    1.111   .     S
O207   C208    1.413   .     S
C208   H210    1.116   .     S
C208   C211    1.521   .     S
H209   C64     1.114   1_655 S
C211   H213    1.110   .     S
C211   H214    1.111   .     S
C211   H212    1.111   .     S
C217   C237    1.439   .     S
C217   O261    1.285   .     A
C217   O263    1.286   .     A
C218   C238    1.440   .     S
C218   O262    1.285   .     A
C218   O264    1.286   .     A
C219   H251    1.082   .     S
C219   C227    1.410   .     A
C219   C221    1.406   .     A
C220   H252    1.082   .     S
C220   C228    1.411   .     A
C220   C222    1.406   .     A
C221   H253    1.082   .     S
C221   N259    1.363   .     A
C222   H254    1.082   .     S
C222   N260    1.362   .     A
C223   C225    1.405   .     A
C223   H255    1.081   .     S
C223   N259    1.363   .     A
C224   C226    1.406   .     A
C224   N260    1.362   .     A
C224   H256    1.081   .     S
C225   H257    1.082   .     S
C225   C227    1.410   .     A
C226   H258    1.082   .     S
C226   C228    1.410   .     A
C227   C660    1.512   1_554 S
C228   C659    1.512   .     S
C229   O265    1.270   .     A
C229   C231    1.405   .     S
C229   O267    1.280   .     A
C230   O268    1.279   .     A
C230   O266    1.270   .     A
C230   C232    1.405   .     S
C231   C376    1.352   1_455 S
C231   O415    1.390   1_455 S
C232   C303    1.352   .     S
C232   O351    1.390   .     S
C233   H245    1.084   .     S
C233   C235    1.381   .     A
C233   C243    1.398   .     A
C234   C244    1.398   .     A
C234   H246    1.084   .     S
C234   C236    1.381   .     A
C235   C237    1.403   .     A
C235   F287    1.358   .     S
C236   F288    1.358   .     S
C236   C238    1.403   .     A
C237   C239    1.400   .     A
C238   C240    1.401   .     A
C239   C241    1.381   .     A
C239   H247    1.083   .     S
C240   H248    1.084   .     S
C240   C242    1.381   .     A
C241   C243    1.397   .     A
C241   H249    1.084   .     S
C242   C244    1.397   .     A
C242   H250    1.084   .     S
C244   C27     1.442   1_565 S
N259   Zn270   2.002   .     S
N260   Zn269   2.002   .     S
O261   Zn269   2.001   .     S
O262   Zn270   2.001   .     S
O263   Zn270   1.995   .     S
O264   Zn269   1.995   .     S
O265   Zn269   1.985   .     S
O266   Zn270   1.985   .     S
O267   Zn270   1.994   .     S
O268   Zn269   1.994   .     S
O271   C272    1.412   .     S
O271   C303    1.390   .     S
C272   C275    1.521   .     S
C272   H273    1.115   .     S
C272   H346    1.114   .     S
H274   C416    1.114   1_455 S
C275   H276    1.111   .     S
C275   H277    1.110   .     S
C275   H278    1.111   .     S
O279   C280    1.413   .     S
O279   C376    1.390   1_455 S
C280   H282    1.116   .     S
C280   C283    1.521   .     S
C280   H425    1.114   1_455 S
H281   C352    1.114   .     S
C283   H285    1.110   .     S
C283   H286    1.111   .     S
C283   H284    1.111   .     S
C289   C309    1.439   .     S
C289   O333    1.285   .     A
C289   O335    1.286   .     A
C290   C310    1.440   .     S
C290   O334    1.285   .     A
C290   O336    1.286   .     A
C291   H323    1.082   .     S
C291   C299    1.410   .     A
C291   C293    1.406   .     A
C292   H324    1.082   .     S
C292   C300    1.411   .     A
C292   C294    1.406   .     A
C293   H325    1.082   .     S
C293   N331    1.363   .     A
C294   H326    1.082   .     S
C294   N332    1.362   .     A
C295   C297    1.405   .     A
C295   H327    1.081   .     S
C295   N331    1.363   .     A
C296   C298    1.406   .     A
C296   N332    1.362   .     A
C296   H328    1.081   .     S
C297   H329    1.082   .     S
C297   C299    1.410   .     A
C298   H330    1.082   .     S
C298   C300    1.410   .     A
C299   C732    1.512   1_554 S
C300   C731    1.512   .     S
C301   O337    1.270   .     A
C301   C303    1.405   .     S
C301   O339    1.280   .     A
C302   O340    1.279   .     A
C302   O338    1.270   .     A
C302   C304    1.405   .     S
C304   C375    1.352   .     S
C304   O423    1.390   .     S
C305   H317    1.084   .     S
C305   C307    1.381   .     A
C305   C315    1.398   .     A
C306   C316    1.398   .     A
C306   H318    1.084   .     S
C306   C308    1.381   .     A
C307   C309    1.403   .     A
C307   F359    1.358   .     S
C308   F360    1.358   .     S
C308   C310    1.403   .     A
C309   C311    1.400   .     A
C310   C312    1.401   .     A
C311   C313    1.381   .     A
C311   H319    1.083   .     S
C312   H320    1.084   .     S
C312   C314    1.381   .     A
C313   C315    1.397   .     A
C313   H321    1.084   .     S
C314   C316    1.397   .     A
C314   H322    1.084   .     S
C316   C99     1.442   1_565 S
N331   Zn342   2.002   .     S
N332   Zn341   2.002   .     S
O333   Zn341   2.001   .     S
O334   Zn342   2.001   .     S
O335   Zn342   1.995   .     S
O336   Zn341   1.995   .     S
O337   Zn341   1.985   .     S
O338   Zn342   1.985   .     S
O339   Zn342   1.994   .     S
O340   Zn341   1.994   .     S
O343   C344    1.412   .     S
O343   C375    1.390   .     S
C344   C347    1.521   .     S
C344   H345    1.115   .     S
C344   H418    1.114   .     S
C347   H348    1.111   .     S
C347   H349    1.110   .     S
C347   H350    1.111   .     S
O351   C352    1.413   .     S
C352   H354    1.116   .     S
C352   C355    1.521   .     S
H353   C424    1.114   .     S
C355   H357    1.110   .     S
C355   H358    1.111   .     S
C355   H356    1.111   .     S
C361   C381    1.439   .     S
C361   O405    1.285   .     A
C361   O407    1.286   .     A
C362   C382    1.440   .     S
C362   O406    1.285   .     A
C362   O408    1.286   .     A
C363   H395    1.082   .     S
C363   C371    1.410   .     A
C363   C365    1.406   .     A
C364   H396    1.082   .     S
C364   C372    1.411   .     A
C364   C366    1.406   .     A
C365   H397    1.082   .     S
C365   N403    1.363   .     A
C366   H398    1.082   .     S
C366   N404    1.362   .     A
C367   C369    1.405   .     A
C367   H399    1.081   .     S
C367   N403    1.363   .     A
C368   C370    1.406   .     A
C368   N404    1.362   .     A
C368   H400    1.081   .     S
C369   H401    1.082   .     S
C369   C371    1.410   .     A
C370   H402    1.082   .     S
C370   C372    1.410   .     A
C371   C804    1.512   1_554 S
C372   C803    1.512   .     S
C373   O409    1.270   .     A
C373   C375    1.405   .     S
C373   O411    1.280   .     A
C374   O412    1.279   .     A
C374   O410    1.270   .     A
C374   C376    1.405   .     S
C376   C231    1.352   1_655 S
C376   O279    1.390   1_655 S
C377   H389    1.084   .     S
C377   C379    1.381   .     A
C377   C387    1.398   .     A
C378   C388    1.398   .     A
C378   H390    1.084   .     S
C378   C380    1.381   .     A
C379   C381    1.403   .     A
C379   F431    1.358   .     S
C380   F432    1.358   .     S
C380   C382    1.403   .     A
C381   C383    1.400   .     A
C382   C384    1.401   .     A
C383   C385    1.381   .     A
C383   H391    1.083   .     S
C384   H392    1.084   .     S
C384   C386    1.381   .     A
C385   C387    1.397   .     A
C385   H393    1.084   .     S
C386   C388    1.397   .     A
C386   H394    1.084   .     S
C388   C171    1.442   1_565 S
N403   Zn414   2.002   .     S
N404   Zn413   2.002   .     S
O405   Zn413   2.001   .     S
O406   Zn414   2.001   .     S
O407   Zn414   1.995   .     S
O408   Zn413   1.995   .     S
O409   Zn413   1.985   .     S
O410   Zn414   1.985   .     S
O411   Zn414   1.994   .     S
O412   Zn413   1.994   .     S
O415   C416    1.412   .     S
O415   C231    1.390   1_655 S
C416   C419    1.521   .     S
C416   H417    1.115   .     S
C416   H274    1.114   1_655 S
C419   H420    1.111   .     S
C419   H421    1.110   .     S
C419   H422    1.111   .     S
O423   C424    1.413   .     S
C424   H426    1.116   .     S
C424   C427    1.521   .     S
H425   C280    1.114   1_655 S
C427   H429    1.110   .     S
C427   H430    1.111   .     S
C427   H428    1.111   .     S
C433   C453    1.439   .     S
C433   O477    1.285   .     A
C433   O479    1.286   .     A
C434   C454    1.440   .     S
C434   O478    1.285   .     A
C434   O480    1.286   .     A
C435   H467    1.082   .     S
C435   C443    1.410   .     A
C435   C437    1.406   .     A
C436   H468    1.082   .     S
C436   C444    1.411   .     A
C436   C438    1.406   .     A
C437   H469    1.082   .     S
C437   N475    1.363   .     A
C438   H470    1.082   .     S
C438   N476    1.362   .     A
C439   C441    1.405   .     A
C439   H471    1.081   .     S
C439   N475    1.363   .     A
C440   C442    1.406   .     A
C440   N476    1.362   .     A
C440   H472    1.081   .     S
C441   H473    1.082   .     S
C441   C443    1.410   .     A
C442   H474    1.082   .     S
C442   C444    1.410   .     A
C444   C11     1.512   1_556 S
C445   O481    1.270   .     A
C445   C447    1.405   .     S
C445   O483    1.280   .     A
C446   O484    1.279   .     A
C446   O482    1.270   .     A
C446   C448    1.405   .     S
C447   C592    1.352   1_455 S
C447   O631    1.390   1_455 S
C448   C519    1.352   .     S
C448   O567    1.390   .     S
C449   H461    1.084   .     S
C449   C451    1.381   .     A
C449   C459    1.398   .     A
C450   C460    1.398   .     A
C450   H462    1.084   .     S
C450   C452    1.381   .     A
C451   C453    1.403   .     A
C451   F503    1.358   .     S
C452   F504    1.358   .     S
C452   C454    1.403   .     A
C453   C455    1.400   .     A
C454   C456    1.401   .     A
C455   C457    1.381   .     A
C455   H463    1.083   .     S
C456   H464    1.084   .     S
C456   C458    1.381   .     A
C457   C459    1.397   .     A
C457   H465    1.084   .     S
C458   C460    1.397   .     A
C458   H466    1.084   .     S
C459   C676    1.442   1_545 S
C460   C675    1.442   .     S
N475   Zn486   2.002   .     S
N476   Zn485   2.002   .     S
O477   Zn485   2.001   .     S
O478   Zn486   2.001   .     S
O479   Zn486   1.995   .     S
O480   Zn485   1.995   .     S
O481   Zn485   1.985   .     S
O482   Zn486   1.985   .     S
O483   Zn486   1.994   .     S
O484   Zn485   1.994   .     S
O487   C488    1.412   .     S
O487   C519    1.390   .     S
C488   C491    1.521   .     S
C488   H489    1.115   .     S
C488   H562    1.114   .     S
H490   C632    1.114   1_455 S
C491   H492    1.111   .     S
C491   H493    1.110   .     S
C491   H494    1.111   .     S
O495   C496    1.413   .     S
O495   C592    1.390   1_455 S
C496   H498    1.116   .     S
C496   C499    1.521   .     S
C496   H641    1.114   1_455 S
H497   C568    1.114   .     S
C499   H501    1.110   .     S
C499   H502    1.111   .     S
C499   H500    1.111   .     S
C505   C525    1.439   .     S
C505   O549    1.285   .     A
C505   O551    1.286   .     A
C506   C526    1.440   .     S
C506   O550    1.285   .     A
C506   O552    1.286   .     A
C507   H539    1.082   .     S
C507   C515    1.410   .     A
C507   C509    1.406   .     A
C508   H540    1.082   .     S
C508   C516    1.411   .     A
C508   C510    1.406   .     A
C509   H541    1.082   .     S
C509   N547    1.363   .     A
C510   H542    1.082   .     S
C510   N548    1.362   .     A
C511   C513    1.405   .     A
C511   H543    1.081   .     S
C511   N547    1.363   .     A
C512   C514    1.406   .     A
C512   N548    1.362   .     A
C512   H544    1.081   .     S
C513   H545    1.082   .     S
C513   C515    1.410   .     A
C514   H546    1.082   .     S
C514   C516    1.410   .     A
C516   C83     1.512   1_556 S
C517   O553    1.270   .     A
C517   C519    1.405   .     S
C517   O555    1.280   .     A
C518   O556    1.279   .     A
C518   O554    1.270   .     A
C518   C520    1.405   .     S
C520   C591    1.352   .     S
C520   O639    1.390   .     S
C521   H533    1.084   .     S
C521   C523    1.381   .     A
C521   C531    1.398   .     A
C522   C532    1.398   .     A
C522   H534    1.084   .     S
C522   C524    1.381   .     A
C523   C525    1.403   .     A
C523   F575    1.358   .     S
C524   F576    1.358   .     S
C524   C526    1.403   .     A
C525   C527    1.400   .     A
C526   C528    1.401   .     A
C527   C529    1.381   .     A
C527   H535    1.083   .     S
C528   H536    1.084   .     S
C528   C530    1.381   .     A
C529   C531    1.397   .     A
C529   H537    1.084   .     S
C530   C532    1.397   .     A
C530   H538    1.084   .     S
C531   C748    1.442   1_545 S
C532   C747    1.442   .     S
N547   Zn558   2.002   .     S
N548   Zn557   2.002   .     S
O549   Zn557   2.001   .     S
O550   Zn558   2.001   .     S
O551   Zn558   1.995   .     S
O552   Zn557   1.995   .     S
O553   Zn557   1.985   .     S
O554   Zn558   1.985   .     S
O555   Zn558   1.994   .     S
O556   Zn557   1.994   .     S
O559   C560    1.412   .     S
O559   C591    1.390   .     S
C560   C563    1.521   .     S
C560   H561    1.115   .     S
C560   H634    1.114   .     S
C563   H564    1.111   .     S
C563   H565    1.110   .     S
C563   H566    1.111   .     S
O567   C568    1.413   .     S
C568   H570    1.116   .     S
C568   C571    1.521   .     S
H569   C640    1.114   .     S
C571   H573    1.110   .     S
C571   H574    1.111   .     S
C571   H572    1.111   .     S
C577   C597    1.439   .     S
C577   O621    1.285   .     A
C577   O623    1.286   .     A
C578   C598    1.440   .     S
C578   O622    1.285   .     A
C578   O624    1.286   .     A
C579   H611    1.082   .     S
C579   C587    1.410   .     A
C579   C581    1.406   .     A
C580   H612    1.082   .     S
C580   C588    1.411   .     A
C580   C582    1.406   .     A
C581   H613    1.082   .     S
C581   N619    1.363   .     A
C582   H614    1.082   .     S
C582   N620    1.362   .     A
C583   C585    1.405   .     A
C583   H615    1.081   .     S
C583   N619    1.363   .     A
C584   C586    1.406   .     A
C584   N620    1.362   .     A
C584   H616    1.081   .     S
C585   H617    1.082   .     S
C585   C587    1.410   .     A
C586   H618    1.082   .     S
C586   C588    1.410   .     A
C588   C155    1.512   1_556 S
C589   O625    1.270   .     A
C589   C591    1.405   .     S
C589   O627    1.280   .     A
C590   O628    1.279   .     A
C590   O626    1.270   .     A
C590   C592    1.405   .     S
C592   C447    1.352   1_655 S
C592   O495    1.390   1_655 S
C593   H605    1.084   .     S
C593   C595    1.381   .     A
C593   C603    1.398   .     A
C594   C604    1.398   .     A
C594   H606    1.084   .     S
C594   C596    1.381   .     A
C595   C597    1.403   .     A
C595   F647    1.358   .     S
C596   F648    1.358   .     S
C596   C598    1.403   .     A
C597   C599    1.400   .     A
C598   C600    1.401   .     A
C599   C601    1.381   .     A
C599   H607    1.083   .     S
C600   H608    1.084   .     S
C600   C602    1.381   .     A
C601   C603    1.397   .     A
C601   H609    1.084   .     S
C602   C604    1.397   .     A
C602   H610    1.084   .     S
C603   C820    1.442   1_545 S
C604   C819    1.442   .     S
N619   Zn630   2.002   .     S
N620   Zn629   2.002   .     S
O621   Zn629   2.001   .     S
O622   Zn630   2.001   .     S
O623   Zn630   1.995   .     S
O624   Zn629   1.995   .     S
O625   Zn629   1.985   .     S
O626   Zn630   1.985   .     S
O627   Zn630   1.994   .     S
O628   Zn629   1.994   .     S
O631   C632    1.412   .     S
O631   C447    1.390   1_655 S
C632   C635    1.521   .     S
C632   H633    1.115   .     S
C632   H490    1.114   1_655 S
C635   H636    1.111   .     S
C635   H637    1.110   .     S
C635   H638    1.111   .     S
O639   C640    1.413   .     S
C640   H642    1.116   .     S
C640   C643    1.521   .     S
H641   C496    1.114   1_655 S
C643   H645    1.110   .     S
C643   H646    1.111   .     S
C643   H644    1.111   .     S
C649   C669    1.439   .     S
C649   O693    1.285   .     A
C649   O695    1.286   .     A
C650   C670    1.440   .     S
C650   O694    1.285   .     A
C650   O696    1.286   .     A
C651   H683    1.082   .     S
C651   C659    1.410   .     A
C651   C653    1.406   .     A
C652   H684    1.082   .     S
C652   C660    1.411   .     A
C652   C654    1.406   .     A
C653   H685    1.082   .     S
C653   N691    1.363   .     A
C654   H686    1.082   .     S
C654   N692    1.362   .     A
C655   C657    1.405   .     A
C655   H687    1.081   .     S
C655   N691    1.363   .     A
C656   C658    1.406   .     A
C656   N692    1.362   .     A
C656   H688    1.081   .     S
C657   H689    1.082   .     S
C657   C659    1.410   .     A
C658   H690    1.082   .     S
C658   C660    1.410   .     A
C660   C227    1.512   1_556 S
C661   O697    1.270   .     A
C661   C663    1.405   .     S
C661   O699    1.280   .     A
C662   O700    1.279   .     A
C662   O698    1.270   .     A
C662   C664    1.405   .     S
C663   C808    1.352   1_455 S
C663   O847    1.390   1_455 S
C664   C735    1.352   .     S
C664   O783    1.390   .     S
C665   H677    1.084   .     S
C665   C667    1.381   .     A
C665   C675    1.398   .     A
C666   C676    1.398   .     A
C666   H678    1.084   .     S
C666   C668    1.381   .     A
C667   C669    1.403   .     A
C667   F719    1.358   .     S
C668   F720    1.358   .     S
C668   C670    1.403   .     A
C669   C671    1.400   .     A
C670   C672    1.401   .     A
C671   C673    1.381   .     A
C671   H679    1.083   .     S
C672   H680    1.084   .     S
C672   C674    1.381   .     A
C673   C675    1.397   .     A
C673   H681    1.084   .     S
C674   C676    1.397   .     A
C674   H682    1.084   .     S
C676   C459    1.442   1_565 S
N691   Zn702   2.002   .     S
N692   Zn701   2.002   .     S
O693   Zn701   2.001   .     S
O694   Zn702   2.001   .     S
O695   Zn702   1.995   .     S
O696   Zn701   1.995   .     S
O697   Zn701   1.985   .     S
O698   Zn702   1.985   .     S
O699   Zn702   1.994   .     S
O700   Zn701   1.994   .     S
O703   C704    1.412   .     S
O703   C735    1.390   .     S
C704   C707    1.521   .     S
C704   H705    1.115   .     S
C704   H778    1.114   .     S
H706   C848    1.114   1_455 S
C707   H708    1.111   .     S
C707   H709    1.110   .     S
C707   H710    1.111   .     S
O711   C712    1.413   .     S
O711   C808    1.390   1_455 S
C712   H714    1.116   .     S
C712   C715    1.521   .     S
C712   H857    1.114   1_455 S
H713   C784    1.114   .     S
C715   H717    1.110   .     S
C715   H718    1.111   .     S
C715   H716    1.111   .     S
C721   C741    1.439   .     S
C721   O765    1.285   .     A
C721   O767    1.286   .     A
C722   C742    1.440   .     S
C722   O766    1.285   .     A
C722   O768    1.286   .     A
C723   H755    1.082   .     S
C723   C731    1.410   .     A
C723   C725    1.406   .     A
C724   H756    1.082   .     S
C724   C732    1.411   .     A
C724   C726    1.406   .     A
C725   H757    1.082   .     S
C725   N763    1.363   .     A
C726   H758    1.082   .     S
C726   N764    1.362   .     A
C727   C729    1.405   .     A
C727   H759    1.081   .     S
C727   N763    1.363   .     A
C728   C730    1.406   .     A
C728   N764    1.362   .     A
C728   H760    1.081   .     S
C729   H761    1.082   .     S
C729   C731    1.410   .     A
C730   H762    1.082   .     S
C730   C732    1.410   .     A
C732   C299    1.512   1_556 S
C733   O769    1.270   .     A
C733   C735    1.405   .     S
C733   O771    1.280   .     A
C734   O772    1.279   .     A
C734   O770    1.270   .     A
C734   C736    1.405   .     S
C736   C807    1.352   .     S
C736   O855    1.390   .     S
C737   H749    1.084   .     S
C737   C739    1.381   .     A
C737   C747    1.398   .     A
C738   C748    1.398   .     A
C738   H750    1.084   .     S
C738   C740    1.381   .     A
C739   C741    1.403   .     A
C739   F791    1.358   .     S
C740   F792    1.358   .     S
C740   C742    1.403   .     A
C741   C743    1.400   .     A
C742   C744    1.401   .     A
C743   C745    1.381   .     A
C743   H751    1.083   .     S
C744   H752    1.084   .     S
C744   C746    1.381   .     A
C745   C747    1.397   .     A
C745   H753    1.084   .     S
C746   C748    1.397   .     A
C746   H754    1.084   .     S
C748   C531    1.442   1_565 S
N763   Zn774   2.002   .     S
N764   Zn773   2.002   .     S
O765   Zn773   2.001   .     S
O766   Zn774   2.001   .     S
O767   Zn774   1.995   .     S
O768   Zn773   1.995   .     S
O769   Zn773   1.985   .     S
O770   Zn774   1.985   .     S
O771   Zn774   1.994   .     S
O772   Zn773   1.994   .     S
O775   C776    1.412   .     S
O775   C807    1.390   .     S
C776   C779    1.521   .     S
C776   H777    1.115   .     S
C776   H850    1.114   .     S
C779   H780    1.111   .     S
C779   H781    1.110   .     S
C779   H782    1.111   .     S
O783   C784    1.413   .     S
C784   H786    1.116   .     S
C784   C787    1.521   .     S
H785   C856    1.114   .     S
C787   H789    1.110   .     S
C787   H790    1.111   .     S
C787   H788    1.111   .     S
C793   C813    1.439   .     S
C793   O837    1.285   .     A
C793   O839    1.286   .     A
C794   C814    1.440   .     S
C794   O838    1.285   .     A
C794   O840    1.286   .     A
C795   H827    1.082   .     S
C795   C803    1.410   .     A
C795   C797    1.406   .     A
C796   H828    1.082   .     S
C796   C804    1.411   .     A
C796   C798    1.406   .     A
C797   H829    1.082   .     S
C797   N835    1.363   .     A
C798   H830    1.082   .     S
C798   N836    1.362   .     A
C799   C801    1.405   .     A
C799   H831    1.081   .     S
C799   N835    1.363   .     A
C800   C802    1.406   .     A
C800   N836    1.362   .     A
C800   H832    1.081   .     S
C801   H833    1.082   .     S
C801   C803    1.410   .     A
C802   H834    1.082   .     S
C802   C804    1.410   .     A
C804   C371    1.512   1_556 S
C805   O841    1.270   .     A
C805   C807    1.405   .     S
C805   O843    1.280   .     A
C806   O844    1.279   .     A
C806   O842    1.270   .     A
C806   C808    1.405   .     S
C808   C663    1.352   1_655 S
C808   O711    1.390   1_655 S
C809   H821    1.084   .     S
C809   C811    1.381   .     A
C809   C819    1.398   .     A
C810   C820    1.398   .     A
C810   H822    1.084   .     S
C810   C812    1.381   .     A
C811   C813    1.403   .     A
C811   F863    1.358   .     S
C812   F864    1.358   .     S
C812   C814    1.403   .     A
C813   C815    1.400   .     A
C814   C816    1.401   .     A
C815   C817    1.381   .     A
C815   H823    1.083   .     S
C816   H824    1.084   .     S
C816   C818    1.381   .     A
C817   C819    1.397   .     A
C817   H825    1.084   .     S
C818   C820    1.397   .     A
C818   H826    1.084   .     S
C820   C603    1.442   1_565 S
N835   Zn846   2.002   .     S
N836   Zn845   2.002   .     S
O837   Zn845   2.001   .     S
O838   Zn846   2.001   .     S
O839   Zn846   1.995   .     S
O840   Zn845   1.995   .     S
O841   Zn845   1.985   .     S
O842   Zn846   1.985   .     S
O843   Zn846   1.994   .     S
O844   Zn845   1.994   .     S
O847   C848    1.412   .     S
O847   C663    1.390   1_655 S
C848   C851    1.521   .     S
C848   H849    1.115   .     S
C848   H706    1.114   1_655 S
C851   H852    1.111   .     S
C851   H853    1.110   .     S
C851   H854    1.111   .     S
O855   C856    1.413   .     S
C856   H858    1.116   .     S
C856   C859    1.521   .     S
H857   C712    1.114   1_655 S
C859   H861    1.110   .     S
C859   H862    1.111   .     S
C859   H860    1.111   .     S
