data_str_m3_o1_o18_pcu_sym.233
_audit_creation_date              2020-01-03
_audit_creation_method            'Materials Studio'
_symmetry_space_group_name_H-M    'P1'
_symmetry_Int_Tables_number       1
_symmetry_cell_setting            triclinic
loop_
_symmetry_equiv_pos_as_xyz
  x,y,z
_cell_length_a                    29.5942
_cell_length_b                    32.0634
_cell_length_c                    30.7280
_cell_angle_alpha                 90.0040
_cell_angle_beta                  68.0250
_cell_angle_gamma                 89.9684
loop_
_atom_site_label
_atom_site_type_symbol
_atom_site_fract_x
_atom_site_fract_y
_atom_site_fract_z
_atom_site_U_iso_or_equiv
_atom_site_adp_type
_atom_site_occupancy
C1     C     0.16670   0.24667   0.24990   0.00000  Uiso   1.00
C2     C     0.16659   0.08667   0.25025   0.00000  Uiso   1.00
C3     C     0.10671   0.14252   0.05621   0.00000  Uiso   1.00
C4     C     0.21375   0.11209   0.45348   0.00000  Uiso   1.00
C5     C     0.07419   0.15864   0.03718   0.00000  Uiso   1.00
C6     C     0.24730   0.10426   0.47525   0.00000  Uiso   1.00
C7     C     0.21112   0.31197   0.23421   0.00000  Uiso   1.00
C8     C     0.12214   0.02139   0.26623   0.00000  Uiso   1.00
C9     C     0.21107   0.02136   0.23473   0.00000  Uiso   1.00
C10    C     0.12217   0.31199   0.26585   0.00000  Uiso   1.00
C11    C     0.16659   0.04253   0.25048   0.00000  Uiso   1.00
C12    C     0.16666   0.29082   0.24986   0.00000  Uiso   1.00
C13    C     0.29813   0.14065   0.27901   0.00000  Uiso   1.00
C14    C     0.03495   0.19316   0.22157   0.00000  Uiso   1.00
C15    C     0.01263   0.14083   0.27922   0.00000  Uiso   1.00
C16    C     0.32044   0.19304   0.22143   0.00000  Uiso   1.00
C17    C     0.13616   0.16709   0.33836   0.00000  Uiso   1.00
C18    C     0.19702   0.16359   0.16198   0.00000  Uiso   1.00
C19    C     0.11712   0.16520   0.38993   0.00000  Uiso   1.00
C20    C     0.21513   0.15027   0.11256   0.00000  Uiso   1.00
C21    C     0.05466   0.17316   0.46765   0.00000  Uiso   1.00
C22    C     0.26750   0.10898   0.04630   0.00000  Uiso   1.00
C23    C     0.06852   0.17454   0.41891   0.00000  Uiso   1.00
C24    C     0.25448   0.12224   0.09293   0.00000  Uiso   1.00
C25    C     0.15000   0.15332   0.41042   0.00000  Uiso   1.00
C26    C     0.18575   0.15905   0.08751   0.00000  Uiso   1.00
C27    C     0.13561   0.14770   0.45863   0.00000  Uiso   1.00
C28    C     0.19252   0.13844   0.04565   0.00000  Uiso   1.00
C29    C     0.08789   0.16041   0.48806   0.00000  Uiso   1.00
C30    C     0.23679   0.11763   0.02171   0.00000  Uiso   1.00
C31    C     0.16909   0.13363   0.47855   0.00000  Uiso   1.00
C32    C     0.15633   0.14014   0.02672   0.00000  Uiso   1.00
H33    H     0.15618   0.18119   0.10152   0.00000  Uiso   1.00
H34    H     0.18785   0.15018   0.38825   0.00000  Uiso   1.00
H35    H     0.01753   0.18140   0.48949   0.00000  Uiso   1.00
H36    H     0.29950   0.08953   0.03076   0.00000  Uiso   1.00
H37    H     0.24567   0.29558   0.22157   0.00000  Uiso   1.00
H38    H     0.08761   0.03781   0.27891   0.00000  Uiso   1.00
H39    H     0.24559   0.03770   0.22256   0.00000  Uiso   1.00
H40    H     0.08765   0.29560   0.27844   0.00000  Uiso   1.00
H41    H     0.27109   0.11973   0.30213   0.00000  Uiso   1.00
H42    H     0.06194   0.21420   0.19859   0.00000  Uiso   1.00
H43    H     0.02174   0.11999   0.30241   0.00000  Uiso   1.00
H44    H     0.31127   0.21400   0.19840   0.00000  Uiso   1.00
N45    N     0.04759   0.16668   0.25001   0.00000  Uiso   1.00
N46    N     0.28574   0.16666   0.24999   0.00000  Uiso   1.00
O47    O     0.12846   0.22775   0.25001   0.00000  Uiso   1.00
O48    O     0.20488   0.10558   0.25000   0.00000  Uiso   1.00
O49    O     0.20490   0.22774   0.25000   0.00000  Uiso   1.00
O50    O     0.12843   0.10559   0.25000   0.00000  Uiso   1.00
O51    O     0.10661   0.16667   0.31613   0.00000  Uiso   1.00
O52    O     0.22672   0.16666   0.18388   0.00000  Uiso   1.00
O53    O     0.18305   0.16666   0.31612   0.00000  Uiso   1.00
O54    O     0.15028   0.16667   0.18388   0.00000  Uiso   1.00
Zn55   Zn    0.11562   0.16667   0.25000   0.00000  Uiso   1.00
Zn56   Zn    0.21771   0.16666   0.25000   0.00000  Uiso   1.00
C57    C     0.02890   0.17641   0.06867   0.00000  Uiso   1.00
N58    N     0.32649   0.19151   0.09385   0.00000  Uiso   1.00
C59    C     0.29263   0.08322   0.44886   0.00000  Uiso   1.00
N60    N     0.32889   0.06648   0.42770   0.00000  Uiso   1.00
C61    C     0.27792   0.10267   0.12115   0.00000  Uiso   1.00
N62    N     0.29608   0.08642   0.14400   0.00000  Uiso   1.00
C63    C     0.03252   0.18699   0.40013   0.00000  Uiso   1.00
N64    N     0.00358   0.19691   0.38520   0.00000  Uiso   1.00
O65    O     0.09024   0.10924   0.08686   0.00000  Uiso   1.00
C66    C     0.07055   0.12174   0.13414   0.00000  Uiso   1.00
H67    H     0.03346   0.13463   0.14293   0.00000  Uiso   1.00
H68    H     0.09266   0.14565   0.14270   0.00000  Uiso   1.00
C69    C     0.06729   0.08331   0.16479   0.00000  Uiso   1.00
H70    H     0.05181   0.09228   0.20228   0.00000  Uiso   1.00
H71    H     0.04250   0.05997   0.15881   0.00000  Uiso   1.00
C72    C     0.11703   0.06297   0.15406   0.00000  Uiso   1.00
H73    H     0.13264   0.05199   0.11712   0.00000  Uiso   1.00
H74    H     0.11293   0.03564   0.17737   0.00000  Uiso   1.00
H75    H     0.14265   0.08534   0.16003   0.00000  Uiso   1.00
O76    O     0.22370   0.09551   0.40922   0.00000  Uiso   1.00
C77    C     0.19782   0.05771   0.41384   0.00000  Uiso   1.00
H78    H     0.15785   0.06270   0.43218   0.00000  Uiso   1.00
H79    H     0.21049   0.03450   0.43382   0.00000  Uiso   1.00
C80    C     0.20700   0.04017   0.36503   0.00000  Uiso   1.00
H81    H     0.19487   0.06321   0.34458   0.00000  Uiso   1.00
H82    H     0.24668   0.03457   0.34628   0.00000  Uiso   1.00
C83    C     0.17953   0.33266   0.36809   0.00000  Uiso   1.00
H84    H     0.19040   0.30935   0.38910   0.00000  Uiso   1.00
H85    H     0.18826   0.31983   0.33237   0.00000  Uiso   1.00
H86    H     0.13960   0.00472   0.38443   0.00000  Uiso   1.00
C87    C     0.50003   0.24667   0.24990   0.00000  Uiso   1.00
C88    C     0.49992   0.08667   0.25025   0.00000  Uiso   1.00
C89    C     0.44005   0.14252   0.05621   0.00000  Uiso   1.00
C90    C     0.54709   0.11209   0.45348   0.00000  Uiso   1.00
C91    C     0.40752   0.15864   0.03718   0.00000  Uiso   1.00
C92    C     0.58063   0.10426   0.47525   0.00000  Uiso   1.00
C93    C     0.54445   0.31197   0.23421   0.00000  Uiso   1.00
C94    C     0.45548   0.02139   0.26623   0.00000  Uiso   1.00
C95    C     0.54441   0.02136   0.23473   0.00000  Uiso   1.00
C96    C     0.45551   0.31199   0.26585   0.00000  Uiso   1.00
C97    C     0.49993   0.04253   0.25048   0.00000  Uiso   1.00
C98    C     0.50000   0.29082   0.24986   0.00000  Uiso   1.00
C99    C     0.63147   0.14065   0.27901   0.00000  Uiso   1.00
C100   C     0.36829   0.19316   0.22157   0.00000  Uiso   1.00
C101   C     0.34596   0.14083   0.27922   0.00000  Uiso   1.00
C102   C     0.65378   0.19304   0.22143   0.00000  Uiso   1.00
C103   C     0.46949   0.16709   0.33836   0.00000  Uiso   1.00
C104   C     0.53036   0.16359   0.16198   0.00000  Uiso   1.00
C105   C     0.45045   0.16520   0.38993   0.00000  Uiso   1.00
C106   C     0.54846   0.15027   0.11256   0.00000  Uiso   1.00
C107   C     0.38800   0.17316   0.46765   0.00000  Uiso   1.00
C108   C     0.60083   0.10898   0.04630   0.00000  Uiso   1.00
C109   C     0.40185   0.17454   0.41891   0.00000  Uiso   1.00
C110   C     0.58781   0.12224   0.09293   0.00000  Uiso   1.00
C111   C     0.48334   0.15332   0.41042   0.00000  Uiso   1.00
C112   C     0.51908   0.15905   0.08751   0.00000  Uiso   1.00
C113   C     0.46894   0.14770   0.45863   0.00000  Uiso   1.00
C114   C     0.52586   0.13844   0.04565   0.00000  Uiso   1.00
C115   C     0.42122   0.16041   0.48806   0.00000  Uiso   1.00
C116   C     0.57012   0.11763   0.02171   0.00000  Uiso   1.00
C117   C     0.50243   0.13363   0.47855   0.00000  Uiso   1.00
C118   C     0.48967   0.14014   0.02672   0.00000  Uiso   1.00
H119   H     0.48951   0.18119   0.10152   0.00000  Uiso   1.00
H120   H     0.52118   0.15018   0.38825   0.00000  Uiso   1.00
H121   H     0.35086   0.18140   0.48949   0.00000  Uiso   1.00
H122   H     0.63283   0.08953   0.03076   0.00000  Uiso   1.00
H123   H     0.57900   0.29558   0.22157   0.00000  Uiso   1.00
H124   H     0.42094   0.03781   0.27891   0.00000  Uiso   1.00
H125   H     0.57893   0.03770   0.22256   0.00000  Uiso   1.00
H126   H     0.42098   0.29560   0.27844   0.00000  Uiso   1.00
H127   H     0.60442   0.11973   0.30213   0.00000  Uiso   1.00
H128   H     0.39527   0.21420   0.19859   0.00000  Uiso   1.00
H129   H     0.35507   0.11999   0.30241   0.00000  Uiso   1.00
H130   H     0.64461   0.21400   0.19840   0.00000  Uiso   1.00
N131   N     0.38093   0.16668   0.25001   0.00000  Uiso   1.00
N132   N     0.61907   0.16666   0.24999   0.00000  Uiso   1.00
O133   O     0.46179   0.22775   0.25001   0.00000  Uiso   1.00
O134   O     0.53821   0.10558   0.25000   0.00000  Uiso   1.00
O135   O     0.53823   0.22774   0.25000   0.00000  Uiso   1.00
O136   O     0.46177   0.10559   0.25000   0.00000  Uiso   1.00
O137   O     0.43994   0.16667   0.31613   0.00000  Uiso   1.00
O138   O     0.56006   0.16666   0.18388   0.00000  Uiso   1.00
O139   O     0.51639   0.16666   0.31612   0.00000  Uiso   1.00
O140   O     0.48361   0.16667   0.18388   0.00000  Uiso   1.00
Zn141  Zn    0.44896   0.16667   0.25000   0.00000  Uiso   1.00
Zn142  Zn    0.55104   0.16666   0.25000   0.00000  Uiso   1.00
C143   C     0.36223   0.17641   0.06867   0.00000  Uiso   1.00
N144   N     0.65982   0.19151   0.09385   0.00000  Uiso   1.00
C145   C     0.62597   0.08322   0.44886   0.00000  Uiso   1.00
N146   N     0.66223   0.06648   0.42770   0.00000  Uiso   1.00
C147   C     0.61125   0.10267   0.12115   0.00000  Uiso   1.00
N148   N     0.62942   0.08642   0.14400   0.00000  Uiso   1.00
C149   C     0.36586   0.18699   0.40013   0.00000  Uiso   1.00
N150   N     0.33691   0.19691   0.38520   0.00000  Uiso   1.00
O151   O     0.42358   0.10924   0.08686   0.00000  Uiso   1.00
C152   C     0.40389   0.12174   0.13414   0.00000  Uiso   1.00
H153   H     0.36679   0.13463   0.14293   0.00000  Uiso   1.00
H154   H     0.42600   0.14565   0.14270   0.00000  Uiso   1.00
C155   C     0.40062   0.08331   0.16479   0.00000  Uiso   1.00
H156   H     0.38514   0.09228   0.20228   0.00000  Uiso   1.00
H157   H     0.37583   0.05997   0.15881   0.00000  Uiso   1.00
C158   C     0.45036   0.06297   0.15406   0.00000  Uiso   1.00
H159   H     0.46597   0.05199   0.11712   0.00000  Uiso   1.00
H160   H     0.44626   0.03564   0.17737   0.00000  Uiso   1.00
H161   H     0.47598   0.08534   0.16003   0.00000  Uiso   1.00
O162   O     0.55704   0.09551   0.40922   0.00000  Uiso   1.00
C163   C     0.53115   0.05771   0.41384   0.00000  Uiso   1.00
H164   H     0.49119   0.06270   0.43218   0.00000  Uiso   1.00
H165   H     0.54382   0.03450   0.43382   0.00000  Uiso   1.00
C166   C     0.54033   0.04017   0.36503   0.00000  Uiso   1.00
H167   H     0.52821   0.06321   0.34458   0.00000  Uiso   1.00
H168   H     0.58001   0.03457   0.34628   0.00000  Uiso   1.00
C169   C     0.51286   0.33266   0.36809   0.00000  Uiso   1.00
H170   H     0.52373   0.30935   0.38910   0.00000  Uiso   1.00
H171   H     0.52159   0.31983   0.33237   0.00000  Uiso   1.00
H172   H     0.47294   0.00472   0.38443   0.00000  Uiso   1.00
C173   C     0.83337   0.24667   0.24990   0.00000  Uiso   1.00
C174   C     0.83325   0.08667   0.25025   0.00000  Uiso   1.00
C175   C     0.77338   0.14252   0.05621   0.00000  Uiso   1.00
C176   C     0.88042   0.11209   0.45348   0.00000  Uiso   1.00
C177   C     0.74085   0.15864   0.03718   0.00000  Uiso   1.00
C178   C     0.91397   0.10426   0.47525   0.00000  Uiso   1.00
C179   C     0.87778   0.31197   0.23421   0.00000  Uiso   1.00
C180   C     0.78881   0.02139   0.26623   0.00000  Uiso   1.00
C181   C     0.87774   0.02136   0.23473   0.00000  Uiso   1.00
C182   C     0.78884   0.31199   0.26585   0.00000  Uiso   1.00
C183   C     0.83326   0.04253   0.25048   0.00000  Uiso   1.00
C184   C     0.83333   0.29082   0.24986   0.00000  Uiso   1.00
C185   C     0.96480   0.14065   0.27901   0.00000  Uiso   1.00
C186   C     0.70162   0.19316   0.22157   0.00000  Uiso   1.00
C187   C     0.67929   0.14083   0.27922   0.00000  Uiso   1.00
C188   C     0.98711   0.19304   0.22143   0.00000  Uiso   1.00
C189   C     0.80282   0.16709   0.33836   0.00000  Uiso   1.00
C190   C     0.86369   0.16359   0.16198   0.00000  Uiso   1.00
C191   C     0.78379   0.16520   0.38993   0.00000  Uiso   1.00
C192   C     0.88179   0.15027   0.11256   0.00000  Uiso   1.00
C193   C     0.72133   0.17316   0.46765   0.00000  Uiso   1.00
C194   C     0.93416   0.10898   0.04630   0.00000  Uiso   1.00
C195   C     0.73518   0.17454   0.41891   0.00000  Uiso   1.00
C196   C     0.92115   0.12224   0.09293   0.00000  Uiso   1.00
C197   C     0.81667   0.15332   0.41042   0.00000  Uiso   1.00
C198   C     0.85241   0.15905   0.08751   0.00000  Uiso   1.00
C199   C     0.80228   0.14770   0.45863   0.00000  Uiso   1.00
C200   C     0.85919   0.13844   0.04565   0.00000  Uiso   1.00
C201   C     0.75455   0.16041   0.48806   0.00000  Uiso   1.00
C202   C     0.90345   0.11763   0.02171   0.00000  Uiso   1.00
C203   C     0.83576   0.13363   0.47855   0.00000  Uiso   1.00
C204   C     0.82300   0.14014   0.02672   0.00000  Uiso   1.00
H205   H     0.82285   0.18119   0.10152   0.00000  Uiso   1.00
H206   H     0.85452   0.15018   0.38825   0.00000  Uiso   1.00
H207   H     0.68419   0.18140   0.48949   0.00000  Uiso   1.00
H208   H     0.96617   0.08953   0.03076   0.00000  Uiso   1.00
H209   H     0.91233   0.29558   0.22157   0.00000  Uiso   1.00
H210   H     0.75427   0.03781   0.27891   0.00000  Uiso   1.00
H211   H     0.91226   0.03770   0.22256   0.00000  Uiso   1.00
H212   H     0.75432   0.29560   0.27844   0.00000  Uiso   1.00
H213   H     0.93775   0.11973   0.30213   0.00000  Uiso   1.00
H214   H     0.72861   0.21420   0.19859   0.00000  Uiso   1.00
H215   H     0.68840   0.11999   0.30241   0.00000  Uiso   1.00
H216   H     0.97794   0.21400   0.19840   0.00000  Uiso   1.00
N217   N     0.71426   0.16668   0.25001   0.00000  Uiso   1.00
N218   N     0.95241   0.16666   0.24999   0.00000  Uiso   1.00
O219   O     0.79512   0.22775   0.25001   0.00000  Uiso   1.00
O220   O     0.87154   0.10558   0.25000   0.00000  Uiso   1.00
O221   O     0.87157   0.22774   0.25000   0.00000  Uiso   1.00
O222   O     0.79510   0.10559   0.25000   0.00000  Uiso   1.00
O223   O     0.77328   0.16667   0.31613   0.00000  Uiso   1.00
O224   O     0.89339   0.16666   0.18388   0.00000  Uiso   1.00
O225   O     0.84972   0.16666   0.31612   0.00000  Uiso   1.00
O226   O     0.81695   0.16667   0.18388   0.00000  Uiso   1.00
Zn227  Zn    0.78229   0.16667   0.25000   0.00000  Uiso   1.00
Zn228  Zn    0.88438   0.16666   0.25000   0.00000  Uiso   1.00
C229   C     0.69556   0.17641   0.06867   0.00000  Uiso   1.00
N230   N     0.99315   0.19151   0.09385   0.00000  Uiso   1.00
C231   C     0.95930   0.08322   0.44886   0.00000  Uiso   1.00
N232   N     0.99556   0.06648   0.42770   0.00000  Uiso   1.00
C233   C     0.94459   0.10267   0.12115   0.00000  Uiso   1.00
N234   N     0.96275   0.08642   0.14400   0.00000  Uiso   1.00
C235   C     0.69919   0.18699   0.40013   0.00000  Uiso   1.00
N236   N     0.67024   0.19691   0.38520   0.00000  Uiso   1.00
O237   O     0.75691   0.10924   0.08686   0.00000  Uiso   1.00
C238   C     0.73722   0.12174   0.13414   0.00000  Uiso   1.00
H239   H     0.70013   0.13463   0.14293   0.00000  Uiso   1.00
H240   H     0.75933   0.14565   0.14270   0.00000  Uiso   1.00
C241   C     0.73395   0.08331   0.16479   0.00000  Uiso   1.00
H242   H     0.71848   0.09228   0.20228   0.00000  Uiso   1.00
H243   H     0.70917   0.05997   0.15881   0.00000  Uiso   1.00
C244   C     0.78370   0.06297   0.15406   0.00000  Uiso   1.00
H245   H     0.79931   0.05199   0.11712   0.00000  Uiso   1.00
H246   H     0.77960   0.03564   0.17737   0.00000  Uiso   1.00
H247   H     0.80932   0.08534   0.16003   0.00000  Uiso   1.00
O248   O     0.89037   0.09551   0.40922   0.00000  Uiso   1.00
C249   C     0.86448   0.05771   0.41384   0.00000  Uiso   1.00
H250   H     0.82452   0.06270   0.43218   0.00000  Uiso   1.00
H251   H     0.87715   0.03450   0.43382   0.00000  Uiso   1.00
C252   C     0.87367   0.04017   0.36503   0.00000  Uiso   1.00
H253   H     0.86154   0.06321   0.34458   0.00000  Uiso   1.00
H254   H     0.91334   0.03457   0.34628   0.00000  Uiso   1.00
C255   C     0.84620   0.33266   0.36809   0.00000  Uiso   1.00
H256   H     0.85706   0.30935   0.38910   0.00000  Uiso   1.00
H257   H     0.85492   0.31983   0.33237   0.00000  Uiso   1.00
H258   H     0.80627   0.00472   0.38443   0.00000  Uiso   1.00
C259   C     0.16670   0.58001   0.24990   0.00000  Uiso   1.00
C260   C     0.16659   0.42000   0.25025   0.00000  Uiso   1.00
C261   C     0.10671   0.47585   0.05621   0.00000  Uiso   1.00
C262   C     0.21375   0.44543   0.45348   0.00000  Uiso   1.00
C263   C     0.07419   0.49197   0.03718   0.00000  Uiso   1.00
C264   C     0.24730   0.43760   0.47525   0.00000  Uiso   1.00
C265   C     0.21112   0.64530   0.23421   0.00000  Uiso   1.00
C266   C     0.12214   0.35472   0.26623   0.00000  Uiso   1.00
C267   C     0.21107   0.35469   0.23473   0.00000  Uiso   1.00
C268   C     0.12217   0.64532   0.26585   0.00000  Uiso   1.00
C269   C     0.16659   0.37586   0.25048   0.00000  Uiso   1.00
C270   C     0.16666   0.62416   0.24986   0.00000  Uiso   1.00
C271   C     0.29813   0.47398   0.27901   0.00000  Uiso   1.00
C272   C     0.03495   0.52649   0.22157   0.00000  Uiso   1.00
C273   C     0.01263   0.47416   0.27922   0.00000  Uiso   1.00
C274   C     0.32044   0.52637   0.22143   0.00000  Uiso   1.00
C275   C     0.13616   0.50042   0.33836   0.00000  Uiso   1.00
C276   C     0.19702   0.49693   0.16198   0.00000  Uiso   1.00
C277   C     0.11712   0.49854   0.38993   0.00000  Uiso   1.00
C278   C     0.21513   0.48360   0.11256   0.00000  Uiso   1.00
C279   C     0.05466   0.50650   0.46765   0.00000  Uiso   1.00
C280   C     0.26750   0.44231   0.04630   0.00000  Uiso   1.00
C281   C     0.06852   0.50788   0.41891   0.00000  Uiso   1.00
C282   C     0.25448   0.45557   0.09293   0.00000  Uiso   1.00
C283   C     0.15000   0.48665   0.41042   0.00000  Uiso   1.00
C284   C     0.18575   0.49238   0.08751   0.00000  Uiso   1.00
C285   C     0.13561   0.48103   0.45863   0.00000  Uiso   1.00
C286   C     0.19252   0.47177   0.04565   0.00000  Uiso   1.00
C287   C     0.08789   0.49374   0.48806   0.00000  Uiso   1.00
C288   C     0.23679   0.45097   0.02171   0.00000  Uiso   1.00
C289   C     0.16909   0.46696   0.47855   0.00000  Uiso   1.00
C290   C     0.15633   0.47347   0.02672   0.00000  Uiso   1.00
H291   H     0.15618   0.51452   0.10152   0.00000  Uiso   1.00
H292   H     0.18785   0.48351   0.38825   0.00000  Uiso   1.00
H293   H     0.01753   0.51473   0.48949   0.00000  Uiso   1.00
H294   H     0.29950   0.42286   0.03076   0.00000  Uiso   1.00
H295   H     0.24567   0.62891   0.22157   0.00000  Uiso   1.00
H296   H     0.08761   0.37114   0.27891   0.00000  Uiso   1.00
H297   H     0.24559   0.37104   0.22256   0.00000  Uiso   1.00
H298   H     0.08765   0.62893   0.27844   0.00000  Uiso   1.00
H299   H     0.27109   0.45306   0.30213   0.00000  Uiso   1.00
H300   H     0.06194   0.54753   0.19859   0.00000  Uiso   1.00
H301   H     0.02174   0.45333   0.30241   0.00000  Uiso   1.00
H302   H     0.31127   0.54734   0.19840   0.00000  Uiso   1.00
N303   N     0.04759   0.50001   0.25001   0.00000  Uiso   1.00
N304   N     0.28574   0.49999   0.24999   0.00000  Uiso   1.00
O305   O     0.12846   0.56108   0.25001   0.00000  Uiso   1.00
O306   O     0.20488   0.43892   0.25000   0.00000  Uiso   1.00
O307   O     0.20490   0.56107   0.25000   0.00000  Uiso   1.00
O308   O     0.12843   0.43893   0.25000   0.00000  Uiso   1.00
O309   O     0.10661   0.50001   0.31613   0.00000  Uiso   1.00
O310   O     0.22672   0.49999   0.18388   0.00000  Uiso   1.00
O311   O     0.18305   0.50000   0.31612   0.00000  Uiso   1.00
O312   O     0.15028   0.50000   0.18388   0.00000  Uiso   1.00
Zn313  Zn    0.11562   0.50001   0.25000   0.00000  Uiso   1.00
Zn314  Zn    0.21771   0.49999   0.25000   0.00000  Uiso   1.00
C315   C     0.02890   0.50975   0.06867   0.00000  Uiso   1.00
N316   N     0.32649   0.52484   0.09385   0.00000  Uiso   1.00
C317   C     0.29263   0.41656   0.44886   0.00000  Uiso   1.00
N318   N     0.32889   0.39982   0.42770   0.00000  Uiso   1.00
C319   C     0.27792   0.43600   0.12115   0.00000  Uiso   1.00
N320   N     0.29608   0.41975   0.14400   0.00000  Uiso   1.00
C321   C     0.03252   0.52032   0.40013   0.00000  Uiso   1.00
N322   N     0.00358   0.53025   0.38520   0.00000  Uiso   1.00
O323   O     0.09024   0.44258   0.08686   0.00000  Uiso   1.00
C324   C     0.07055   0.45508   0.13414   0.00000  Uiso   1.00
H325   H     0.03346   0.46796   0.14293   0.00000  Uiso   1.00
H326   H     0.09266   0.47898   0.14270   0.00000  Uiso   1.00
C327   C     0.06729   0.41665   0.16479   0.00000  Uiso   1.00
H328   H     0.05181   0.42561   0.20228   0.00000  Uiso   1.00
H329   H     0.04250   0.39331   0.15881   0.00000  Uiso   1.00
C330   C     0.11703   0.39630   0.15406   0.00000  Uiso   1.00
H331   H     0.13264   0.38532   0.11712   0.00000  Uiso   1.00
H332   H     0.11293   0.36897   0.17737   0.00000  Uiso   1.00
H333   H     0.14265   0.41867   0.16003   0.00000  Uiso   1.00
O334   O     0.22370   0.42885   0.40922   0.00000  Uiso   1.00
C335   C     0.19782   0.39104   0.41384   0.00000  Uiso   1.00
H336   H     0.15785   0.39603   0.43218   0.00000  Uiso   1.00
H337   H     0.21049   0.36784   0.43382   0.00000  Uiso   1.00
C338   C     0.20700   0.37351   0.36503   0.00000  Uiso   1.00
H339   H     0.19487   0.39654   0.34458   0.00000  Uiso   1.00
H340   H     0.24668   0.36790   0.34628   0.00000  Uiso   1.00
C341   C     0.17953   0.66599   0.36809   0.00000  Uiso   1.00
H342   H     0.19040   0.64268   0.38910   0.00000  Uiso   1.00
H343   H     0.18826   0.65316   0.33237   0.00000  Uiso   1.00
H344   H     0.13960   0.33806   0.38443   0.00000  Uiso   1.00
C345   C     0.50003   0.58001   0.24990   0.00000  Uiso   1.00
C346   C     0.49992   0.42000   0.25025   0.00000  Uiso   1.00
C347   C     0.44005   0.47585   0.05621   0.00000  Uiso   1.00
C348   C     0.54709   0.44543   0.45348   0.00000  Uiso   1.00
C349   C     0.40752   0.49197   0.03718   0.00000  Uiso   1.00
C350   C     0.58063   0.43760   0.47525   0.00000  Uiso   1.00
C351   C     0.54445   0.64530   0.23421   0.00000  Uiso   1.00
C352   C     0.45548   0.35472   0.26623   0.00000  Uiso   1.00
C353   C     0.54441   0.35469   0.23473   0.00000  Uiso   1.00
C354   C     0.45551   0.64532   0.26585   0.00000  Uiso   1.00
C355   C     0.49993   0.37586   0.25048   0.00000  Uiso   1.00
C356   C     0.50000   0.62416   0.24986   0.00000  Uiso   1.00
C357   C     0.63147   0.47398   0.27901   0.00000  Uiso   1.00
C358   C     0.36829   0.52649   0.22157   0.00000  Uiso   1.00
C359   C     0.34596   0.47416   0.27922   0.00000  Uiso   1.00
C360   C     0.65378   0.52637   0.22143   0.00000  Uiso   1.00
C361   C     0.46949   0.50042   0.33836   0.00000  Uiso   1.00
C362   C     0.53036   0.49693   0.16198   0.00000  Uiso   1.00
C363   C     0.45045   0.49854   0.38993   0.00000  Uiso   1.00
C364   C     0.54846   0.48360   0.11256   0.00000  Uiso   1.00
C365   C     0.38800   0.50650   0.46765   0.00000  Uiso   1.00
C366   C     0.60083   0.44231   0.04630   0.00000  Uiso   1.00
C367   C     0.40185   0.50788   0.41891   0.00000  Uiso   1.00
C368   C     0.58781   0.45557   0.09293   0.00000  Uiso   1.00
C369   C     0.48334   0.48665   0.41042   0.00000  Uiso   1.00
C370   C     0.51908   0.49238   0.08751   0.00000  Uiso   1.00
C371   C     0.46894   0.48103   0.45863   0.00000  Uiso   1.00
C372   C     0.52586   0.47177   0.04565   0.00000  Uiso   1.00
C373   C     0.42122   0.49374   0.48806   0.00000  Uiso   1.00
C374   C     0.57012   0.45097   0.02171   0.00000  Uiso   1.00
C375   C     0.50243   0.46696   0.47855   0.00000  Uiso   1.00
C376   C     0.48967   0.47347   0.02672   0.00000  Uiso   1.00
H377   H     0.48951   0.51452   0.10152   0.00000  Uiso   1.00
H378   H     0.52118   0.48351   0.38825   0.00000  Uiso   1.00
H379   H     0.35086   0.51473   0.48949   0.00000  Uiso   1.00
H380   H     0.63283   0.42286   0.03076   0.00000  Uiso   1.00
H381   H     0.57900   0.62891   0.22157   0.00000  Uiso   1.00
H382   H     0.42094   0.37114   0.27891   0.00000  Uiso   1.00
H383   H     0.57893   0.37104   0.22256   0.00000  Uiso   1.00
H384   H     0.42098   0.62893   0.27844   0.00000  Uiso   1.00
H385   H     0.60442   0.45306   0.30213   0.00000  Uiso   1.00
H386   H     0.39527   0.54753   0.19859   0.00000  Uiso   1.00
H387   H     0.35507   0.45333   0.30241   0.00000  Uiso   1.00
H388   H     0.64461   0.54734   0.19840   0.00000  Uiso   1.00
N389   N     0.38093   0.50001   0.25001   0.00000  Uiso   1.00
N390   N     0.61907   0.49999   0.24999   0.00000  Uiso   1.00
O391   O     0.46179   0.56108   0.25001   0.00000  Uiso   1.00
O392   O     0.53821   0.43892   0.25000   0.00000  Uiso   1.00
O393   O     0.53823   0.56107   0.25000   0.00000  Uiso   1.00
O394   O     0.46177   0.43893   0.25000   0.00000  Uiso   1.00
O395   O     0.43994   0.50001   0.31613   0.00000  Uiso   1.00
O396   O     0.56006   0.49999   0.18388   0.00000  Uiso   1.00
O397   O     0.51639   0.50000   0.31612   0.00000  Uiso   1.00
O398   O     0.48361   0.50000   0.18388   0.00000  Uiso   1.00
Zn399  Zn    0.44896   0.50001   0.25000   0.00000  Uiso   1.00
Zn400  Zn    0.55104   0.49999   0.25000   0.00000  Uiso   1.00
C401   C     0.36223   0.50975   0.06867   0.00000  Uiso   1.00
N402   N     0.65982   0.52484   0.09385   0.00000  Uiso   1.00
C403   C     0.62597   0.41656   0.44886   0.00000  Uiso   1.00
N404   N     0.66223   0.39982   0.42770   0.00000  Uiso   1.00
C405   C     0.61125   0.43600   0.12115   0.00000  Uiso   1.00
N406   N     0.62942   0.41975   0.14400   0.00000  Uiso   1.00
C407   C     0.36586   0.52032   0.40013   0.00000  Uiso   1.00
N408   N     0.33691   0.53025   0.38520   0.00000  Uiso   1.00
O409   O     0.42358   0.44258   0.08686   0.00000  Uiso   1.00
C410   C     0.40389   0.45508   0.13414   0.00000  Uiso   1.00
H411   H     0.36679   0.46796   0.14293   0.00000  Uiso   1.00
H412   H     0.42600   0.47898   0.14270   0.00000  Uiso   1.00
C413   C     0.40062   0.41665   0.16479   0.00000  Uiso   1.00
H414   H     0.38514   0.42561   0.20228   0.00000  Uiso   1.00
H415   H     0.37583   0.39331   0.15881   0.00000  Uiso   1.00
C416   C     0.45036   0.39630   0.15406   0.00000  Uiso   1.00
H417   H     0.46597   0.38532   0.11712   0.00000  Uiso   1.00
H418   H     0.44626   0.36897   0.17737   0.00000  Uiso   1.00
H419   H     0.47598   0.41867   0.16003   0.00000  Uiso   1.00
O420   O     0.55704   0.42885   0.40922   0.00000  Uiso   1.00
C421   C     0.53115   0.39104   0.41384   0.00000  Uiso   1.00
H422   H     0.49119   0.39603   0.43218   0.00000  Uiso   1.00
H423   H     0.54382   0.36784   0.43382   0.00000  Uiso   1.00
C424   C     0.54033   0.37351   0.36503   0.00000  Uiso   1.00
H425   H     0.52821   0.39654   0.34458   0.00000  Uiso   1.00
H426   H     0.58001   0.36790   0.34628   0.00000  Uiso   1.00
C427   C     0.51286   0.66599   0.36809   0.00000  Uiso   1.00
H428   H     0.52373   0.64268   0.38910   0.00000  Uiso   1.00
H429   H     0.52159   0.65316   0.33237   0.00000  Uiso   1.00
H430   H     0.47294   0.33806   0.38443   0.00000  Uiso   1.00
C431   C     0.83337   0.58001   0.24990   0.00000  Uiso   1.00
C432   C     0.83325   0.42000   0.25025   0.00000  Uiso   1.00
C433   C     0.77338   0.47585   0.05621   0.00000  Uiso   1.00
C434   C     0.88042   0.44543   0.45348   0.00000  Uiso   1.00
C435   C     0.74085   0.49197   0.03718   0.00000  Uiso   1.00
C436   C     0.91397   0.43760   0.47525   0.00000  Uiso   1.00
C437   C     0.87778   0.64530   0.23421   0.00000  Uiso   1.00
C438   C     0.78881   0.35472   0.26623   0.00000  Uiso   1.00
C439   C     0.87774   0.35469   0.23473   0.00000  Uiso   1.00
C440   C     0.78884   0.64532   0.26585   0.00000  Uiso   1.00
C441   C     0.83326   0.37586   0.25048   0.00000  Uiso   1.00
C442   C     0.83333   0.62416   0.24986   0.00000  Uiso   1.00
C443   C     0.96480   0.47398   0.27901   0.00000  Uiso   1.00
C444   C     0.70162   0.52649   0.22157   0.00000  Uiso   1.00
C445   C     0.67929   0.47416   0.27922   0.00000  Uiso   1.00
C446   C     0.98711   0.52637   0.22143   0.00000  Uiso   1.00
C447   C     0.80282   0.50042   0.33836   0.00000  Uiso   1.00
C448   C     0.86369   0.49693   0.16198   0.00000  Uiso   1.00
C449   C     0.78379   0.49854   0.38993   0.00000  Uiso   1.00
C450   C     0.88179   0.48360   0.11256   0.00000  Uiso   1.00
C451   C     0.72133   0.50650   0.46765   0.00000  Uiso   1.00
C452   C     0.93416   0.44231   0.04630   0.00000  Uiso   1.00
C453   C     0.73518   0.50788   0.41891   0.00000  Uiso   1.00
C454   C     0.92115   0.45557   0.09293   0.00000  Uiso   1.00
C455   C     0.81667   0.48665   0.41042   0.00000  Uiso   1.00
C456   C     0.85241   0.49238   0.08751   0.00000  Uiso   1.00
C457   C     0.80228   0.48103   0.45863   0.00000  Uiso   1.00
C458   C     0.85919   0.47177   0.04565   0.00000  Uiso   1.00
C459   C     0.75455   0.49374   0.48806   0.00000  Uiso   1.00
C460   C     0.90345   0.45097   0.02171   0.00000  Uiso   1.00
C461   C     0.83576   0.46696   0.47855   0.00000  Uiso   1.00
C462   C     0.82300   0.47347   0.02672   0.00000  Uiso   1.00
H463   H     0.82285   0.51452   0.10152   0.00000  Uiso   1.00
H464   H     0.85452   0.48351   0.38825   0.00000  Uiso   1.00
H465   H     0.68419   0.51473   0.48949   0.00000  Uiso   1.00
H466   H     0.96617   0.42286   0.03076   0.00000  Uiso   1.00
H467   H     0.91233   0.62891   0.22157   0.00000  Uiso   1.00
H468   H     0.75427   0.37114   0.27891   0.00000  Uiso   1.00
H469   H     0.91226   0.37104   0.22256   0.00000  Uiso   1.00
H470   H     0.75432   0.62893   0.27844   0.00000  Uiso   1.00
H471   H     0.93775   0.45306   0.30213   0.00000  Uiso   1.00
H472   H     0.72861   0.54753   0.19859   0.00000  Uiso   1.00
H473   H     0.68840   0.45333   0.30241   0.00000  Uiso   1.00
H474   H     0.97794   0.54734   0.19840   0.00000  Uiso   1.00
N475   N     0.71426   0.50001   0.25001   0.00000  Uiso   1.00
N476   N     0.95241   0.49999   0.24999   0.00000  Uiso   1.00
O477   O     0.79512   0.56108   0.25001   0.00000  Uiso   1.00
O478   O     0.87154   0.43892   0.25000   0.00000  Uiso   1.00
O479   O     0.87157   0.56107   0.25000   0.00000  Uiso   1.00
O480   O     0.79510   0.43893   0.25000   0.00000  Uiso   1.00
O481   O     0.77328   0.50001   0.31613   0.00000  Uiso   1.00
O482   O     0.89339   0.49999   0.18388   0.00000  Uiso   1.00
O483   O     0.84972   0.50000   0.31612   0.00000  Uiso   1.00
O484   O     0.81695   0.50000   0.18388   0.00000  Uiso   1.00
Zn485  Zn    0.78229   0.50001   0.25000   0.00000  Uiso   1.00
Zn486  Zn    0.88438   0.49999   0.25000   0.00000  Uiso   1.00
C487   C     0.69556   0.50975   0.06867   0.00000  Uiso   1.00
N488   N     0.99315   0.52484   0.09385   0.00000  Uiso   1.00
C489   C     0.95930   0.41656   0.44886   0.00000  Uiso   1.00
N490   N     0.99556   0.39982   0.42770   0.00000  Uiso   1.00
C491   C     0.94459   0.43600   0.12115   0.00000  Uiso   1.00
N492   N     0.96275   0.41975   0.14400   0.00000  Uiso   1.00
C493   C     0.69919   0.52032   0.40013   0.00000  Uiso   1.00
N494   N     0.67024   0.53025   0.38520   0.00000  Uiso   1.00
O495   O     0.75691   0.44258   0.08686   0.00000  Uiso   1.00
C496   C     0.73722   0.45508   0.13414   0.00000  Uiso   1.00
H497   H     0.70013   0.46796   0.14293   0.00000  Uiso   1.00
H498   H     0.75933   0.47898   0.14270   0.00000  Uiso   1.00
C499   C     0.73395   0.41665   0.16479   0.00000  Uiso   1.00
H500   H     0.71848   0.42561   0.20228   0.00000  Uiso   1.00
H501   H     0.70917   0.39331   0.15881   0.00000  Uiso   1.00
C502   C     0.78370   0.39630   0.15406   0.00000  Uiso   1.00
H503   H     0.79931   0.38532   0.11712   0.00000  Uiso   1.00
H504   H     0.77960   0.36897   0.17737   0.00000  Uiso   1.00
H505   H     0.80932   0.41867   0.16003   0.00000  Uiso   1.00
O506   O     0.89037   0.42885   0.40922   0.00000  Uiso   1.00
C507   C     0.86448   0.39104   0.41384   0.00000  Uiso   1.00
H508   H     0.82452   0.39603   0.43218   0.00000  Uiso   1.00
H509   H     0.87715   0.36784   0.43382   0.00000  Uiso   1.00
C510   C     0.87367   0.37351   0.36503   0.00000  Uiso   1.00
H511   H     0.86154   0.39654   0.34458   0.00000  Uiso   1.00
H512   H     0.91334   0.36790   0.34628   0.00000  Uiso   1.00
C513   C     0.84620   0.66599   0.36809   0.00000  Uiso   1.00
H514   H     0.85706   0.64268   0.38910   0.00000  Uiso   1.00
H515   H     0.85492   0.65316   0.33237   0.00000  Uiso   1.00
H516   H     0.80627   0.33806   0.38443   0.00000  Uiso   1.00
C517   C     0.16670   0.91334   0.24990   0.00000  Uiso   1.00
C518   C     0.16659   0.75333   0.25025   0.00000  Uiso   1.00
C519   C     0.10671   0.80918   0.05621   0.00000  Uiso   1.00
C520   C     0.21375   0.77876   0.45348   0.00000  Uiso   1.00
C521   C     0.07419   0.82531   0.03718   0.00000  Uiso   1.00
C522   C     0.24730   0.77093   0.47525   0.00000  Uiso   1.00
C523   C     0.21112   0.97863   0.23421   0.00000  Uiso   1.00
C524   C     0.12214   0.68806   0.26623   0.00000  Uiso   1.00
C525   C     0.21107   0.68802   0.23473   0.00000  Uiso   1.00
C526   C     0.12217   0.97866   0.26585   0.00000  Uiso   1.00
C527   C     0.16659   0.70919   0.25048   0.00000  Uiso   1.00
C528   C     0.16666   0.95749   0.24986   0.00000  Uiso   1.00
C529   C     0.29813   0.80732   0.27901   0.00000  Uiso   1.00
C530   C     0.03495   0.85983   0.22157   0.00000  Uiso   1.00
C531   C     0.01263   0.80749   0.27922   0.00000  Uiso   1.00
C532   C     0.32044   0.85971   0.22143   0.00000  Uiso   1.00
C533   C     0.13616   0.83375   0.33836   0.00000  Uiso   1.00
C534   C     0.19702   0.83026   0.16198   0.00000  Uiso   1.00
C535   C     0.11712   0.83187   0.38993   0.00000  Uiso   1.00
C536   C     0.21513   0.81693   0.11256   0.00000  Uiso   1.00
C537   C     0.05466   0.83983   0.46765   0.00000  Uiso   1.00
C538   C     0.26750   0.77564   0.04630   0.00000  Uiso   1.00
C539   C     0.06852   0.84121   0.41891   0.00000  Uiso   1.00
C540   C     0.25448   0.78891   0.09293   0.00000  Uiso   1.00
C541   C     0.15000   0.81999   0.41042   0.00000  Uiso   1.00
C542   C     0.18575   0.82571   0.08751   0.00000  Uiso   1.00
C543   C     0.13561   0.81437   0.45863   0.00000  Uiso   1.00
C544   C     0.19252   0.80510   0.04565   0.00000  Uiso   1.00
C545   C     0.08789   0.82707   0.48806   0.00000  Uiso   1.00
C546   C     0.23679   0.78430   0.02171   0.00000  Uiso   1.00
C547   C     0.16909   0.80029   0.47855   0.00000  Uiso   1.00
C548   C     0.15633   0.80681   0.02672   0.00000  Uiso   1.00
H549   H     0.15618   0.84786   0.10152   0.00000  Uiso   1.00
H550   H     0.18785   0.81685   0.38825   0.00000  Uiso   1.00
H551   H     0.01753   0.84806   0.48949   0.00000  Uiso   1.00
H552   H     0.29950   0.75619   0.03076   0.00000  Uiso   1.00
H553   H     0.24567   0.96224   0.22157   0.00000  Uiso   1.00
H554   H     0.08761   0.70448   0.27891   0.00000  Uiso   1.00
H555   H     0.24559   0.70437   0.22256   0.00000  Uiso   1.00
H556   H     0.08765   0.96226   0.27844   0.00000  Uiso   1.00
H557   H     0.27109   0.78639   0.30213   0.00000  Uiso   1.00
H558   H     0.06194   0.88087   0.19859   0.00000  Uiso   1.00
H559   H     0.02174   0.78666   0.30241   0.00000  Uiso   1.00
H560   H     0.31127   0.88067   0.19840   0.00000  Uiso   1.00
N561   N     0.04759   0.83334   0.25001   0.00000  Uiso   1.00
N562   N     0.28574   0.83332   0.24999   0.00000  Uiso   1.00
O563   O     0.12846   0.89442   0.25001   0.00000  Uiso   1.00
O564   O     0.20488   0.77225   0.25000   0.00000  Uiso   1.00
O565   O     0.20490   0.89441   0.25000   0.00000  Uiso   1.00
O566   O     0.12843   0.77226   0.25000   0.00000  Uiso   1.00
O567   O     0.10661   0.83334   0.31613   0.00000  Uiso   1.00
O568   O     0.22672   0.83333   0.18388   0.00000  Uiso   1.00
O569   O     0.18305   0.83333   0.31612   0.00000  Uiso   1.00
O570   O     0.15028   0.83334   0.18388   0.00000  Uiso   1.00
Zn571  Zn    0.11562   0.83334   0.25000   0.00000  Uiso   1.00
Zn572  Zn    0.21771   0.83333   0.25000   0.00000  Uiso   1.00
C573   C     0.02890   0.84308   0.06867   0.00000  Uiso   1.00
N574   N     0.32649   0.85818   0.09385   0.00000  Uiso   1.00
C575   C     0.29263   0.74989   0.44886   0.00000  Uiso   1.00
N576   N     0.32889   0.73315   0.42770   0.00000  Uiso   1.00
C577   C     0.27792   0.76934   0.12115   0.00000  Uiso   1.00
N578   N     0.29608   0.75308   0.14400   0.00000  Uiso   1.00
C579   C     0.03252   0.85366   0.40013   0.00000  Uiso   1.00
N580   N     0.00358   0.86358   0.38520   0.00000  Uiso   1.00
O581   O     0.09024   0.77591   0.08686   0.00000  Uiso   1.00
C582   C     0.07055   0.78841   0.13414   0.00000  Uiso   1.00
H583   H     0.03346   0.80130   0.14293   0.00000  Uiso   1.00
H584   H     0.09266   0.81231   0.14270   0.00000  Uiso   1.00
C585   C     0.06729   0.74998   0.16479   0.00000  Uiso   1.00
H586   H     0.05181   0.75895   0.20228   0.00000  Uiso   1.00
H587   H     0.04250   0.72664   0.15881   0.00000  Uiso   1.00
C588   C     0.11703   0.72964   0.15406   0.00000  Uiso   1.00
H589   H     0.13264   0.71865   0.11712   0.00000  Uiso   1.00
H590   H     0.11293   0.70230   0.17737   0.00000  Uiso   1.00
H591   H     0.14265   0.75201   0.16003   0.00000  Uiso   1.00
O592   O     0.22370   0.76218   0.40922   0.00000  Uiso   1.00
C593   C     0.19782   0.72438   0.41384   0.00000  Uiso   1.00
H594   H     0.15785   0.72936   0.43218   0.00000  Uiso   1.00
H595   H     0.21049   0.70117   0.43382   0.00000  Uiso   1.00
C596   C     0.20700   0.70684   0.36503   0.00000  Uiso   1.00
H597   H     0.19487   0.72987   0.34458   0.00000  Uiso   1.00
H598   H     0.24668   0.70124   0.34628   0.00000  Uiso   1.00
C599   C     0.17953   0.99932   0.36809   0.00000  Uiso   1.00
H600   H     0.19040   0.97602   0.38910   0.00000  Uiso   1.00
H601   H     0.18826   0.98649   0.33237   0.00000  Uiso   1.00
H602   H     0.13960   0.67139   0.38443   0.00000  Uiso   1.00
C603   C     0.50003   0.91334   0.24990   0.00000  Uiso   1.00
C604   C     0.49992   0.75333   0.25025   0.00000  Uiso   1.00
C605   C     0.44005   0.80918   0.05621   0.00000  Uiso   1.00
C606   C     0.54709   0.77876   0.45348   0.00000  Uiso   1.00
C607   C     0.40752   0.82531   0.03718   0.00000  Uiso   1.00
C608   C     0.58063   0.77093   0.47525   0.00000  Uiso   1.00
C609   C     0.54445   0.97863   0.23421   0.00000  Uiso   1.00
C610   C     0.45548   0.68806   0.26623   0.00000  Uiso   1.00
C611   C     0.54441   0.68802   0.23473   0.00000  Uiso   1.00
C612   C     0.45551   0.97866   0.26585   0.00000  Uiso   1.00
C613   C     0.49993   0.70919   0.25048   0.00000  Uiso   1.00
C614   C     0.50000   0.95749   0.24986   0.00000  Uiso   1.00
C615   C     0.63147   0.80732   0.27901   0.00000  Uiso   1.00
C616   C     0.36829   0.85983   0.22157   0.00000  Uiso   1.00
C617   C     0.34596   0.80749   0.27922   0.00000  Uiso   1.00
C618   C     0.65378   0.85971   0.22143   0.00000  Uiso   1.00
C619   C     0.46949   0.83375   0.33836   0.00000  Uiso   1.00
C620   C     0.53036   0.83026   0.16198   0.00000  Uiso   1.00
C621   C     0.45045   0.83187   0.38993   0.00000  Uiso   1.00
C622   C     0.54846   0.81693   0.11256   0.00000  Uiso   1.00
C623   C     0.38800   0.83983   0.46765   0.00000  Uiso   1.00
C624   C     0.60083   0.77564   0.04630   0.00000  Uiso   1.00
C625   C     0.40185   0.84121   0.41891   0.00000  Uiso   1.00
C626   C     0.58781   0.78891   0.09293   0.00000  Uiso   1.00
C627   C     0.48334   0.81999   0.41042   0.00000  Uiso   1.00
C628   C     0.51908   0.82571   0.08751   0.00000  Uiso   1.00
C629   C     0.46894   0.81437   0.45863   0.00000  Uiso   1.00
C630   C     0.52586   0.80510   0.04565   0.00000  Uiso   1.00
C631   C     0.42122   0.82707   0.48806   0.00000  Uiso   1.00
C632   C     0.57012   0.78430   0.02171   0.00000  Uiso   1.00
C633   C     0.50243   0.80029   0.47855   0.00000  Uiso   1.00
C634   C     0.48967   0.80681   0.02672   0.00000  Uiso   1.00
H635   H     0.48951   0.84786   0.10152   0.00000  Uiso   1.00
H636   H     0.52118   0.81685   0.38825   0.00000  Uiso   1.00
H637   H     0.35086   0.84806   0.48949   0.00000  Uiso   1.00
H638   H     0.63283   0.75619   0.03076   0.00000  Uiso   1.00
H639   H     0.57900   0.96224   0.22157   0.00000  Uiso   1.00
H640   H     0.42094   0.70448   0.27891   0.00000  Uiso   1.00
H641   H     0.57893   0.70437   0.22256   0.00000  Uiso   1.00
H642   H     0.42098   0.96226   0.27844   0.00000  Uiso   1.00
H643   H     0.60442   0.78639   0.30213   0.00000  Uiso   1.00
H644   H     0.39527   0.88087   0.19859   0.00000  Uiso   1.00
H645   H     0.35507   0.78666   0.30241   0.00000  Uiso   1.00
H646   H     0.64461   0.88067   0.19840   0.00000  Uiso   1.00
N647   N     0.38093   0.83334   0.25001   0.00000  Uiso   1.00
N648   N     0.61907   0.83332   0.24999   0.00000  Uiso   1.00
O649   O     0.46179   0.89442   0.25001   0.00000  Uiso   1.00
O650   O     0.53821   0.77225   0.25000   0.00000  Uiso   1.00
O651   O     0.53823   0.89441   0.25000   0.00000  Uiso   1.00
O652   O     0.46177   0.77226   0.25000   0.00000  Uiso   1.00
O653   O     0.43994   0.83334   0.31613   0.00000  Uiso   1.00
O654   O     0.56006   0.83333   0.18388   0.00000  Uiso   1.00
O655   O     0.51639   0.83333   0.31612   0.00000  Uiso   1.00
O656   O     0.48361   0.83334   0.18388   0.00000  Uiso   1.00
Zn657  Zn    0.44896   0.83334   0.25000   0.00000  Uiso   1.00
Zn658  Zn    0.55104   0.83333   0.25000   0.00000  Uiso   1.00
C659   C     0.36223   0.84308   0.06867   0.00000  Uiso   1.00
N660   N     0.65982   0.85818   0.09385   0.00000  Uiso   1.00
C661   C     0.62597   0.74989   0.44886   0.00000  Uiso   1.00
N662   N     0.66223   0.73315   0.42770   0.00000  Uiso   1.00
C663   C     0.61125   0.76934   0.12115   0.00000  Uiso   1.00
N664   N     0.62942   0.75308   0.14400   0.00000  Uiso   1.00
C665   C     0.36586   0.85366   0.40013   0.00000  Uiso   1.00
N666   N     0.33691   0.86358   0.38520   0.00000  Uiso   1.00
O667   O     0.42358   0.77591   0.08686   0.00000  Uiso   1.00
C668   C     0.40389   0.78841   0.13414   0.00000  Uiso   1.00
H669   H     0.36679   0.80130   0.14293   0.00000  Uiso   1.00
H670   H     0.42600   0.81231   0.14270   0.00000  Uiso   1.00
C671   C     0.40062   0.74998   0.16479   0.00000  Uiso   1.00
H672   H     0.38514   0.75895   0.20228   0.00000  Uiso   1.00
H673   H     0.37583   0.72664   0.15881   0.00000  Uiso   1.00
C674   C     0.45036   0.72964   0.15406   0.00000  Uiso   1.00
H675   H     0.46597   0.71865   0.11712   0.00000  Uiso   1.00
H676   H     0.44626   0.70230   0.17737   0.00000  Uiso   1.00
H677   H     0.47598   0.75201   0.16003   0.00000  Uiso   1.00
O678   O     0.55704   0.76218   0.40922   0.00000  Uiso   1.00
C679   C     0.53115   0.72438   0.41384   0.00000  Uiso   1.00
H680   H     0.49119   0.72936   0.43218   0.00000  Uiso   1.00
H681   H     0.54382   0.70117   0.43382   0.00000  Uiso   1.00
C682   C     0.54033   0.70684   0.36503   0.00000  Uiso   1.00
H683   H     0.52821   0.72987   0.34458   0.00000  Uiso   1.00
H684   H     0.58001   0.70124   0.34628   0.00000  Uiso   1.00
C685   C     0.51286   0.99932   0.36809   0.00000  Uiso   1.00
H686   H     0.52373   0.97602   0.38910   0.00000  Uiso   1.00
H687   H     0.52159   0.98649   0.33237   0.00000  Uiso   1.00
H688   H     0.47294   0.67139   0.38443   0.00000  Uiso   1.00
C689   C     0.83337   0.91334   0.24990   0.00000  Uiso   1.00
C690   C     0.83325   0.75333   0.25025   0.00000  Uiso   1.00
C691   C     0.77338   0.80918   0.05621   0.00000  Uiso   1.00
C692   C     0.88042   0.77876   0.45348   0.00000  Uiso   1.00
C693   C     0.74085   0.82531   0.03718   0.00000  Uiso   1.00
C694   C     0.91397   0.77093   0.47525   0.00000  Uiso   1.00
C695   C     0.87778   0.97863   0.23421   0.00000  Uiso   1.00
C696   C     0.78881   0.68806   0.26623   0.00000  Uiso   1.00
C697   C     0.87774   0.68802   0.23473   0.00000  Uiso   1.00
C698   C     0.78884   0.97866   0.26585   0.00000  Uiso   1.00
C699   C     0.83326   0.70919   0.25048   0.00000  Uiso   1.00
C700   C     0.83333   0.95749   0.24986   0.00000  Uiso   1.00
C701   C     0.96480   0.80732   0.27901   0.00000  Uiso   1.00
C702   C     0.70162   0.85983   0.22157   0.00000  Uiso   1.00
C703   C     0.67929   0.80749   0.27922   0.00000  Uiso   1.00
C704   C     0.98711   0.85971   0.22143   0.00000  Uiso   1.00
C705   C     0.80282   0.83375   0.33836   0.00000  Uiso   1.00
C706   C     0.86369   0.83026   0.16198   0.00000  Uiso   1.00
C707   C     0.78379   0.83187   0.38993   0.00000  Uiso   1.00
C708   C     0.88179   0.81693   0.11256   0.00000  Uiso   1.00
C709   C     0.72133   0.83983   0.46765   0.00000  Uiso   1.00
C710   C     0.93416   0.77564   0.04630   0.00000  Uiso   1.00
C711   C     0.73518   0.84121   0.41891   0.00000  Uiso   1.00
C712   C     0.92115   0.78891   0.09293   0.00000  Uiso   1.00
C713   C     0.81667   0.81999   0.41042   0.00000  Uiso   1.00
C714   C     0.85241   0.82571   0.08751   0.00000  Uiso   1.00
C715   C     0.80228   0.81437   0.45863   0.00000  Uiso   1.00
C716   C     0.85919   0.80510   0.04565   0.00000  Uiso   1.00
C717   C     0.75455   0.82707   0.48806   0.00000  Uiso   1.00
C718   C     0.90345   0.78430   0.02171   0.00000  Uiso   1.00
C719   C     0.83576   0.80029   0.47855   0.00000  Uiso   1.00
C720   C     0.82300   0.80681   0.02672   0.00000  Uiso   1.00
H721   H     0.82285   0.84786   0.10152   0.00000  Uiso   1.00
H722   H     0.85452   0.81685   0.38825   0.00000  Uiso   1.00
H723   H     0.68419   0.84806   0.48949   0.00000  Uiso   1.00
H724   H     0.96617   0.75619   0.03076   0.00000  Uiso   1.00
H725   H     0.91233   0.96224   0.22157   0.00000  Uiso   1.00
H726   H     0.75427   0.70448   0.27891   0.00000  Uiso   1.00
H727   H     0.91226   0.70437   0.22256   0.00000  Uiso   1.00
H728   H     0.75432   0.96226   0.27844   0.00000  Uiso   1.00
H729   H     0.93775   0.78639   0.30213   0.00000  Uiso   1.00
H730   H     0.72861   0.88087   0.19859   0.00000  Uiso   1.00
H731   H     0.68840   0.78666   0.30241   0.00000  Uiso   1.00
H732   H     0.97794   0.88067   0.19840   0.00000  Uiso   1.00
N733   N     0.71426   0.83334   0.25001   0.00000  Uiso   1.00
N734   N     0.95241   0.83332   0.24999   0.00000  Uiso   1.00
O735   O     0.79512   0.89442   0.25001   0.00000  Uiso   1.00
O736   O     0.87154   0.77225   0.25000   0.00000  Uiso   1.00
O737   O     0.87157   0.89441   0.25000   0.00000  Uiso   1.00
O738   O     0.79510   0.77226   0.25000   0.00000  Uiso   1.00
O739   O     0.77328   0.83334   0.31613   0.00000  Uiso   1.00
O740   O     0.89339   0.83333   0.18388   0.00000  Uiso   1.00
O741   O     0.84972   0.83333   0.31612   0.00000  Uiso   1.00
O742   O     0.81695   0.83334   0.18388   0.00000  Uiso   1.00
Zn743  Zn    0.78229   0.83334   0.25000   0.00000  Uiso   1.00
Zn744  Zn    0.88438   0.83333   0.25000   0.00000  Uiso   1.00
C745   C     0.69556   0.84308   0.06867   0.00000  Uiso   1.00
N746   N     0.99315   0.85818   0.09385   0.00000  Uiso   1.00
C747   C     0.95930   0.74989   0.44886   0.00000  Uiso   1.00
N748   N     0.99556   0.73315   0.42770   0.00000  Uiso   1.00
C749   C     0.94459   0.76934   0.12115   0.00000  Uiso   1.00
N750   N     0.96275   0.75308   0.14400   0.00000  Uiso   1.00
C751   C     0.69919   0.85366   0.40013   0.00000  Uiso   1.00
N752   N     0.67024   0.86358   0.38520   0.00000  Uiso   1.00
O753   O     0.75691   0.77591   0.08686   0.00000  Uiso   1.00
C754   C     0.73722   0.78841   0.13414   0.00000  Uiso   1.00
H755   H     0.70013   0.80130   0.14293   0.00000  Uiso   1.00
H756   H     0.75933   0.81231   0.14270   0.00000  Uiso   1.00
C757   C     0.73395   0.74998   0.16479   0.00000  Uiso   1.00
H758   H     0.71848   0.75895   0.20228   0.00000  Uiso   1.00
H759   H     0.70917   0.72664   0.15881   0.00000  Uiso   1.00
C760   C     0.78370   0.72964   0.15406   0.00000  Uiso   1.00
H761   H     0.79931   0.71865   0.11712   0.00000  Uiso   1.00
H762   H     0.77960   0.70230   0.17737   0.00000  Uiso   1.00
H763   H     0.80932   0.75201   0.16003   0.00000  Uiso   1.00
O764   O     0.89037   0.76218   0.40922   0.00000  Uiso   1.00
C765   C     0.86448   0.72438   0.41384   0.00000  Uiso   1.00
H766   H     0.82452   0.72936   0.43218   0.00000  Uiso   1.00
H767   H     0.87715   0.70117   0.43382   0.00000  Uiso   1.00
C768   C     0.87367   0.70684   0.36503   0.00000  Uiso   1.00
H769   H     0.86154   0.72987   0.34458   0.00000  Uiso   1.00
H770   H     0.91334   0.70124   0.34628   0.00000  Uiso   1.00
C771   C     0.84620   0.99932   0.36809   0.00000  Uiso   1.00
H772   H     0.85706   0.97602   0.38910   0.00000  Uiso   1.00
H773   H     0.85492   0.98649   0.33237   0.00000  Uiso   1.00
H774   H     0.80627   0.67139   0.38443   0.00000  Uiso   1.00
C775   C     0.16670   0.24667   0.74990   0.00000  Uiso   1.00
C776   C     0.16659   0.08667   0.75025   0.00000  Uiso   1.00
C777   C     0.10671   0.14252   0.55621   0.00000  Uiso   1.00
C778   C     0.21375   0.11209   0.95348   0.00000  Uiso   1.00
C779   C     0.07419   0.15864   0.53718   0.00000  Uiso   1.00
C780   C     0.24730   0.10426   0.97525   0.00000  Uiso   1.00
C781   C     0.21112   0.31197   0.73421   0.00000  Uiso   1.00
C782   C     0.12214   0.02139   0.76623   0.00000  Uiso   1.00
C783   C     0.21107   0.02136   0.73473   0.00000  Uiso   1.00
C784   C     0.12217   0.31199   0.76585   0.00000  Uiso   1.00
C785   C     0.16659   0.04253   0.75048   0.00000  Uiso   1.00
C786   C     0.16666   0.29082   0.74986   0.00000  Uiso   1.00
C787   C     0.29813   0.14065   0.77901   0.00000  Uiso   1.00
C788   C     0.03495   0.19316   0.72157   0.00000  Uiso   1.00
C789   C     0.01263   0.14083   0.77922   0.00000  Uiso   1.00
C790   C     0.32044   0.19304   0.72143   0.00000  Uiso   1.00
C791   C     0.13616   0.16709   0.83836   0.00000  Uiso   1.00
C792   C     0.19702   0.16359   0.66198   0.00000  Uiso   1.00
C793   C     0.11712   0.16520   0.88993   0.00000  Uiso   1.00
C794   C     0.21513   0.15027   0.61256   0.00000  Uiso   1.00
C795   C     0.05466   0.17316   0.96765   0.00000  Uiso   1.00
C796   C     0.26750   0.10898   0.54630   0.00000  Uiso   1.00
C797   C     0.06852   0.17454   0.91891   0.00000  Uiso   1.00
C798   C     0.25448   0.12224   0.59293   0.00000  Uiso   1.00
C799   C     0.15000   0.15332   0.91042   0.00000  Uiso   1.00
C800   C     0.18575   0.15905   0.58751   0.00000  Uiso   1.00
C801   C     0.13561   0.14770   0.95863   0.00000  Uiso   1.00
C802   C     0.19252   0.13844   0.54565   0.00000  Uiso   1.00
C803   C     0.08789   0.16041   0.98806   0.00000  Uiso   1.00
C804   C     0.23679   0.11763   0.52171   0.00000  Uiso   1.00
C805   C     0.16909   0.13363   0.97855   0.00000  Uiso   1.00
C806   C     0.15633   0.14014   0.52672   0.00000  Uiso   1.00
H807   H     0.15618   0.18119   0.60152   0.00000  Uiso   1.00
H808   H     0.18785   0.15018   0.88825   0.00000  Uiso   1.00
H809   H     0.01753   0.18140   0.98949   0.00000  Uiso   1.00
H810   H     0.29950   0.08953   0.53076   0.00000  Uiso   1.00
H811   H     0.24567   0.29558   0.72157   0.00000  Uiso   1.00
H812   H     0.08761   0.03781   0.77891   0.00000  Uiso   1.00
H813   H     0.24559   0.03770   0.72256   0.00000  Uiso   1.00
H814   H     0.08765   0.29560   0.77844   0.00000  Uiso   1.00
H815   H     0.27109   0.11973   0.80213   0.00000  Uiso   1.00
H816   H     0.06194   0.21420   0.69859   0.00000  Uiso   1.00
H817   H     0.02174   0.11999   0.80241   0.00000  Uiso   1.00
H818   H     0.31127   0.21400   0.69840   0.00000  Uiso   1.00
N819   N     0.04759   0.16668   0.75001   0.00000  Uiso   1.00
N820   N     0.28574   0.16666   0.74999   0.00000  Uiso   1.00
O821   O     0.12846   0.22775   0.75001   0.00000  Uiso   1.00
O822   O     0.20488   0.10558   0.75000   0.00000  Uiso   1.00
O823   O     0.20490   0.22774   0.75000   0.00000  Uiso   1.00
O824   O     0.12843   0.10559   0.75000   0.00000  Uiso   1.00
O825   O     0.10661   0.16667   0.81613   0.00000  Uiso   1.00
O826   O     0.22672   0.16666   0.68388   0.00000  Uiso   1.00
O827   O     0.18305   0.16666   0.81612   0.00000  Uiso   1.00
O828   O     0.15028   0.16667   0.68388   0.00000  Uiso   1.00
Zn829  Zn    0.11562   0.16667   0.75000   0.00000  Uiso   1.00
Zn830  Zn    0.21771   0.16666   0.75000   0.00000  Uiso   1.00
C831   C     0.02890   0.17641   0.56867   0.00000  Uiso   1.00
N832   N     0.32649   0.19151   0.59385   0.00000  Uiso   1.00
C833   C     0.29263   0.08322   0.94886   0.00000  Uiso   1.00
N834   N     0.32889   0.06648   0.92770   0.00000  Uiso   1.00
C835   C     0.27792   0.10267   0.62115   0.00000  Uiso   1.00
N836   N     0.29608   0.08642   0.64400   0.00000  Uiso   1.00
C837   C     0.03252   0.18699   0.90013   0.00000  Uiso   1.00
N838   N     0.00358   0.19691   0.88520   0.00000  Uiso   1.00
O839   O     0.09024   0.10924   0.58686   0.00000  Uiso   1.00
C840   C     0.07055   0.12174   0.63414   0.00000  Uiso   1.00
H841   H     0.03346   0.13463   0.64293   0.00000  Uiso   1.00
H842   H     0.09266   0.14565   0.64270   0.00000  Uiso   1.00
C843   C     0.06729   0.08331   0.66479   0.00000  Uiso   1.00
H844   H     0.05181   0.09228   0.70228   0.00000  Uiso   1.00
H845   H     0.04250   0.05997   0.65881   0.00000  Uiso   1.00
C846   C     0.11703   0.06297   0.65406   0.00000  Uiso   1.00
H847   H     0.13264   0.05199   0.61712   0.00000  Uiso   1.00
H848   H     0.11293   0.03564   0.67737   0.00000  Uiso   1.00
H849   H     0.14265   0.08534   0.66003   0.00000  Uiso   1.00
O850   O     0.22370   0.09551   0.90922   0.00000  Uiso   1.00
C851   C     0.19782   0.05771   0.91384   0.00000  Uiso   1.00
H852   H     0.15785   0.06270   0.93218   0.00000  Uiso   1.00
H853   H     0.21049   0.03450   0.93382   0.00000  Uiso   1.00
C854   C     0.20700   0.04017   0.86503   0.00000  Uiso   1.00
H855   H     0.19487   0.06321   0.84458   0.00000  Uiso   1.00
H856   H     0.24668   0.03457   0.84628   0.00000  Uiso   1.00
C857   C     0.17953   0.33266   0.86809   0.00000  Uiso   1.00
H858   H     0.19040   0.30935   0.88910   0.00000  Uiso   1.00
H859   H     0.18826   0.31983   0.83237   0.00000  Uiso   1.00
H860   H     0.13960   0.00472   0.88443   0.00000  Uiso   1.00
C861   C     0.50003   0.24667   0.74990   0.00000  Uiso   1.00
C862   C     0.49992   0.08667   0.75025   0.00000  Uiso   1.00
C863   C     0.44005   0.14252   0.55621   0.00000  Uiso   1.00
C864   C     0.54709   0.11209   0.95348   0.00000  Uiso   1.00
C865   C     0.40752   0.15864   0.53718   0.00000  Uiso   1.00
C866   C     0.58063   0.10426   0.97525   0.00000  Uiso   1.00
C867   C     0.54445   0.31197   0.73421   0.00000  Uiso   1.00
C868   C     0.45548   0.02139   0.76623   0.00000  Uiso   1.00
C869   C     0.54441   0.02136   0.73473   0.00000  Uiso   1.00
C870   C     0.45551   0.31199   0.76585   0.00000  Uiso   1.00
C871   C     0.49993   0.04253   0.75048   0.00000  Uiso   1.00
C872   C     0.50000   0.29082   0.74986   0.00000  Uiso   1.00
C873   C     0.63147   0.14065   0.77901   0.00000  Uiso   1.00
C874   C     0.36829   0.19316   0.72157   0.00000  Uiso   1.00
C875   C     0.34596   0.14083   0.77922   0.00000  Uiso   1.00
C876   C     0.65378   0.19304   0.72143   0.00000  Uiso   1.00
C877   C     0.46949   0.16709   0.83836   0.00000  Uiso   1.00
C878   C     0.53036   0.16359   0.66198   0.00000  Uiso   1.00
C879   C     0.45045   0.16520   0.88993   0.00000  Uiso   1.00
C880   C     0.54846   0.15027   0.61256   0.00000  Uiso   1.00
C881   C     0.38800   0.17316   0.96765   0.00000  Uiso   1.00
C882   C     0.60083   0.10898   0.54630   0.00000  Uiso   1.00
C883   C     0.40185   0.17454   0.91891   0.00000  Uiso   1.00
C884   C     0.58781   0.12224   0.59293   0.00000  Uiso   1.00
C885   C     0.48334   0.15332   0.91042   0.00000  Uiso   1.00
C886   C     0.51908   0.15905   0.58751   0.00000  Uiso   1.00
C887   C     0.46894   0.14770   0.95863   0.00000  Uiso   1.00
C888   C     0.52586   0.13844   0.54565   0.00000  Uiso   1.00
C889   C     0.42122   0.16041   0.98806   0.00000  Uiso   1.00
C890   C     0.57012   0.11763   0.52171   0.00000  Uiso   1.00
C891   C     0.50243   0.13363   0.97855   0.00000  Uiso   1.00
C892   C     0.48967   0.14014   0.52672   0.00000  Uiso   1.00
H893   H     0.48951   0.18119   0.60152   0.00000  Uiso   1.00
H894   H     0.52118   0.15018   0.88825   0.00000  Uiso   1.00
H895   H     0.35086   0.18140   0.98949   0.00000  Uiso   1.00
H896   H     0.63283   0.08953   0.53076   0.00000  Uiso   1.00
H897   H     0.57900   0.29558   0.72157   0.00000  Uiso   1.00
H898   H     0.42094   0.03781   0.77891   0.00000  Uiso   1.00
H899   H     0.57893   0.03770   0.72256   0.00000  Uiso   1.00
H900   H     0.42098   0.29560   0.77844   0.00000  Uiso   1.00
H901   H     0.60442   0.11973   0.80213   0.00000  Uiso   1.00
H902   H     0.39527   0.21420   0.69859   0.00000  Uiso   1.00
H903   H     0.35507   0.11999   0.80241   0.00000  Uiso   1.00
H904   H     0.64461   0.21400   0.69840   0.00000  Uiso   1.00
N905   N     0.38093   0.16668   0.75001   0.00000  Uiso   1.00
N906   N     0.61907   0.16666   0.74999   0.00000  Uiso   1.00
O907   O     0.46179   0.22775   0.75001   0.00000  Uiso   1.00
O908   O     0.53821   0.10558   0.75000   0.00000  Uiso   1.00
O909   O     0.53823   0.22774   0.75000   0.00000  Uiso   1.00
O910   O     0.46177   0.10559   0.75000   0.00000  Uiso   1.00
O911   O     0.43994   0.16667   0.81613   0.00000  Uiso   1.00
O912   O     0.56006   0.16666   0.68388   0.00000  Uiso   1.00
O913   O     0.51639   0.16666   0.81612   0.00000  Uiso   1.00
O914   O     0.48361   0.16667   0.68388   0.00000  Uiso   1.00
Zn915  Zn    0.44896   0.16667   0.75000   0.00000  Uiso   1.00
Zn916  Zn    0.55104   0.16666   0.75000   0.00000  Uiso   1.00
C917   C     0.36223   0.17641   0.56867   0.00000  Uiso   1.00
N918   N     0.65982   0.19151   0.59385   0.00000  Uiso   1.00
C919   C     0.62597   0.08322   0.94886   0.00000  Uiso   1.00
N920   N     0.66223   0.06648   0.92770   0.00000  Uiso   1.00
C921   C     0.61125   0.10267   0.62115   0.00000  Uiso   1.00
N922   N     0.62942   0.08642   0.64400   0.00000  Uiso   1.00
C923   C     0.36586   0.18699   0.90013   0.00000  Uiso   1.00
N924   N     0.33691   0.19691   0.88520   0.00000  Uiso   1.00
O925   O     0.42358   0.10924   0.58686   0.00000  Uiso   1.00
C926   C     0.40389   0.12174   0.63414   0.00000  Uiso   1.00
H927   H     0.36679   0.13463   0.64293   0.00000  Uiso   1.00
H928   H     0.42600   0.14565   0.64270   0.00000  Uiso   1.00
C929   C     0.40062   0.08331   0.66479   0.00000  Uiso   1.00
H930   H     0.38514   0.09228   0.70228   0.00000  Uiso   1.00
H931   H     0.37583   0.05997   0.65881   0.00000  Uiso   1.00
C932   C     0.45036   0.06297   0.65406   0.00000  Uiso   1.00
H933   H     0.46597   0.05199   0.61712   0.00000  Uiso   1.00
H934   H     0.44626   0.03564   0.67737   0.00000  Uiso   1.00
H935   H     0.47598   0.08534   0.66003   0.00000  Uiso   1.00
O936   O     0.55704   0.09551   0.90922   0.00000  Uiso   1.00
C937   C     0.53115   0.05771   0.91384   0.00000  Uiso   1.00
H938   H     0.49119   0.06270   0.93218   0.00000  Uiso   1.00
H939   H     0.54382   0.03450   0.93382   0.00000  Uiso   1.00
C940   C     0.54033   0.04017   0.86503   0.00000  Uiso   1.00
H941   H     0.52821   0.06321   0.84458   0.00000  Uiso   1.00
H942   H     0.58001   0.03457   0.84628   0.00000  Uiso   1.00
C943   C     0.51286   0.33266   0.86809   0.00000  Uiso   1.00
H944   H     0.52373   0.30935   0.88910   0.00000  Uiso   1.00
H945   H     0.52159   0.31983   0.83237   0.00000  Uiso   1.00
H946   H     0.47294   0.00472   0.88443   0.00000  Uiso   1.00
C947   C     0.83337   0.24667   0.74990   0.00000  Uiso   1.00
C948   C     0.83325   0.08667   0.75025   0.00000  Uiso   1.00
C949   C     0.77338   0.14252   0.55621   0.00000  Uiso   1.00
C950   C     0.88042   0.11209   0.95348   0.00000  Uiso   1.00
C951   C     0.74085   0.15864   0.53718   0.00000  Uiso   1.00
C952   C     0.91397   0.10426   0.97525   0.00000  Uiso   1.00
C953   C     0.87778   0.31197   0.73421   0.00000  Uiso   1.00
C954   C     0.78881   0.02139   0.76623   0.00000  Uiso   1.00
C955   C     0.87774   0.02136   0.73473   0.00000  Uiso   1.00
C956   C     0.78884   0.31199   0.76585   0.00000  Uiso   1.00
C957   C     0.83326   0.04253   0.75048   0.00000  Uiso   1.00
C958   C     0.83333   0.29082   0.74986   0.00000  Uiso   1.00
C959   C     0.96480   0.14065   0.77901   0.00000  Uiso   1.00
C960   C     0.70162   0.19316   0.72157   0.00000  Uiso   1.00
C961   C     0.67929   0.14083   0.77922   0.00000  Uiso   1.00
C962   C     0.98711   0.19304   0.72143   0.00000  Uiso   1.00
C963   C     0.80282   0.16709   0.83836   0.00000  Uiso   1.00
C964   C     0.86369   0.16359   0.66198   0.00000  Uiso   1.00
C965   C     0.78379   0.16520   0.88993   0.00000  Uiso   1.00
C966   C     0.88179   0.15027   0.61256   0.00000  Uiso   1.00
C967   C     0.72133   0.17316   0.96765   0.00000  Uiso   1.00
C968   C     0.93416   0.10898   0.54630   0.00000  Uiso   1.00
C969   C     0.73518   0.17454   0.91891   0.00000  Uiso   1.00
C970   C     0.92115   0.12224   0.59293   0.00000  Uiso   1.00
C971   C     0.81667   0.15332   0.91042   0.00000  Uiso   1.00
C972   C     0.85241   0.15905   0.58751   0.00000  Uiso   1.00
C973   C     0.80228   0.14770   0.95863   0.00000  Uiso   1.00
C974   C     0.85919   0.13844   0.54565   0.00000  Uiso   1.00
C975   C     0.75455   0.16041   0.98806   0.00000  Uiso   1.00
C976   C     0.90345   0.11763   0.52171   0.00000  Uiso   1.00
C977   C     0.83576   0.13363   0.97855   0.00000  Uiso   1.00
C978   C     0.82300   0.14014   0.52672   0.00000  Uiso   1.00
H979   H     0.82285   0.18119   0.60152   0.00000  Uiso   1.00
H980   H     0.85452   0.15018   0.88825   0.00000  Uiso   1.00
H981   H     0.68419   0.18140   0.98949   0.00000  Uiso   1.00
H982   H     0.96617   0.08953   0.53076   0.00000  Uiso   1.00
H983   H     0.91233   0.29558   0.72157   0.00000  Uiso   1.00
H984   H     0.75427   0.03781   0.77891   0.00000  Uiso   1.00
H985   H     0.91226   0.03770   0.72256   0.00000  Uiso   1.00
H986   H     0.75432   0.29560   0.77844   0.00000  Uiso   1.00
H987   H     0.93775   0.11973   0.80213   0.00000  Uiso   1.00
H988   H     0.72861   0.21420   0.69859   0.00000  Uiso   1.00
H989   H     0.68840   0.11999   0.80241   0.00000  Uiso   1.00
H990   H     0.97794   0.21400   0.69840   0.00000  Uiso   1.00
N991   N     0.71426   0.16668   0.75001   0.00000  Uiso   1.00
N992   N     0.95241   0.16666   0.74999   0.00000  Uiso   1.00
O993   O     0.79512   0.22775   0.75001   0.00000  Uiso   1.00
O994   O     0.87154   0.10558   0.75000   0.00000  Uiso   1.00
O995   O     0.87157   0.22774   0.75000   0.00000  Uiso   1.00
O996   O     0.79510   0.10559   0.75000   0.00000  Uiso   1.00
O997   O     0.77328   0.16667   0.81613   0.00000  Uiso   1.00
O998   O     0.89339   0.16666   0.68388   0.00000  Uiso   1.00
O999   O     0.84972   0.16666   0.81612   0.00000  Uiso   1.00
O1000  O     0.81695   0.16667   0.68388   0.00000  Uiso   1.00
Zn1001 Zn    0.78229   0.16667   0.75000   0.00000  Uiso   1.00
Zn1002 Zn    0.88438   0.16666   0.75000   0.00000  Uiso   1.00
C1003  C     0.69556   0.17641   0.56867   0.00000  Uiso   1.00
N1004  N     0.99315   0.19151   0.59385   0.00000  Uiso   1.00
C1005  C     0.95930   0.08322   0.94886   0.00000  Uiso   1.00
N1006  N     0.99556   0.06648   0.92770   0.00000  Uiso   1.00
C1007  C     0.94459   0.10267   0.62115   0.00000  Uiso   1.00
N1008  N     0.96275   0.08642   0.64400   0.00000  Uiso   1.00
C1009  C     0.69919   0.18699   0.90013   0.00000  Uiso   1.00
N1010  N     0.67024   0.19691   0.88520   0.00000  Uiso   1.00
O1011  O     0.75691   0.10924   0.58686   0.00000  Uiso   1.00
C1012  C     0.73722   0.12174   0.63414   0.00000  Uiso   1.00
H1013  H     0.70013   0.13463   0.64293   0.00000  Uiso   1.00
H1014  H     0.75933   0.14565   0.64270   0.00000  Uiso   1.00
C1015  C     0.73395   0.08331   0.66479   0.00000  Uiso   1.00
H1016  H     0.71848   0.09228   0.70228   0.00000  Uiso   1.00
H1017  H     0.70917   0.05997   0.65881   0.00000  Uiso   1.00
C1018  C     0.78370   0.06297   0.65406   0.00000  Uiso   1.00
H1019  H     0.79931   0.05199   0.61712   0.00000  Uiso   1.00
H1020  H     0.77960   0.03564   0.67737   0.00000  Uiso   1.00
H1021  H     0.80932   0.08534   0.66003   0.00000  Uiso   1.00
O1022  O     0.89037   0.09551   0.90922   0.00000  Uiso   1.00
C1023  C     0.86448   0.05771   0.91384   0.00000  Uiso   1.00
H1024  H     0.82452   0.06270   0.93218   0.00000  Uiso   1.00
H1025  H     0.87715   0.03450   0.93382   0.00000  Uiso   1.00
C1026  C     0.87367   0.04017   0.86503   0.00000  Uiso   1.00
H1027  H     0.86154   0.06321   0.84458   0.00000  Uiso   1.00
H1028  H     0.91334   0.03457   0.84628   0.00000  Uiso   1.00
C1029  C     0.84620   0.33266   0.86809   0.00000  Uiso   1.00
H1030  H     0.85706   0.30935   0.88910   0.00000  Uiso   1.00
H1031  H     0.85492   0.31983   0.83237   0.00000  Uiso   1.00
H1032  H     0.80627   0.00472   0.88443   0.00000  Uiso   1.00
C1033  C     0.16670   0.58001   0.74990   0.00000  Uiso   1.00
C1034  C     0.16659   0.42000   0.75025   0.00000  Uiso   1.00
C1035  C     0.10671   0.47585   0.55621   0.00000  Uiso   1.00
C1036  C     0.21375   0.44543   0.95348   0.00000  Uiso   1.00
C1037  C     0.07419   0.49197   0.53718   0.00000  Uiso   1.00
C1038  C     0.24730   0.43760   0.97525   0.00000  Uiso   1.00
C1039  C     0.21112   0.64530   0.73421   0.00000  Uiso   1.00
C1040  C     0.12214   0.35472   0.76623   0.00000  Uiso   1.00
C1041  C     0.21107   0.35469   0.73473   0.00000  Uiso   1.00
C1042  C     0.12217   0.64532   0.76585   0.00000  Uiso   1.00
C1043  C     0.16659   0.37586   0.75048   0.00000  Uiso   1.00
C1044  C     0.16666   0.62416   0.74986   0.00000  Uiso   1.00
C1045  C     0.29813   0.47398   0.77901   0.00000  Uiso   1.00
C1046  C     0.03495   0.52649   0.72157   0.00000  Uiso   1.00
C1047  C     0.01263   0.47416   0.77922   0.00000  Uiso   1.00
C1048  C     0.32044   0.52637   0.72143   0.00000  Uiso   1.00
C1049  C     0.13616   0.50042   0.83836   0.00000  Uiso   1.00
C1050  C     0.19702   0.49693   0.66198   0.00000  Uiso   1.00
C1051  C     0.11712   0.49854   0.88993   0.00000  Uiso   1.00
C1052  C     0.21513   0.48360   0.61256   0.00000  Uiso   1.00
C1053  C     0.05466   0.50650   0.96765   0.00000  Uiso   1.00
C1054  C     0.26750   0.44231   0.54630   0.00000  Uiso   1.00
C1055  C     0.06852   0.50788   0.91891   0.00000  Uiso   1.00
C1056  C     0.25448   0.45557   0.59293   0.00000  Uiso   1.00
C1057  C     0.15000   0.48665   0.91042   0.00000  Uiso   1.00
C1058  C     0.18575   0.49238   0.58751   0.00000  Uiso   1.00
C1059  C     0.13561   0.48103   0.95863   0.00000  Uiso   1.00
C1060  C     0.19252   0.47177   0.54565   0.00000  Uiso   1.00
C1061  C     0.08789   0.49374   0.98806   0.00000  Uiso   1.00
C1062  C     0.23679   0.45097   0.52171   0.00000  Uiso   1.00
C1063  C     0.16909   0.46696   0.97855   0.00000  Uiso   1.00
C1064  C     0.15633   0.47347   0.52672   0.00000  Uiso   1.00
H1065  H     0.15618   0.51452   0.60152   0.00000  Uiso   1.00
H1066  H     0.18785   0.48351   0.88825   0.00000  Uiso   1.00
H1067  H     0.01753   0.51473   0.98949   0.00000  Uiso   1.00
H1068  H     0.29950   0.42286   0.53076   0.00000  Uiso   1.00
H1069  H     0.24567   0.62891   0.72157   0.00000  Uiso   1.00
H1070  H     0.08761   0.37114   0.77891   0.00000  Uiso   1.00
H1071  H     0.24559   0.37104   0.72256   0.00000  Uiso   1.00
H1072  H     0.08765   0.62893   0.77844   0.00000  Uiso   1.00
H1073  H     0.27109   0.45306   0.80213   0.00000  Uiso   1.00
H1074  H     0.06194   0.54753   0.69859   0.00000  Uiso   1.00
H1075  H     0.02174   0.45333   0.80241   0.00000  Uiso   1.00
H1076  H     0.31127   0.54734   0.69840   0.00000  Uiso   1.00
N1077  N     0.04759   0.50001   0.75001   0.00000  Uiso   1.00
N1078  N     0.28574   0.49999   0.74999   0.00000  Uiso   1.00
O1079  O     0.12846   0.56108   0.75001   0.00000  Uiso   1.00
O1080  O     0.20488   0.43892   0.75000   0.00000  Uiso   1.00
O1081  O     0.20490   0.56107   0.75000   0.00000  Uiso   1.00
O1082  O     0.12843   0.43893   0.75000   0.00000  Uiso   1.00
O1083  O     0.10661   0.50001   0.81613   0.00000  Uiso   1.00
O1084  O     0.22672   0.49999   0.68388   0.00000  Uiso   1.00
O1085  O     0.18305   0.50000   0.81612   0.00000  Uiso   1.00
O1086  O     0.15028   0.50000   0.68388   0.00000  Uiso   1.00
Zn1087 Zn    0.11562   0.50001   0.75000   0.00000  Uiso   1.00
Zn1088 Zn    0.21771   0.49999   0.75000   0.00000  Uiso   1.00
C1089  C     0.02890   0.50975   0.56867   0.00000  Uiso   1.00
N1090  N     0.32649   0.52484   0.59385   0.00000  Uiso   1.00
C1091  C     0.29263   0.41656   0.94886   0.00000  Uiso   1.00
N1092  N     0.32889   0.39982   0.92770   0.00000  Uiso   1.00
C1093  C     0.27792   0.43600   0.62115   0.00000  Uiso   1.00
N1094  N     0.29608   0.41975   0.64400   0.00000  Uiso   1.00
C1095  C     0.03252   0.52032   0.90013   0.00000  Uiso   1.00
N1096  N     0.00358   0.53025   0.88520   0.00000  Uiso   1.00
O1097  O     0.09024   0.44258   0.58686   0.00000  Uiso   1.00
C1098  C     0.07055   0.45508   0.63414   0.00000  Uiso   1.00
H1099  H     0.03346   0.46796   0.64293   0.00000  Uiso   1.00
H1100  H     0.09266   0.47898   0.64270   0.00000  Uiso   1.00
C1101  C     0.06729   0.41665   0.66479   0.00000  Uiso   1.00
H1102  H     0.05181   0.42561   0.70228   0.00000  Uiso   1.00
H1103  H     0.04250   0.39331   0.65881   0.00000  Uiso   1.00
C1104  C     0.11703   0.39630   0.65406   0.00000  Uiso   1.00
H1105  H     0.13264   0.38532   0.61712   0.00000  Uiso   1.00
H1106  H     0.11293   0.36897   0.67737   0.00000  Uiso   1.00
H1107  H     0.14265   0.41867   0.66003   0.00000  Uiso   1.00
O1108  O     0.22370   0.42885   0.90922   0.00000  Uiso   1.00
C1109  C     0.19782   0.39104   0.91384   0.00000  Uiso   1.00
H1110  H     0.15785   0.39603   0.93218   0.00000  Uiso   1.00
H1111  H     0.21049   0.36784   0.93382   0.00000  Uiso   1.00
C1112  C     0.20700   0.37351   0.86503   0.00000  Uiso   1.00
H1113  H     0.19487   0.39654   0.84458   0.00000  Uiso   1.00
H1114  H     0.24668   0.36790   0.84628   0.00000  Uiso   1.00
C1115  C     0.17953   0.66599   0.86809   0.00000  Uiso   1.00
H1116  H     0.19040   0.64268   0.88910   0.00000  Uiso   1.00
H1117  H     0.18826   0.65316   0.83237   0.00000  Uiso   1.00
H1118  H     0.13960   0.33806   0.88443   0.00000  Uiso   1.00
C1119  C     0.50003   0.58001   0.74990   0.00000  Uiso   1.00
C1120  C     0.49992   0.42000   0.75025   0.00000  Uiso   1.00
C1121  C     0.44005   0.47585   0.55621   0.00000  Uiso   1.00
C1122  C     0.54709   0.44543   0.95348   0.00000  Uiso   1.00
C1123  C     0.40752   0.49197   0.53718   0.00000  Uiso   1.00
C1124  C     0.58063   0.43760   0.97525   0.00000  Uiso   1.00
C1125  C     0.54445   0.64530   0.73421   0.00000  Uiso   1.00
C1126  C     0.45548   0.35472   0.76623   0.00000  Uiso   1.00
C1127  C     0.54441   0.35469   0.73473   0.00000  Uiso   1.00
C1128  C     0.45551   0.64532   0.76585   0.00000  Uiso   1.00
C1129  C     0.49993   0.37586   0.75048   0.00000  Uiso   1.00
C1130  C     0.50000   0.62416   0.74986   0.00000  Uiso   1.00
C1131  C     0.63147   0.47398   0.77901   0.00000  Uiso   1.00
C1132  C     0.36829   0.52649   0.72157   0.00000  Uiso   1.00
C1133  C     0.34596   0.47416   0.77922   0.00000  Uiso   1.00
C1134  C     0.65378   0.52637   0.72143   0.00000  Uiso   1.00
C1135  C     0.46949   0.50042   0.83836   0.00000  Uiso   1.00
C1136  C     0.53036   0.49693   0.66198   0.00000  Uiso   1.00
C1137  C     0.45045   0.49854   0.88993   0.00000  Uiso   1.00
C1138  C     0.54846   0.48360   0.61256   0.00000  Uiso   1.00
C1139  C     0.38800   0.50650   0.96765   0.00000  Uiso   1.00
C1140  C     0.60083   0.44231   0.54630   0.00000  Uiso   1.00
C1141  C     0.40185   0.50788   0.91891   0.00000  Uiso   1.00
C1142  C     0.58781   0.45557   0.59293   0.00000  Uiso   1.00
C1143  C     0.48334   0.48665   0.91042   0.00000  Uiso   1.00
C1144  C     0.51908   0.49238   0.58751   0.00000  Uiso   1.00
C1145  C     0.46894   0.48103   0.95863   0.00000  Uiso   1.00
C1146  C     0.52586   0.47177   0.54565   0.00000  Uiso   1.00
C1147  C     0.42122   0.49374   0.98806   0.00000  Uiso   1.00
C1148  C     0.57012   0.45097   0.52171   0.00000  Uiso   1.00
C1149  C     0.50243   0.46696   0.97855   0.00000  Uiso   1.00
C1150  C     0.48967   0.47347   0.52672   0.00000  Uiso   1.00
H1151  H     0.48951   0.51452   0.60152   0.00000  Uiso   1.00
H1152  H     0.52118   0.48351   0.88825   0.00000  Uiso   1.00
H1153  H     0.35086   0.51473   0.98949   0.00000  Uiso   1.00
H1154  H     0.63283   0.42286   0.53076   0.00000  Uiso   1.00
H1155  H     0.57900   0.62891   0.72157   0.00000  Uiso   1.00
H1156  H     0.42094   0.37114   0.77891   0.00000  Uiso   1.00
H1157  H     0.57893   0.37104   0.72256   0.00000  Uiso   1.00
H1158  H     0.42098   0.62893   0.77844   0.00000  Uiso   1.00
H1159  H     0.60442   0.45306   0.80213   0.00000  Uiso   1.00
H1160  H     0.39527   0.54753   0.69859   0.00000  Uiso   1.00
H1161  H     0.35507   0.45333   0.80241   0.00000  Uiso   1.00
H1162  H     0.64461   0.54734   0.69840   0.00000  Uiso   1.00
N1163  N     0.38093   0.50001   0.75001   0.00000  Uiso   1.00
N1164  N     0.61907   0.49999   0.74999   0.00000  Uiso   1.00
O1165  O     0.46179   0.56108   0.75001   0.00000  Uiso   1.00
O1166  O     0.53821   0.43892   0.75000   0.00000  Uiso   1.00
O1167  O     0.53823   0.56107   0.75000   0.00000  Uiso   1.00
O1168  O     0.46177   0.43893   0.75000   0.00000  Uiso   1.00
O1169  O     0.43994   0.50001   0.81613   0.00000  Uiso   1.00
O1170  O     0.56006   0.49999   0.68388   0.00000  Uiso   1.00
O1171  O     0.51639   0.50000   0.81612   0.00000  Uiso   1.00
O1172  O     0.48361   0.50000   0.68388   0.00000  Uiso   1.00
Zn1173 Zn    0.44896   0.50001   0.75000   0.00000  Uiso   1.00
Zn1174 Zn    0.55104   0.49999   0.75000   0.00000  Uiso   1.00
C1175  C     0.36223   0.50975   0.56867   0.00000  Uiso   1.00
N1176  N     0.65982   0.52484   0.59385   0.00000  Uiso   1.00
C1177  C     0.62597   0.41656   0.94886   0.00000  Uiso   1.00
N1178  N     0.66223   0.39982   0.92770   0.00000  Uiso   1.00
C1179  C     0.61125   0.43600   0.62115   0.00000  Uiso   1.00
N1180  N     0.62942   0.41975   0.64400   0.00000  Uiso   1.00
C1181  C     0.36586   0.52032   0.90013   0.00000  Uiso   1.00
N1182  N     0.33691   0.53025   0.88520   0.00000  Uiso   1.00
O1183  O     0.42358   0.44258   0.58686   0.00000  Uiso   1.00
C1184  C     0.40389   0.45508   0.63414   0.00000  Uiso   1.00
H1185  H     0.36679   0.46796   0.64293   0.00000  Uiso   1.00
H1186  H     0.42600   0.47898   0.64270   0.00000  Uiso   1.00
C1187  C     0.40062   0.41665   0.66479   0.00000  Uiso   1.00
H1188  H     0.38514   0.42561   0.70228   0.00000  Uiso   1.00
H1189  H     0.37583   0.39331   0.65881   0.00000  Uiso   1.00
C1190  C     0.45036   0.39630   0.65406   0.00000  Uiso   1.00
H1191  H     0.46597   0.38532   0.61712   0.00000  Uiso   1.00
H1192  H     0.44626   0.36897   0.67737   0.00000  Uiso   1.00
H1193  H     0.47598   0.41867   0.66003   0.00000  Uiso   1.00
O1194  O     0.55704   0.42885   0.90922   0.00000  Uiso   1.00
C1195  C     0.53115   0.39104   0.91384   0.00000  Uiso   1.00
H1196  H     0.49119   0.39603   0.93218   0.00000  Uiso   1.00
H1197  H     0.54382   0.36784   0.93382   0.00000  Uiso   1.00
C1198  C     0.54033   0.37351   0.86503   0.00000  Uiso   1.00
H1199  H     0.52821   0.39654   0.84458   0.00000  Uiso   1.00
H1200  H     0.58001   0.36790   0.84628   0.00000  Uiso   1.00
C1201  C     0.51286   0.66599   0.86809   0.00000  Uiso   1.00
H1202  H     0.52373   0.64268   0.88910   0.00000  Uiso   1.00
H1203  H     0.52159   0.65316   0.83237   0.00000  Uiso   1.00
H1204  H     0.47294   0.33806   0.88443   0.00000  Uiso   1.00
C1205  C     0.83337   0.58001   0.74990   0.00000  Uiso   1.00
C1206  C     0.83325   0.42000   0.75025   0.00000  Uiso   1.00
C1207  C     0.77338   0.47585   0.55621   0.00000  Uiso   1.00
C1208  C     0.88042   0.44543   0.95348   0.00000  Uiso   1.00
C1209  C     0.74085   0.49197   0.53718   0.00000  Uiso   1.00
C1210  C     0.91397   0.43760   0.97525   0.00000  Uiso   1.00
C1211  C     0.87778   0.64530   0.73421   0.00000  Uiso   1.00
C1212  C     0.78881   0.35472   0.76623   0.00000  Uiso   1.00
C1213  C     0.87774   0.35469   0.73473   0.00000  Uiso   1.00
C1214  C     0.78884   0.64532   0.76585   0.00000  Uiso   1.00
C1215  C     0.83326   0.37586   0.75048   0.00000  Uiso   1.00
C1216  C     0.83333   0.62416   0.74986   0.00000  Uiso   1.00
C1217  C     0.96480   0.47398   0.77901   0.00000  Uiso   1.00
C1218  C     0.70162   0.52649   0.72157   0.00000  Uiso   1.00
C1219  C     0.67929   0.47416   0.77922   0.00000  Uiso   1.00
C1220  C     0.98711   0.52637   0.72143   0.00000  Uiso   1.00
C1221  C     0.80282   0.50042   0.83836   0.00000  Uiso   1.00
C1222  C     0.86369   0.49693   0.66198   0.00000  Uiso   1.00
C1223  C     0.78379   0.49854   0.88993   0.00000  Uiso   1.00
C1224  C     0.88179   0.48360   0.61256   0.00000  Uiso   1.00
C1225  C     0.72133   0.50650   0.96765   0.00000  Uiso   1.00
C1226  C     0.93416   0.44231   0.54630   0.00000  Uiso   1.00
C1227  C     0.73518   0.50788   0.91891   0.00000  Uiso   1.00
C1228  C     0.92115   0.45557   0.59293   0.00000  Uiso   1.00
C1229  C     0.81667   0.48665   0.91042   0.00000  Uiso   1.00
C1230  C     0.85241   0.49238   0.58751   0.00000  Uiso   1.00
C1231  C     0.80228   0.48103   0.95863   0.00000  Uiso   1.00
C1232  C     0.85919   0.47177   0.54565   0.00000  Uiso   1.00
C1233  C     0.75455   0.49374   0.98806   0.00000  Uiso   1.00
C1234  C     0.90345   0.45097   0.52171   0.00000  Uiso   1.00
C1235  C     0.83576   0.46696   0.97855   0.00000  Uiso   1.00
C1236  C     0.82300   0.47347   0.52672   0.00000  Uiso   1.00
H1237  H     0.82285   0.51452   0.60152   0.00000  Uiso   1.00
H1238  H     0.85452   0.48351   0.88825   0.00000  Uiso   1.00
H1239  H     0.68419   0.51473   0.98949   0.00000  Uiso   1.00
H1240  H     0.96617   0.42286   0.53076   0.00000  Uiso   1.00
H1241  H     0.91233   0.62891   0.72157   0.00000  Uiso   1.00
H1242  H     0.75427   0.37114   0.77891   0.00000  Uiso   1.00
H1243  H     0.91226   0.37104   0.72256   0.00000  Uiso   1.00
H1244  H     0.75432   0.62893   0.77844   0.00000  Uiso   1.00
H1245  H     0.93775   0.45306   0.80213   0.00000  Uiso   1.00
H1246  H     0.72861   0.54753   0.69859   0.00000  Uiso   1.00
H1247  H     0.68840   0.45333   0.80241   0.00000  Uiso   1.00
H1248  H     0.97794   0.54734   0.69840   0.00000  Uiso   1.00
N1249  N     0.71426   0.50001   0.75001   0.00000  Uiso   1.00
N1250  N     0.95241   0.49999   0.74999   0.00000  Uiso   1.00
O1251  O     0.79512   0.56108   0.75001   0.00000  Uiso   1.00
O1252  O     0.87154   0.43892   0.75000   0.00000  Uiso   1.00
O1253  O     0.87157   0.56107   0.75000   0.00000  Uiso   1.00
O1254  O     0.79510   0.43893   0.75000   0.00000  Uiso   1.00
O1255  O     0.77328   0.50001   0.81613   0.00000  Uiso   1.00
O1256  O     0.89339   0.49999   0.68388   0.00000  Uiso   1.00
O1257  O     0.84972   0.50000   0.81612   0.00000  Uiso   1.00
O1258  O     0.81695   0.50000   0.68388   0.00000  Uiso   1.00
Zn1259 Zn    0.78229   0.50001   0.75000   0.00000  Uiso   1.00
Zn1260 Zn    0.88438   0.49999   0.75000   0.00000  Uiso   1.00
C1261  C     0.69556   0.50975   0.56867   0.00000  Uiso   1.00
N1262  N     0.99315   0.52484   0.59385   0.00000  Uiso   1.00
C1263  C     0.95930   0.41656   0.94886   0.00000  Uiso   1.00
N1264  N     0.99556   0.39982   0.92770   0.00000  Uiso   1.00
C1265  C     0.94459   0.43600   0.62115   0.00000  Uiso   1.00
N1266  N     0.96275   0.41975   0.64400   0.00000  Uiso   1.00
C1267  C     0.69919   0.52032   0.90013   0.00000  Uiso   1.00
N1268  N     0.67024   0.53025   0.88520   0.00000  Uiso   1.00
O1269  O     0.75691   0.44258   0.58686   0.00000  Uiso   1.00
C1270  C     0.73722   0.45508   0.63414   0.00000  Uiso   1.00
H1271  H     0.70013   0.46796   0.64293   0.00000  Uiso   1.00
H1272  H     0.75933   0.47898   0.64270   0.00000  Uiso   1.00
C1273  C     0.73395   0.41665   0.66479   0.00000  Uiso   1.00
H1274  H     0.71848   0.42561   0.70228   0.00000  Uiso   1.00
H1275  H     0.70917   0.39331   0.65881   0.00000  Uiso   1.00
C1276  C     0.78370   0.39630   0.65406   0.00000  Uiso   1.00
H1277  H     0.79931   0.38532   0.61712   0.00000  Uiso   1.00
H1278  H     0.77960   0.36897   0.67737   0.00000  Uiso   1.00
H1279  H     0.80932   0.41867   0.66003   0.00000  Uiso   1.00
O1280  O     0.89037   0.42885   0.90922   0.00000  Uiso   1.00
C1281  C     0.86448   0.39104   0.91384   0.00000  Uiso   1.00
H1282  H     0.82452   0.39603   0.93218   0.00000  Uiso   1.00
H1283  H     0.87715   0.36784   0.93382   0.00000  Uiso   1.00
C1284  C     0.87367   0.37351   0.86503   0.00000  Uiso   1.00
H1285  H     0.86154   0.39654   0.84458   0.00000  Uiso   1.00
H1286  H     0.91334   0.36790   0.84628   0.00000  Uiso   1.00
C1287  C     0.84620   0.66599   0.86809   0.00000  Uiso   1.00
H1288  H     0.85706   0.64268   0.88910   0.00000  Uiso   1.00
H1289  H     0.85492   0.65316   0.83237   0.00000  Uiso   1.00
H1290  H     0.80627   0.33806   0.88443   0.00000  Uiso   1.00
C1291  C     0.16670   0.91334   0.74990   0.00000  Uiso   1.00
C1292  C     0.16659   0.75333   0.75025   0.00000  Uiso   1.00
C1293  C     0.10671   0.80918   0.55621   0.00000  Uiso   1.00
C1294  C     0.21375   0.77876   0.95348   0.00000  Uiso   1.00
C1295  C     0.07419   0.82531   0.53718   0.00000  Uiso   1.00
C1296  C     0.24730   0.77093   0.97525   0.00000  Uiso   1.00
C1297  C     0.21112   0.97863   0.73421   0.00000  Uiso   1.00
C1298  C     0.12214   0.68806   0.76623   0.00000  Uiso   1.00
C1299  C     0.21107   0.68802   0.73473   0.00000  Uiso   1.00
C1300  C     0.12217   0.97866   0.76585   0.00000  Uiso   1.00
C1301  C     0.16659   0.70919   0.75048   0.00000  Uiso   1.00
C1302  C     0.16666   0.95749   0.74986   0.00000  Uiso   1.00
C1303  C     0.29813   0.80732   0.77901   0.00000  Uiso   1.00
C1304  C     0.03495   0.85983   0.72157   0.00000  Uiso   1.00
C1305  C     0.01263   0.80749   0.77922   0.00000  Uiso   1.00
C1306  C     0.32044   0.85971   0.72143   0.00000  Uiso   1.00
C1307  C     0.13616   0.83375   0.83836   0.00000  Uiso   1.00
C1308  C     0.19702   0.83026   0.66198   0.00000  Uiso   1.00
C1309  C     0.11712   0.83187   0.88993   0.00000  Uiso   1.00
C1310  C     0.21513   0.81693   0.61256   0.00000  Uiso   1.00
C1311  C     0.05466   0.83983   0.96765   0.00000  Uiso   1.00
C1312  C     0.26750   0.77564   0.54630   0.00000  Uiso   1.00
C1313  C     0.06852   0.84121   0.91891   0.00000  Uiso   1.00
C1314  C     0.25448   0.78891   0.59293   0.00000  Uiso   1.00
C1315  C     0.15000   0.81999   0.91042   0.00000  Uiso   1.00
C1316  C     0.18575   0.82571   0.58751   0.00000  Uiso   1.00
C1317  C     0.13561   0.81437   0.95863   0.00000  Uiso   1.00
C1318  C     0.19252   0.80510   0.54565   0.00000  Uiso   1.00
C1319  C     0.08789   0.82707   0.98806   0.00000  Uiso   1.00
C1320  C     0.23679   0.78430   0.52171   0.00000  Uiso   1.00
C1321  C     0.16909   0.80029   0.97855   0.00000  Uiso   1.00
C1322  C     0.15633   0.80681   0.52672   0.00000  Uiso   1.00
H1323  H     0.15618   0.84786   0.60152   0.00000  Uiso   1.00
H1324  H     0.18785   0.81685   0.88825   0.00000  Uiso   1.00
H1325  H     0.01753   0.84806   0.98949   0.00000  Uiso   1.00
H1326  H     0.29950   0.75619   0.53076   0.00000  Uiso   1.00
H1327  H     0.24567   0.96224   0.72157   0.00000  Uiso   1.00
H1328  H     0.08761   0.70448   0.77891   0.00000  Uiso   1.00
H1329  H     0.24559   0.70437   0.72256   0.00000  Uiso   1.00
H1330  H     0.08765   0.96226   0.77844   0.00000  Uiso   1.00
H1331  H     0.27109   0.78639   0.80213   0.00000  Uiso   1.00
H1332  H     0.06194   0.88087   0.69859   0.00000  Uiso   1.00
H1333  H     0.02174   0.78666   0.80241   0.00000  Uiso   1.00
H1334  H     0.31127   0.88067   0.69840   0.00000  Uiso   1.00
N1335  N     0.04759   0.83334   0.75001   0.00000  Uiso   1.00
N1336  N     0.28574   0.83332   0.74999   0.00000  Uiso   1.00
O1337  O     0.12846   0.89442   0.75001   0.00000  Uiso   1.00
O1338  O     0.20488   0.77225   0.75000   0.00000  Uiso   1.00
O1339  O     0.20490   0.89441   0.75000   0.00000  Uiso   1.00
O1340  O     0.12843   0.77226   0.75000   0.00000  Uiso   1.00
O1341  O     0.10661   0.83334   0.81613   0.00000  Uiso   1.00
O1342  O     0.22672   0.83333   0.68388   0.00000  Uiso   1.00
O1343  O     0.18305   0.83333   0.81612   0.00000  Uiso   1.00
O1344  O     0.15028   0.83334   0.68388   0.00000  Uiso   1.00
Zn1345 Zn    0.11562   0.83334   0.75000   0.00000  Uiso   1.00
Zn1346 Zn    0.21771   0.83333   0.75000   0.00000  Uiso   1.00
C1347  C     0.02890   0.84308   0.56867   0.00000  Uiso   1.00
N1348  N     0.32649   0.85818   0.59385   0.00000  Uiso   1.00
C1349  C     0.29263   0.74989   0.94886   0.00000  Uiso   1.00
N1350  N     0.32889   0.73315   0.92770   0.00000  Uiso   1.00
C1351  C     0.27792   0.76934   0.62115   0.00000  Uiso   1.00
N1352  N     0.29608   0.75308   0.64400   0.00000  Uiso   1.00
C1353  C     0.03252   0.85366   0.90013   0.00000  Uiso   1.00
N1354  N     0.00358   0.86358   0.88520   0.00000  Uiso   1.00
O1355  O     0.09024   0.77591   0.58686   0.00000  Uiso   1.00
C1356  C     0.07055   0.78841   0.63414   0.00000  Uiso   1.00
H1357  H     0.03346   0.80130   0.64293   0.00000  Uiso   1.00
H1358  H     0.09266   0.81231   0.64270   0.00000  Uiso   1.00
C1359  C     0.06729   0.74998   0.66479   0.00000  Uiso   1.00
H1360  H     0.05181   0.75895   0.70228   0.00000  Uiso   1.00
H1361  H     0.04250   0.72664   0.65881   0.00000  Uiso   1.00
C1362  C     0.11703   0.72964   0.65406   0.00000  Uiso   1.00
H1363  H     0.13264   0.71865   0.61712   0.00000  Uiso   1.00
H1364  H     0.11293   0.70230   0.67737   0.00000  Uiso   1.00
H1365  H     0.14265   0.75201   0.66003   0.00000  Uiso   1.00
O1366  O     0.22370   0.76218   0.90922   0.00000  Uiso   1.00
C1367  C     0.19782   0.72438   0.91384   0.00000  Uiso   1.00
H1368  H     0.15785   0.72936   0.93218   0.00000  Uiso   1.00
H1369  H     0.21049   0.70117   0.93382   0.00000  Uiso   1.00
C1370  C     0.20700   0.70684   0.86503   0.00000  Uiso   1.00
H1371  H     0.19487   0.72987   0.84458   0.00000  Uiso   1.00
H1372  H     0.24668   0.70124   0.84628   0.00000  Uiso   1.00
C1373  C     0.17953   0.99932   0.86809   0.00000  Uiso   1.00
H1374  H     0.19040   0.97602   0.88910   0.00000  Uiso   1.00
H1375  H     0.18826   0.98649   0.83237   0.00000  Uiso   1.00
H1376  H     0.13960   0.67139   0.88443   0.00000  Uiso   1.00
C1377  C     0.50003   0.91334   0.74990   0.00000  Uiso   1.00
C1378  C     0.49992   0.75333   0.75025   0.00000  Uiso   1.00
C1379  C     0.44005   0.80918   0.55621   0.00000  Uiso   1.00
C1380  C     0.54709   0.77876   0.95348   0.00000  Uiso   1.00
C1381  C     0.40752   0.82531   0.53718   0.00000  Uiso   1.00
C1382  C     0.58063   0.77093   0.97525   0.00000  Uiso   1.00
C1383  C     0.54445   0.97863   0.73421   0.00000  Uiso   1.00
C1384  C     0.45548   0.68806   0.76623   0.00000  Uiso   1.00
C1385  C     0.54441   0.68802   0.73473   0.00000  Uiso   1.00
C1386  C     0.45551   0.97866   0.76585   0.00000  Uiso   1.00
C1387  C     0.49993   0.70919   0.75048   0.00000  Uiso   1.00
C1388  C     0.50000   0.95749   0.74986   0.00000  Uiso   1.00
C1389  C     0.63147   0.80732   0.77901   0.00000  Uiso   1.00
C1390  C     0.36829   0.85983   0.72157   0.00000  Uiso   1.00
C1391  C     0.34596   0.80749   0.77922   0.00000  Uiso   1.00
C1392  C     0.65378   0.85971   0.72143   0.00000  Uiso   1.00
C1393  C     0.46949   0.83375   0.83836   0.00000  Uiso   1.00
C1394  C     0.53036   0.83026   0.66198   0.00000  Uiso   1.00
C1395  C     0.45045   0.83187   0.88993   0.00000  Uiso   1.00
C1396  C     0.54846   0.81693   0.61256   0.00000  Uiso   1.00
C1397  C     0.38800   0.83983   0.96765   0.00000  Uiso   1.00
C1398  C     0.60083   0.77564   0.54630   0.00000  Uiso   1.00
C1399  C     0.40185   0.84121   0.91891   0.00000  Uiso   1.00
C1400  C     0.58781   0.78891   0.59293   0.00000  Uiso   1.00
C1401  C     0.48334   0.81999   0.91042   0.00000  Uiso   1.00
C1402  C     0.51908   0.82571   0.58751   0.00000  Uiso   1.00
C1403  C     0.46894   0.81437   0.95863   0.00000  Uiso   1.00
C1404  C     0.52586   0.80510   0.54565   0.00000  Uiso   1.00
C1405  C     0.42122   0.82707   0.98806   0.00000  Uiso   1.00
C1406  C     0.57012   0.78430   0.52171   0.00000  Uiso   1.00
C1407  C     0.50243   0.80029   0.97855   0.00000  Uiso   1.00
C1408  C     0.48967   0.80681   0.52672   0.00000  Uiso   1.00
H1409  H     0.48951   0.84786   0.60152   0.00000  Uiso   1.00
H1410  H     0.52118   0.81685   0.88825   0.00000  Uiso   1.00
H1411  H     0.35086   0.84806   0.98949   0.00000  Uiso   1.00
H1412  H     0.63283   0.75619   0.53076   0.00000  Uiso   1.00
H1413  H     0.57900   0.96224   0.72157   0.00000  Uiso   1.00
H1414  H     0.42094   0.70448   0.77891   0.00000  Uiso   1.00
H1415  H     0.57893   0.70437   0.72256   0.00000  Uiso   1.00
H1416  H     0.42098   0.96226   0.77844   0.00000  Uiso   1.00
H1417  H     0.60442   0.78639   0.80213   0.00000  Uiso   1.00
H1418  H     0.39527   0.88087   0.69859   0.00000  Uiso   1.00
H1419  H     0.35507   0.78666   0.80241   0.00000  Uiso   1.00
H1420  H     0.64461   0.88067   0.69840   0.00000  Uiso   1.00
N1421  N     0.38093   0.83334   0.75001   0.00000  Uiso   1.00
N1422  N     0.61907   0.83332   0.74999   0.00000  Uiso   1.00
O1423  O     0.46179   0.89442   0.75001   0.00000  Uiso   1.00
O1424  O     0.53821   0.77225   0.75000   0.00000  Uiso   1.00
O1425  O     0.53823   0.89441   0.75000   0.00000  Uiso   1.00
O1426  O     0.46177   0.77226   0.75000   0.00000  Uiso   1.00
O1427  O     0.43994   0.83334   0.81613   0.00000  Uiso   1.00
O1428  O     0.56006   0.83333   0.68388   0.00000  Uiso   1.00
O1429  O     0.51639   0.83333   0.81612   0.00000  Uiso   1.00
O1430  O     0.48361   0.83334   0.68388   0.00000  Uiso   1.00
Zn1431 Zn    0.44896   0.83334   0.75000   0.00000  Uiso   1.00
Zn1432 Zn    0.55104   0.83333   0.75000   0.00000  Uiso   1.00
C1433  C     0.36223   0.84308   0.56867   0.00000  Uiso   1.00
N1434  N     0.65982   0.85818   0.59385   0.00000  Uiso   1.00
C1435  C     0.62597   0.74989   0.94886   0.00000  Uiso   1.00
N1436  N     0.66223   0.73315   0.92770   0.00000  Uiso   1.00
C1437  C     0.61125   0.76934   0.62115   0.00000  Uiso   1.00
N1438  N     0.62942   0.75308   0.64400   0.00000  Uiso   1.00
C1439  C     0.36586   0.85366   0.90013   0.00000  Uiso   1.00
N1440  N     0.33691   0.86358   0.88520   0.00000  Uiso   1.00
O1441  O     0.42358   0.77591   0.58686   0.00000  Uiso   1.00
C1442  C     0.40389   0.78841   0.63414   0.00000  Uiso   1.00
H1443  H     0.36679   0.80130   0.64293   0.00000  Uiso   1.00
H1444  H     0.42600   0.81231   0.64270   0.00000  Uiso   1.00
C1445  C     0.40062   0.74998   0.66479   0.00000  Uiso   1.00
H1446  H     0.38514   0.75895   0.70228   0.00000  Uiso   1.00
H1447  H     0.37583   0.72664   0.65881   0.00000  Uiso   1.00
C1448  C     0.45036   0.72964   0.65406   0.00000  Uiso   1.00
H1449  H     0.46597   0.71865   0.61712   0.00000  Uiso   1.00
H1450  H     0.44626   0.70230   0.67737   0.00000  Uiso   1.00
H1451  H     0.47598   0.75201   0.66003   0.00000  Uiso   1.00
O1452  O     0.55704   0.76218   0.90922   0.00000  Uiso   1.00
C1453  C     0.53115   0.72438   0.91384   0.00000  Uiso   1.00
H1454  H     0.49119   0.72936   0.93218   0.00000  Uiso   1.00
H1455  H     0.54382   0.70117   0.93382   0.00000  Uiso   1.00
C1456  C     0.54033   0.70684   0.86503   0.00000  Uiso   1.00
H1457  H     0.52821   0.72987   0.84458   0.00000  Uiso   1.00
H1458  H     0.58001   0.70124   0.84628   0.00000  Uiso   1.00
C1459  C     0.51286   0.99932   0.86809   0.00000  Uiso   1.00
H1460  H     0.52373   0.97602   0.88910   0.00000  Uiso   1.00
H1461  H     0.52159   0.98649   0.83237   0.00000  Uiso   1.00
H1462  H     0.47294   0.67139   0.88443   0.00000  Uiso   1.00
C1463  C     0.83337   0.91334   0.74990   0.00000  Uiso   1.00
C1464  C     0.83325   0.75333   0.75025   0.00000  Uiso   1.00
C1465  C     0.77338   0.80918   0.55621   0.00000  Uiso   1.00
C1466  C     0.88042   0.77876   0.95348   0.00000  Uiso   1.00
C1467  C     0.74085   0.82531   0.53718   0.00000  Uiso   1.00
C1468  C     0.91397   0.77093   0.97525   0.00000  Uiso   1.00
C1469  C     0.87778   0.97863   0.73421   0.00000  Uiso   1.00
C1470  C     0.78881   0.68806   0.76623   0.00000  Uiso   1.00
C1471  C     0.87774   0.68802   0.73473   0.00000  Uiso   1.00
C1472  C     0.78884   0.97866   0.76585   0.00000  Uiso   1.00
C1473  C     0.83326   0.70919   0.75048   0.00000  Uiso   1.00
C1474  C     0.83333   0.95749   0.74986   0.00000  Uiso   1.00
C1475  C     0.96480   0.80732   0.77901   0.00000  Uiso   1.00
C1476  C     0.70162   0.85983   0.72157   0.00000  Uiso   1.00
C1477  C     0.67929   0.80749   0.77922   0.00000  Uiso   1.00
C1478  C     0.98711   0.85971   0.72143   0.00000  Uiso   1.00
C1479  C     0.80282   0.83375   0.83836   0.00000  Uiso   1.00
C1480  C     0.86369   0.83026   0.66198   0.00000  Uiso   1.00
C1481  C     0.78379   0.83187   0.88993   0.00000  Uiso   1.00
C1482  C     0.88179   0.81693   0.61256   0.00000  Uiso   1.00
C1483  C     0.72133   0.83983   0.96765   0.00000  Uiso   1.00
C1484  C     0.93416   0.77564   0.54630   0.00000  Uiso   1.00
C1485  C     0.73518   0.84121   0.91891   0.00000  Uiso   1.00
C1486  C     0.92115   0.78891   0.59293   0.00000  Uiso   1.00
C1487  C     0.81667   0.81999   0.91042   0.00000  Uiso   1.00
C1488  C     0.85241   0.82571   0.58751   0.00000  Uiso   1.00
C1489  C     0.80228   0.81437   0.95863   0.00000  Uiso   1.00
C1490  C     0.85919   0.80510   0.54565   0.00000  Uiso   1.00
C1491  C     0.75455   0.82707   0.98806   0.00000  Uiso   1.00
C1492  C     0.90345   0.78430   0.52171   0.00000  Uiso   1.00
C1493  C     0.83576   0.80029   0.97855   0.00000  Uiso   1.00
C1494  C     0.82300   0.80681   0.52672   0.00000  Uiso   1.00
H1495  H     0.82285   0.84786   0.60152   0.00000  Uiso   1.00
H1496  H     0.85452   0.81685   0.88825   0.00000  Uiso   1.00
H1497  H     0.68419   0.84806   0.98949   0.00000  Uiso   1.00
H1498  H     0.96617   0.75619   0.53076   0.00000  Uiso   1.00
H1499  H     0.91233   0.96224   0.72157   0.00000  Uiso   1.00
H1500  H     0.75427   0.70448   0.77891   0.00000  Uiso   1.00
H1501  H     0.91226   0.70437   0.72256   0.00000  Uiso   1.00
H1502  H     0.75432   0.96226   0.77844   0.00000  Uiso   1.00
H1503  H     0.93775   0.78639   0.80213   0.00000  Uiso   1.00
H1504  H     0.72861   0.88087   0.69859   0.00000  Uiso   1.00
H1505  H     0.68840   0.78666   0.80241   0.00000  Uiso   1.00
H1506  H     0.97794   0.88067   0.69840   0.00000  Uiso   1.00
N1507  N     0.71426   0.83334   0.75001   0.00000  Uiso   1.00
N1508  N     0.95241   0.83332   0.74999   0.00000  Uiso   1.00
O1509  O     0.79512   0.89442   0.75001   0.00000  Uiso   1.00
O1510  O     0.87154   0.77225   0.75000   0.00000  Uiso   1.00
O1511  O     0.87157   0.89441   0.75000   0.00000  Uiso   1.00
O1512  O     0.79510   0.77226   0.75000   0.00000  Uiso   1.00
O1513  O     0.77328   0.83334   0.81613   0.00000  Uiso   1.00
O1514  O     0.89339   0.83333   0.68388   0.00000  Uiso   1.00
O1515  O     0.84972   0.83333   0.81612   0.00000  Uiso   1.00
O1516  O     0.81695   0.83334   0.68388   0.00000  Uiso   1.00
Zn1517 Zn    0.78229   0.83334   0.75000   0.00000  Uiso   1.00
Zn1518 Zn    0.88438   0.83333   0.75000   0.00000  Uiso   1.00
C1519  C     0.69556   0.84308   0.56867   0.00000  Uiso   1.00
N1520  N     0.99315   0.85818   0.59385   0.00000  Uiso   1.00
C1521  C     0.95930   0.74989   0.94886   0.00000  Uiso   1.00
N1522  N     0.99556   0.73315   0.92770   0.00000  Uiso   1.00
C1523  C     0.94459   0.76934   0.62115   0.00000  Uiso   1.00
N1524  N     0.96275   0.75308   0.64400   0.00000  Uiso   1.00
C1525  C     0.69919   0.85366   0.90013   0.00000  Uiso   1.00
N1526  N     0.67024   0.86358   0.88520   0.00000  Uiso   1.00
O1527  O     0.75691   0.77591   0.58686   0.00000  Uiso   1.00
C1528  C     0.73722   0.78841   0.63414   0.00000  Uiso   1.00
H1529  H     0.70013   0.80130   0.64293   0.00000  Uiso   1.00
H1530  H     0.75933   0.81231   0.64270   0.00000  Uiso   1.00
C1531  C     0.73395   0.74998   0.66479   0.00000  Uiso   1.00
H1532  H     0.71848   0.75895   0.70228   0.00000  Uiso   1.00
H1533  H     0.70917   0.72664   0.65881   0.00000  Uiso   1.00
C1534  C     0.78370   0.72964   0.65406   0.00000  Uiso   1.00
H1535  H     0.79931   0.71865   0.61712   0.00000  Uiso   1.00
H1536  H     0.77960   0.70230   0.67737   0.00000  Uiso   1.00
H1537  H     0.80932   0.75201   0.66003   0.00000  Uiso   1.00
O1538  O     0.89037   0.76218   0.90922   0.00000  Uiso   1.00
C1539  C     0.86448   0.72438   0.91384   0.00000  Uiso   1.00
H1540  H     0.82452   0.72936   0.93218   0.00000  Uiso   1.00
H1541  H     0.87715   0.70117   0.93382   0.00000  Uiso   1.00
C1542  C     0.87367   0.70684   0.86503   0.00000  Uiso   1.00
H1543  H     0.86154   0.72987   0.84458   0.00000  Uiso   1.00
H1544  H     0.91334   0.70124   0.84628   0.00000  Uiso   1.00
C1545  C     0.84620   0.99932   0.86809   0.00000  Uiso   1.00
H1546  H     0.85706   0.97602   0.88910   0.00000  Uiso   1.00
H1547  H     0.85492   0.98649   0.83237   0.00000  Uiso   1.00
H1548  H     0.80627   0.67139   0.88443   0.00000  Uiso   1.00
loop_
_geom_bond_atom_site_label_1
_geom_bond_atom_site_label_2
_geom_bond_distance
_geom_bond_site_symmetry_2
_ccdc_geom_bond_type
C1     C12     1.416   .     S
C1     O47     1.283   .     A
C1     O49     1.284   .     A
C2     O50     1.284   .     A
C2     C11     1.415   .     S
C2     O48     1.283   .     A
C3     O65     1.386   .     S
C3     C32     1.410   .     A
C3     C5      1.399   .     A
C4     C6      1.412   .     A
C4     O76     1.385   .     S
C4     C31     1.433   .     A
C5     C57     1.444   .     S
C5     C803    1.410   1_554 S
C6     C59     1.448   .     S
C6     C804    1.409   .     S
C7     C12     1.396   .     A
C7     H37     1.084   .     S
C7     C267    1.370   .     S
C8     H38     1.084   .     S
C8     C11     1.396   .     A
C8     C526    1.370   1_545 S
C9     H39     1.083   .     S
C9     C11     1.396   .     A
C9     C523    1.370   1_545 S
C10    H40     1.084   .     S
C10    C12     1.397   .     A
C10    C266    1.370   .     S
C13    H41     1.082   .     S
C13    N46     1.367   .     A
C13    C101    1.418   .     S
C14    H42     1.082   .     S
C14    N45     1.367   .     A
C14    C188    1.417   1_455 S
C15    N45     1.367   .     A
C15    H43     1.082   .     S
C15    C185    1.418   1_455 S
C16    H44     1.082   .     S
C16    N46     1.366   .     A
C16    C100    1.417   .     S
C17    O51     1.296   .     A
C17    O53     1.298   .     A
C17    C19     1.471   .     S
C18    O52     1.295   .     A
C18    C20     1.472   .     S
C18    O54     1.296   .     A
C19    C23     1.412   .     A
C19    C25     1.395   .     A
C20    C24     1.414   .     A
C20    C26     1.389   .     A
C21    C23     1.398   .     A
C21    C29     1.410   .     A
C21    H35     1.084   .     S
C22    C24     1.403   .     A
C22    C30     1.410   .     A
C22    H36     1.084   .     S
C23    C63     1.444   .     S
C24    C61     1.441   .     S
C25    H34     1.076   .     S
C25    C27     1.392   .     A
C26    H33     1.083   .     S
C26    C28     1.392   .     A
C27    C29     1.422   .     A
C27    C31     1.419   .     A
C28    C32     1.398   .     A
C28    C30     1.407   .     A
C29    C779    1.410   .     S
C30    C780    1.409   1_554 S
C31    C806    1.400   .     S
C32    C805    1.400   1_554 S
N45    Zn55    2.013   .     S
N46    Zn56    2.013   .     S
O47    Zn55    1.995   .     S
O48    Zn56    1.995   .     S
O49    Zn56    1.995   .     S
O50    Zn55    1.995   .     S
O51    Zn55    1.948   .     S
O52    Zn56    1.948   .     S
O53    Zn56    1.903   .     S
O54    Zn55    1.903   .     S
C57    N230    1.157   1_455 S
N58    C143    1.157   .     S
C59    N60     1.157   .     T
C61    N62     1.156   .     T
C63    N64     1.157   .     T
O65    C66     1.406   .     S
C66    H68     1.102   .     S
C66    C69     1.532   .     S
C66    H67     1.107   .     S
C69    H70     1.107   .     S
C69    H71     1.111   .     S
C69    C72     1.529   .     S
C72    H75     1.108   .     S
C72    H73     1.110   .     S
C72    H74     1.109   .     S
O76    C77     1.413   .     S
C77    H78     1.115   .     S
C77    H79     1.115   .     S
C77    C80     1.528   .     S
C80    H82     1.112   .     S
C80    H81     1.112   .     S
C80    C599    1.526   1_545 S
C83    H84     1.111   .     S
C83    H85     1.108   .     S
C83    C338    1.526   .     S
C83    H344    1.111   .     S
H86    C599    1.111   1_545 S
C87    C98     1.416   .     S
C87    O133    1.283   .     A
C87    O135    1.284   .     A
C88    O136    1.284   .     A
C88    C97     1.415   .     S
C88    O134    1.283   .     A
C89    O151    1.386   .     S
C89    C118    1.410   .     A
C89    C91     1.399   .     A
C90    C92     1.412   .     A
C90    O162    1.385   .     S
C90    C117    1.433   .     A
C91    C143    1.444   .     S
C91    C889    1.410   1_554 S
C92    C145    1.448   .     S
C92    C890    1.409   .     S
C93    C98     1.396   .     A
C93    H123    1.084   .     S
C93    C353    1.370   .     S
C94    H124    1.084   .     S
C94    C97     1.396   .     A
C94    C612    1.370   1_545 S
C95    H125    1.083   .     S
C95    C97     1.396   .     A
C95    C609    1.370   1_545 S
C96    H126    1.084   .     S
C96    C98     1.397   .     A
C96    C352    1.370   .     S
C99    H127    1.082   .     S
C99    N132    1.367   .     A
C99    C187    1.418   .     S
C100   H128    1.082   .     S
C100   N131    1.367   .     A
C101   N131    1.367   .     A
C101   H129    1.082   .     S
C102   H130    1.082   .     S
C102   N132    1.366   .     A
C102   C186    1.417   .     S
C103   O137    1.296   .     A
C103   O139    1.298   .     A
C103   C105    1.471   .     S
C104   O138    1.295   .     A
C104   C106    1.472   .     S
C104   O140    1.296   .     A
C105   C109    1.412   .     A
C105   C111    1.395   .     A
C106   C110    1.414   .     A
C106   C112    1.389   .     A
C107   C109    1.398   .     A
C107   C115    1.410   .     A
C107   H121    1.084   .     S
C108   C110    1.403   .     A
C108   C116    1.410   .     A
C108   H122    1.084   .     S
C109   C149    1.444   .     S
C110   C147    1.441   .     S
C111   H120    1.076   .     S
C111   C113    1.392   .     A
C112   H119    1.083   .     S
C112   C114    1.392   .     A
C113   C115    1.422   .     A
C113   C117    1.419   .     A
C114   C118    1.398   .     A
C114   C116    1.407   .     A
C115   C865    1.410   .     S
C116   C866    1.409   1_554 S
C117   C892    1.400   .     S
C118   C891    1.400   1_554 S
N131   Zn141   2.013   .     S
N132   Zn142   2.013   .     S
O133   Zn141   1.995   .     S
O134   Zn142   1.995   .     S
O135   Zn142   1.995   .     S
O136   Zn141   1.995   .     S
O137   Zn141   1.948   .     S
O138   Zn142   1.948   .     S
O139   Zn142   1.903   .     S
O140   Zn141   1.903   .     S
N144   C229    1.157   .     S
C145   N146    1.157   .     T
C147   N148    1.156   .     T
C149   N150    1.157   .     T
O151   C152    1.406   .     S
C152   H154    1.102   .     S
C152   C155    1.532   .     S
C152   H153    1.107   .     S
C155   H156    1.107   .     S
C155   H157    1.111   .     S
C155   C158    1.529   .     S
C158   H161    1.108   .     S
C158   H159    1.110   .     S
C158   H160    1.109   .     S
O162   C163    1.413   .     S
C163   H164    1.115   .     S
C163   H165    1.115   .     S
C163   C166    1.528   .     S
C166   H168    1.112   .     S
C166   H167    1.112   .     S
C166   C685    1.526   1_545 S
C169   H170    1.111   .     S
C169   H171    1.108   .     S
C169   C424    1.526   .     S
C169   H430    1.111   .     S
H172   C685    1.111   1_545 S
C173   C184    1.416   .     S
C173   O219    1.283   .     A
C173   O221    1.284   .     A
C174   O222    1.284   .     A
C174   C183    1.415   .     S
C174   O220    1.283   .     A
C175   O237    1.386   .     S
C175   C204    1.410   .     A
C175   C177    1.399   .     A
C176   C178    1.412   .     A
C176   O248    1.385   .     S
C176   C203    1.433   .     A
C177   C229    1.444   .     S
C177   C975    1.410   1_554 S
C178   C231    1.448   .     S
C178   C976    1.409   .     S
C179   C184    1.396   .     A
C179   H209    1.084   .     S
C179   C439    1.370   .     S
C180   H210    1.084   .     S
C180   C183    1.396   .     A
C180   C698    1.370   1_545 S
C181   H211    1.083   .     S
C181   C183    1.396   .     A
C181   C695    1.370   1_545 S
C182   H212    1.084   .     S
C182   C184    1.397   .     A
C182   C438    1.370   .     S
C185   H213    1.082   .     S
C185   N218    1.367   .     A
C185   C15     1.418   1_655 S
C186   H214    1.082   .     S
C186   N217    1.367   .     A
C187   N217    1.367   .     A
C187   H215    1.082   .     S
C188   H216    1.082   .     S
C188   N218    1.366   .     A
C188   C14     1.417   1_655 S
C189   O223    1.296   .     A
C189   O225    1.298   .     A
C189   C191    1.471   .     S
C190   O224    1.295   .     A
C190   C192    1.472   .     S
C190   O226    1.296   .     A
C191   C195    1.412   .     A
C191   C197    1.395   .     A
C192   C196    1.414   .     A
C192   C198    1.389   .     A
C193   C195    1.398   .     A
C193   C201    1.410   .     A
C193   H207    1.084   .     S
C194   C196    1.403   .     A
C194   C202    1.410   .     A
C194   H208    1.084   .     S
C195   C235    1.444   .     S
C196   C233    1.441   .     S
C197   H206    1.076   .     S
C197   C199    1.392   .     A
C198   H205    1.083   .     S
C198   C200    1.392   .     A
C199   C201    1.422   .     A
C199   C203    1.419   .     A
C200   C204    1.398   .     A
C200   C202    1.407   .     A
C201   C951    1.410   .     S
C202   C952    1.409   1_554 S
C203   C978    1.400   .     S
C204   C977    1.400   1_554 S
N217   Zn227   2.013   .     S
N218   Zn228   2.013   .     S
O219   Zn227   1.995   .     S
O220   Zn228   1.995   .     S
O221   Zn228   1.995   .     S
O222   Zn227   1.995   .     S
O223   Zn227   1.948   .     S
O224   Zn228   1.948   .     S
O225   Zn228   1.903   .     S
O226   Zn227   1.903   .     S
N230   C57     1.157   1_655 S
C231   N232    1.157   .     T
C233   N234    1.156   .     T
C235   N236    1.157   .     T
O237   C238    1.406   .     S
C238   H240    1.102   .     S
C238   C241    1.532   .     S
C238   H239    1.107   .     S
C241   H242    1.107   .     S
C241   H243    1.111   .     S
C241   C244    1.529   .     S
C244   H247    1.108   .     S
C244   H245    1.110   .     S
C244   H246    1.109   .     S
O248   C249    1.413   .     S
C249   H250    1.115   .     S
C249   H251    1.115   .     S
C249   C252    1.528   .     S
C252   H254    1.112   .     S
C252   H253    1.112   .     S
C252   C771    1.526   1_545 S
C255   H256    1.111   .     S
C255   H257    1.108   .     S
C255   C510    1.526   .     S
C255   H516    1.111   .     S
H258   C771    1.111   1_545 S
C259   C270    1.416   .     S
C259   O305    1.283   .     A
C259   O307    1.284   .     A
C260   O308    1.284   .     A
C260   C269    1.415   .     S
C260   O306    1.283   .     A
C261   O323    1.386   .     S
C261   C290    1.410   .     A
C261   C263    1.399   .     A
C262   C264    1.412   .     A
C262   O334    1.385   .     S
C262   C289    1.433   .     A
C263   C315    1.444   .     S
C263   C1061   1.410   1_554 S
C264   C317    1.448   .     S
C264   C1062   1.409   .     S
C265   C270    1.396   .     A
C265   H295    1.084   .     S
C265   C525    1.370   .     S
C266   H296    1.084   .     S
C266   C269    1.396   .     A
C267   H297    1.083   .     S
C267   C269    1.396   .     A
C268   H298    1.084   .     S
C268   C270    1.397   .     A
C268   C524    1.370   .     S
C271   H299    1.082   .     S
C271   N304    1.367   .     A
C271   C359    1.418   .     S
C272   H300    1.082   .     S
C272   N303    1.367   .     A
C272   C446    1.417   1_455 S
C273   N303    1.367   .     A
C273   H301    1.082   .     S
C273   C443    1.418   1_455 S
C274   H302    1.082   .     S
C274   N304    1.366   .     A
C274   C358    1.417   .     S
C275   O309    1.296   .     A
C275   O311    1.298   .     A
C275   C277    1.471   .     S
C276   O310    1.295   .     A
C276   C278    1.472   .     S
C276   O312    1.296   .     A
C277   C281    1.412   .     A
C277   C283    1.395   .     A
C278   C282    1.414   .     A
C278   C284    1.389   .     A
C279   C281    1.398   .     A
C279   C287    1.410   .     A
C279   H293    1.084   .     S
C280   C282    1.403   .     A
C280   C288    1.410   .     A
C280   H294    1.084   .     S
C281   C321    1.444   .     S
C282   C319    1.441   .     S
C283   H292    1.076   .     S
C283   C285    1.392   .     A
C284   H291    1.083   .     S
C284   C286    1.392   .     A
C285   C287    1.422   .     A
C285   C289    1.419   .     A
C286   C290    1.398   .     A
C286   C288    1.407   .     A
C287   C1037   1.410   .     S
C288   C1038   1.409   1_554 S
C289   C1064   1.400   .     S
C290   C1063   1.400   1_554 S
N303   Zn313   2.013   .     S
N304   Zn314   2.013   .     S
O305   Zn313   1.995   .     S
O306   Zn314   1.995   .     S
O307   Zn314   1.995   .     S
O308   Zn313   1.995   .     S
O309   Zn313   1.948   .     S
O310   Zn314   1.948   .     S
O311   Zn314   1.903   .     S
O312   Zn313   1.903   .     S
C315   N488    1.157   1_455 S
N316   C401    1.157   .     S
C317   N318    1.157   .     T
C319   N320    1.156   .     T
C321   N322    1.157   .     T
O323   C324    1.406   .     S
C324   H326    1.102   .     S
C324   C327    1.532   .     S
C324   H325    1.107   .     S
C327   H328    1.107   .     S
C327   H329    1.111   .     S
C327   C330    1.529   .     S
C330   H333    1.108   .     S
C330   H331    1.110   .     S
C330   H332    1.109   .     S
O334   C335    1.413   .     S
C335   H336    1.115   .     S
C335   H337    1.115   .     S
C335   C338    1.528   .     S
C338   H340    1.112   .     S
C338   H339    1.112   .     S
C341   H342    1.111   .     S
C341   H343    1.108   .     S
C341   C596    1.526   .     S
C341   H602    1.111   .     S
C345   C356    1.416   .     S
C345   O391    1.283   .     A
C345   O393    1.284   .     A
C346   O394    1.284   .     A
C346   C355    1.415   .     S
C346   O392    1.283   .     A
C347   O409    1.386   .     S
C347   C376    1.410   .     A
C347   C349    1.399   .     A
C348   C350    1.412   .     A
C348   O420    1.385   .     S
C348   C375    1.433   .     A
C349   C401    1.444   .     S
C349   C1147   1.410   1_554 S
C350   C403    1.448   .     S
C350   C1148   1.409   .     S
C351   C356    1.396   .     A
C351   H381    1.084   .     S
C351   C611    1.370   .     S
C352   H382    1.084   .     S
C352   C355    1.396   .     A
C353   H383    1.083   .     S
C353   C355    1.396   .     A
C354   H384    1.084   .     S
C354   C356    1.397   .     A
C354   C610    1.370   .     S
C357   H385    1.082   .     S
C357   N390    1.367   .     A
C357   C445    1.418   .     S
C358   H386    1.082   .     S
C358   N389    1.367   .     A
C359   N389    1.367   .     A
C359   H387    1.082   .     S
C360   H388    1.082   .     S
C360   N390    1.366   .     A
C360   C444    1.417   .     S
C361   O395    1.296   .     A
C361   O397    1.298   .     A
C361   C363    1.471   .     S
C362   O396    1.295   .     A
C362   C364    1.472   .     S
C362   O398    1.296   .     A
C363   C367    1.412   .     A
C363   C369    1.395   .     A
C364   C368    1.414   .     A
C364   C370    1.389   .     A
C365   C367    1.398   .     A
C365   C373    1.410   .     A
C365   H379    1.084   .     S
C366   C368    1.403   .     A
C366   C374    1.410   .     A
C366   H380    1.084   .     S
C367   C407    1.444   .     S
C368   C405    1.441   .     S
C369   H378    1.076   .     S
C369   C371    1.392   .     A
C370   H377    1.083   .     S
C370   C372    1.392   .     A
C371   C373    1.422   .     A
C371   C375    1.419   .     A
C372   C376    1.398   .     A
C372   C374    1.407   .     A
C373   C1123   1.410   .     S
C374   C1124   1.409   1_554 S
C375   C1150   1.400   .     S
C376   C1149   1.400   1_554 S
N389   Zn399   2.013   .     S
N390   Zn400   2.013   .     S
O391   Zn399   1.995   .     S
O392   Zn400   1.995   .     S
O393   Zn400   1.995   .     S
O394   Zn399   1.995   .     S
O395   Zn399   1.948   .     S
O396   Zn400   1.948   .     S
O397   Zn400   1.903   .     S
O398   Zn399   1.903   .     S
N402   C487    1.157   .     S
C403   N404    1.157   .     T
C405   N406    1.156   .     T
C407   N408    1.157   .     T
O409   C410    1.406   .     S
C410   H412    1.102   .     S
C410   C413    1.532   .     S
C410   H411    1.107   .     S
C413   H414    1.107   .     S
C413   H415    1.111   .     S
C413   C416    1.529   .     S
C416   H419    1.108   .     S
C416   H417    1.110   .     S
C416   H418    1.109   .     S
O420   C421    1.413   .     S
C421   H422    1.115   .     S
C421   H423    1.115   .     S
C421   C424    1.528   .     S
C424   H426    1.112   .     S
C424   H425    1.112   .     S
C427   H428    1.111   .     S
C427   H429    1.108   .     S
C427   C682    1.526   .     S
C427   H688    1.111   .     S
C431   C442    1.416   .     S
C431   O477    1.283   .     A
C431   O479    1.284   .     A
C432   O480    1.284   .     A
C432   C441    1.415   .     S
C432   O478    1.283   .     A
C433   O495    1.386   .     S
C433   C462    1.410   .     A
C433   C435    1.399   .     A
C434   C436    1.412   .     A
C434   O506    1.385   .     S
C434   C461    1.433   .     A
C435   C487    1.444   .     S
C435   C1233   1.410   1_554 S
C436   C489    1.448   .     S
C436   C1234   1.409   .     S
C437   C442    1.396   .     A
C437   H467    1.084   .     S
C437   C697    1.370   .     S
C438   H468    1.084   .     S
C438   C441    1.396   .     A
C439   H469    1.083   .     S
C439   C441    1.396   .     A
C440   H470    1.084   .     S
C440   C442    1.397   .     A
C440   C696    1.370   .     S
C443   H471    1.082   .     S
C443   N476    1.367   .     A
C443   C273    1.418   1_655 S
C444   H472    1.082   .     S
C444   N475    1.367   .     A
C445   N475    1.367   .     A
C445   H473    1.082   .     S
C446   H474    1.082   .     S
C446   N476    1.366   .     A
C446   C272    1.417   1_655 S
C447   O481    1.296   .     A
C447   O483    1.298   .     A
C447   C449    1.471   .     S
C448   O482    1.295   .     A
C448   C450    1.472   .     S
C448   O484    1.296   .     A
C449   C453    1.412   .     A
C449   C455    1.395   .     A
C450   C454    1.414   .     A
C450   C456    1.389   .     A
C451   C453    1.398   .     A
C451   C459    1.410   .     A
C451   H465    1.084   .     S
C452   C454    1.403   .     A
C452   C460    1.410   .     A
C452   H466    1.084   .     S
C453   C493    1.444   .     S
C454   C491    1.441   .     S
C455   H464    1.076   .     S
C455   C457    1.392   .     A
C456   H463    1.083   .     S
C456   C458    1.392   .     A
C457   C459    1.422   .     A
C457   C461    1.419   .     A
C458   C462    1.398   .     A
C458   C460    1.407   .     A
C459   C1209   1.410   .     S
C460   C1210   1.409   1_554 S
C461   C1236   1.400   .     S
C462   C1235   1.400   1_554 S
N475   Zn485   2.013   .     S
N476   Zn486   2.013   .     S
O477   Zn485   1.995   .     S
O478   Zn486   1.995   .     S
O479   Zn486   1.995   .     S
O480   Zn485   1.995   .     S
O481   Zn485   1.948   .     S
O482   Zn486   1.948   .     S
O483   Zn486   1.903   .     S
O484   Zn485   1.903   .     S
N488   C315    1.157   1_655 S
C489   N490    1.157   .     T
C491   N492    1.156   .     T
C493   N494    1.157   .     T
O495   C496    1.406   .     S
C496   H498    1.102   .     S
C496   C499    1.532   .     S
C496   H497    1.107   .     S
C499   H500    1.107   .     S
C499   H501    1.111   .     S
C499   C502    1.529   .     S
C502   H505    1.108   .     S
C502   H503    1.110   .     S
C502   H504    1.109   .     S
O506   C507    1.413   .     S
C507   H508    1.115   .     S
C507   H509    1.115   .     S
C507   C510    1.528   .     S
C510   H512    1.112   .     S
C510   H511    1.112   .     S
C513   H514    1.111   .     S
C513   H515    1.108   .     S
C513   C768    1.526   .     S
C513   H774    1.111   .     S
C517   C528    1.416   .     S
C517   O563    1.283   .     A
C517   O565    1.284   .     A
C518   O566    1.284   .     A
C518   C527    1.415   .     S
C518   O564    1.283   .     A
C519   O581    1.386   .     S
C519   C548    1.410   .     A
C519   C521    1.399   .     A
C520   C522    1.412   .     A
C520   O592    1.385   .     S
C520   C547    1.433   .     A
C521   C573    1.444   .     S
C521   C1319   1.410   1_554 S
C522   C575    1.448   .     S
C522   C1320   1.409   .     S
C523   C528    1.396   .     A
C523   H553    1.084   .     S
C523   C9      1.370   1_565 S
C524   H554    1.084   .     S
C524   C527    1.396   .     A
C525   H555    1.083   .     S
C525   C527    1.396   .     A
C526   H556    1.084   .     S
C526   C528    1.397   .     A
C526   C8      1.370   1_565 S
C529   H557    1.082   .     S
C529   N562    1.367   .     A
C529   C617    1.418   .     S
C530   H558    1.082   .     S
C530   N561    1.367   .     A
C530   C704    1.417   1_455 S
C531   N561    1.367   .     A
C531   H559    1.082   .     S
C531   C701    1.418   1_455 S
C532   H560    1.082   .     S
C532   N562    1.366   .     A
C532   C616    1.417   .     S
C533   O567    1.296   .     A
C533   O569    1.298   .     A
C533   C535    1.471   .     S
C534   O568    1.295   .     A
C534   C536    1.472   .     S
C534   O570    1.296   .     A
C535   C539    1.412   .     A
C535   C541    1.395   .     A
C536   C540    1.414   .     A
C536   C542    1.389   .     A
C537   C539    1.398   .     A
C537   C545    1.410   .     A
C537   H551    1.084   .     S
C538   C540    1.403   .     A
C538   C546    1.410   .     A
C538   H552    1.084   .     S
C539   C579    1.444   .     S
C540   C577    1.441   .     S
C541   H550    1.076   .     S
C541   C543    1.392   .     A
C542   H549    1.083   .     S
C542   C544    1.392   .     A
C543   C545    1.422   .     A
C543   C547    1.419   .     A
C544   C548    1.398   .     A
C544   C546    1.407   .     A
C545   C1295   1.410   .     S
C546   C1296   1.409   1_554 S
C547   C1322   1.400   .     S
C548   C1321   1.400   1_554 S
N561   Zn571   2.013   .     S
N562   Zn572   2.013   .     S
O563   Zn571   1.995   .     S
O564   Zn572   1.995   .     S
O565   Zn572   1.995   .     S
O566   Zn571   1.995   .     S
O567   Zn571   1.948   .     S
O568   Zn572   1.948   .     S
O569   Zn572   1.903   .     S
O570   Zn571   1.903   .     S
C573   N746    1.157   1_455 S
N574   C659    1.157   .     S
C575   N576    1.157   .     T
C577   N578    1.156   .     T
C579   N580    1.157   .     T
O581   C582    1.406   .     S
C582   H584    1.102   .     S
C582   C585    1.532   .     S
C582   H583    1.107   .     S
C585   H586    1.107   .     S
C585   H587    1.111   .     S
C585   C588    1.529   .     S
C588   H591    1.108   .     S
C588   H589    1.110   .     S
C588   H590    1.109   .     S
O592   C593    1.413   .     S
C593   H594    1.115   .     S
C593   H595    1.115   .     S
C593   C596    1.528   .     S
C596   H598    1.112   .     S
C596   H597    1.112   .     S
C599   H600    1.111   .     S
C599   H601    1.108   .     S
C599   C80     1.526   1_565 S
C599   H86     1.111   1_565 S
C603   C614    1.416   .     S
C603   O649    1.283   .     A
C603   O651    1.284   .     A
C604   O652    1.284   .     A
C604   C613    1.415   .     S
C604   O650    1.283   .     A
C605   O667    1.386   .     S
C605   C634    1.410   .     A
C605   C607    1.399   .     A
C606   C608    1.412   .     A
C606   O678    1.385   .     S
C606   C633    1.433   .     A
C607   C659    1.444   .     S
C607   C1405   1.410   1_554 S
C608   C661    1.448   .     S
C608   C1406   1.409   .     S
C609   C614    1.396   .     A
C609   H639    1.084   .     S
C609   C95     1.370   1_565 S
C610   H640    1.084   .     S
C610   C613    1.396   .     A
C611   H641    1.083   .     S
C611   C613    1.396   .     A
C612   H642    1.084   .     S
C612   C614    1.397   .     A
C612   C94     1.370   1_565 S
C615   H643    1.082   .     S
C615   N648    1.367   .     A
C615   C703    1.418   .     S
C616   H644    1.082   .     S
C616   N647    1.367   .     A
C617   N647    1.367   .     A
C617   H645    1.082   .     S
C618   H646    1.082   .     S
C618   N648    1.366   .     A
C618   C702    1.417   .     S
C619   O653    1.296   .     A
C619   O655    1.298   .     A
C619   C621    1.471   .     S
C620   O654    1.295   .     A
C620   C622    1.472   .     S
C620   O656    1.296   .     A
C621   C625    1.412   .     A
C621   C627    1.395   .     A
C622   C626    1.414   .     A
C622   C628    1.389   .     A
C623   C625    1.398   .     A
C623   C631    1.410   .     A
C623   H637    1.084   .     S
C624   C626    1.403   .     A
C624   C632    1.410   .     A
C624   H638    1.084   .     S
C625   C665    1.444   .     S
C626   C663    1.441   .     S
C627   H636    1.076   .     S
C627   C629    1.392   .     A
C628   H635    1.083   .     S
C628   C630    1.392   .     A
C629   C631    1.422   .     A
C629   C633    1.419   .     A
C630   C634    1.398   .     A
C630   C632    1.407   .     A
C631   C1381   1.410   .     S
C632   C1382   1.409   1_554 S
C633   C1408   1.400   .     S
C634   C1407   1.400   1_554 S
N647   Zn657   2.013   .     S
N648   Zn658   2.013   .     S
O649   Zn657   1.995   .     S
O650   Zn658   1.995   .     S
O651   Zn658   1.995   .     S
O652   Zn657   1.995   .     S
O653   Zn657   1.948   .     S
O654   Zn658   1.948   .     S
O655   Zn658   1.903   .     S
O656   Zn657   1.903   .     S
N660   C745    1.157   .     S
C661   N662    1.157   .     T
C663   N664    1.156   .     T
C665   N666    1.157   .     T
O667   C668    1.406   .     S
C668   H670    1.102   .     S
C668   C671    1.532   .     S
C668   H669    1.107   .     S
C671   H672    1.107   .     S
C671   H673    1.111   .     S
C671   C674    1.529   .     S
C674   H677    1.108   .     S
C674   H675    1.110   .     S
C674   H676    1.109   .     S
O678   C679    1.413   .     S
C679   H680    1.115   .     S
C679   H681    1.115   .     S
C679   C682    1.528   .     S
C682   H684    1.112   .     S
C682   H683    1.112   .     S
C685   H686    1.111   .     S
C685   H687    1.108   .     S
C685   C166    1.526   1_565 S
C685   H172    1.111   1_565 S
C689   C700    1.416   .     S
C689   O735    1.283   .     A
C689   O737    1.284   .     A
C690   O738    1.284   .     A
C690   C699    1.415   .     S
C690   O736    1.283   .     A
C691   O753    1.386   .     S
C691   C720    1.410   .     A
C691   C693    1.399   .     A
C692   C694    1.412   .     A
C692   O764    1.385   .     S
C692   C719    1.433   .     A
C693   C745    1.444   .     S
C693   C1491   1.410   1_554 S
C694   C747    1.448   .     S
C694   C1492   1.409   .     S
C695   C700    1.396   .     A
C695   H725    1.084   .     S
C695   C181    1.370   1_565 S
C696   H726    1.084   .     S
C696   C699    1.396   .     A
C697   H727    1.083   .     S
C697   C699    1.396   .     A
C698   H728    1.084   .     S
C698   C700    1.397   .     A
C698   C180    1.370   1_565 S
C701   H729    1.082   .     S
C701   N734    1.367   .     A
C701   C531    1.418   1_655 S
C702   H730    1.082   .     S
C702   N733    1.367   .     A
C703   N733    1.367   .     A
C703   H731    1.082   .     S
C704   H732    1.082   .     S
C704   N734    1.366   .     A
C704   C530    1.417   1_655 S
C705   O739    1.296   .     A
C705   O741    1.298   .     A
C705   C707    1.471   .     S
C706   O740    1.295   .     A
C706   C708    1.472   .     S
C706   O742    1.296   .     A
C707   C711    1.412   .     A
C707   C713    1.395   .     A
C708   C712    1.414   .     A
C708   C714    1.389   .     A
C709   C711    1.398   .     A
C709   C717    1.410   .     A
C709   H723    1.084   .     S
C710   C712    1.403   .     A
C710   C718    1.410   .     A
C710   H724    1.084   .     S
C711   C751    1.444   .     S
C712   C749    1.441   .     S
C713   H722    1.076   .     S
C713   C715    1.392   .     A
C714   H721    1.083   .     S
C714   C716    1.392   .     A
C715   C717    1.422   .     A
C715   C719    1.419   .     A
C716   C720    1.398   .     A
C716   C718    1.407   .     A
C717   C1467   1.410   .     S
C718   C1468   1.409   1_554 S
C719   C1494   1.400   .     S
C720   C1493   1.400   1_554 S
N733   Zn743   2.013   .     S
N734   Zn744   2.013   .     S
O735   Zn743   1.995   .     S
O736   Zn744   1.995   .     S
O737   Zn744   1.995   .     S
O738   Zn743   1.995   .     S
O739   Zn743   1.948   .     S
O740   Zn744   1.948   .     S
O741   Zn744   1.903   .     S
O742   Zn743   1.903   .     S
N746   C573    1.157   1_655 S
C747   N748    1.157   .     T
C749   N750    1.156   .     T
C751   N752    1.157   .     T
O753   C754    1.406   .     S
C754   H756    1.102   .     S
C754   C757    1.532   .     S
C754   H755    1.107   .     S
C757   H758    1.107   .     S
C757   H759    1.111   .     S
C757   C760    1.529   .     S
C760   H763    1.108   .     S
C760   H761    1.110   .     S
C760   H762    1.109   .     S
O764   C765    1.413   .     S
C765   H766    1.115   .     S
C765   H767    1.115   .     S
C765   C768    1.528   .     S
C768   H770    1.112   .     S
C768   H769    1.112   .     S
C771   H772    1.111   .     S
C771   H773    1.108   .     S
C771   C252    1.526   1_565 S
C771   H258    1.111   1_565 S
C775   C786    1.416   .     S
C775   O821    1.283   .     A
C775   O823    1.284   .     A
C776   O824    1.284   .     A
C776   C785    1.415   .     S
C776   O822    1.283   .     A
C777   O839    1.386   .     S
C777   C806    1.410   .     A
C777   C779    1.399   .     A
C778   C780    1.412   .     A
C778   O850    1.385   .     S
C778   C805    1.433   .     A
C779   C831    1.444   .     S
C780   C833    1.448   .     S
C780   C30     1.409   1_556 S
C781   C786    1.396   .     A
C781   H811    1.084   .     S
C781   C1041   1.370   .     S
C782   H812    1.084   .     S
C782   C785    1.396   .     A
C782   C1300   1.370   1_545 S
C783   H813    1.083   .     S
C783   C785    1.396   .     A
C783   C1297   1.370   1_545 S
C784   H814    1.084   .     S
C784   C786    1.397   .     A
C784   C1040   1.370   .     S
C787   H815    1.082   .     S
C787   N820    1.367   .     A
C787   C875    1.418   .     S
C788   H816    1.082   .     S
C788   N819    1.367   .     A
C788   C962    1.417   1_455 S
C789   N819    1.367   .     A
C789   H817    1.082   .     S
C789   C959    1.418   1_455 S
C790   H818    1.082   .     S
C790   N820    1.366   .     A
C790   C874    1.417   .     S
C791   O825    1.296   .     A
C791   O827    1.298   .     A
C791   C793    1.471   .     S
C792   O826    1.295   .     A
C792   C794    1.472   .     S
C792   O828    1.296   .     A
C793   C797    1.412   .     A
C793   C799    1.395   .     A
C794   C798    1.414   .     A
C794   C800    1.389   .     A
C795   C797    1.398   .     A
C795   C803    1.410   .     A
C795   H809    1.084   .     S
C796   C798    1.403   .     A
C796   C804    1.410   .     A
C796   H810    1.084   .     S
C797   C837    1.444   .     S
C798   C835    1.441   .     S
C799   H808    1.076   .     S
C799   C801    1.392   .     A
C800   H807    1.083   .     S
C800   C802    1.392   .     A
C801   C803    1.422   .     A
C801   C805    1.419   .     A
C802   C806    1.398   .     A
C802   C804    1.407   .     A
C803   C5      1.410   1_556 S
C805   C32     1.400   1_556 S
N819   Zn829   2.013   .     S
N820   Zn830   2.013   .     S
O821   Zn829   1.995   .     S
O822   Zn830   1.995   .     S
O823   Zn830   1.995   .     S
O824   Zn829   1.995   .     S
O825   Zn829   1.948   .     S
O826   Zn830   1.948   .     S
O827   Zn830   1.903   .     S
O828   Zn829   1.903   .     S
C831   N1004   1.157   1_455 S
N832   C917    1.157   .     S
C833   N834    1.157   .     T
C835   N836    1.156   .     T
C837   N838    1.157   .     T
O839   C840    1.406   .     S
C840   H842    1.102   .     S
C840   C843    1.532   .     S
C840   H841    1.107   .     S
C843   H844    1.107   .     S
C843   H845    1.111   .     S
C843   C846    1.529   .     S
C846   H849    1.108   .     S
C846   H847    1.110   .     S
C846   H848    1.109   .     S
O850   C851    1.413   .     S
C851   H852    1.115   .     S
C851   H853    1.115   .     S
C851   C854    1.528   .     S
C854   H856    1.112   .     S
C854   H855    1.112   .     S
C854   C1373   1.526   1_545 S
C857   H858    1.111   .     S
C857   H859    1.108   .     S
C857   C1112   1.526   .     S
C857   H1118   1.111   .     S
H860   C1373   1.111   1_545 S
C861   C872    1.416   .     S
C861   O907    1.283   .     A
C861   O909    1.284   .     A
C862   O910    1.284   .     A
C862   C871    1.415   .     S
C862   O908    1.283   .     A
C863   O925    1.386   .     S
C863   C892    1.410   .     A
C863   C865    1.399   .     A
C864   C866    1.412   .     A
C864   O936    1.385   .     S
C864   C891    1.433   .     A
C865   C917    1.444   .     S
C866   C919    1.448   .     S
C866   C116    1.409   1_556 S
C867   C872    1.396   .     A
C867   H897    1.084   .     S
C867   C1127   1.370   .     S
C868   H898    1.084   .     S
C868   C871    1.396   .     A
C868   C1386   1.370   1_545 S
C869   H899    1.083   .     S
C869   C871    1.396   .     A
C869   C1383   1.370   1_545 S
C870   H900    1.084   .     S
C870   C872    1.397   .     A
C870   C1126   1.370   .     S
C873   H901    1.082   .     S
C873   N906    1.367   .     A
C873   C961    1.418   .     S
C874   H902    1.082   .     S
C874   N905    1.367   .     A
C875   N905    1.367   .     A
C875   H903    1.082   .     S
C876   H904    1.082   .     S
C876   N906    1.366   .     A
C876   C960    1.417   .     S
C877   O911    1.296   .     A
C877   O913    1.298   .     A
C877   C879    1.471   .     S
C878   O912    1.295   .     A
C878   C880    1.472   .     S
C878   O914    1.296   .     A
C879   C883    1.412   .     A
C879   C885    1.395   .     A
C880   C884    1.414   .     A
C880   C886    1.389   .     A
C881   C883    1.398   .     A
C881   C889    1.410   .     A
C881   H895    1.084   .     S
C882   C884    1.403   .     A
C882   C890    1.410   .     A
C882   H896    1.084   .     S
C883   C923    1.444   .     S
C884   C921    1.441   .     S
C885   H894    1.076   .     S
C885   C887    1.392   .     A
C886   H893    1.083   .     S
C886   C888    1.392   .     A
C887   C889    1.422   .     A
C887   C891    1.419   .     A
C888   C892    1.398   .     A
C888   C890    1.407   .     A
C889   C91     1.410   1_556 S
C891   C118    1.400   1_556 S
N905   Zn915   2.013   .     S
N906   Zn916   2.013   .     S
O907   Zn915   1.995   .     S
O908   Zn916   1.995   .     S
O909   Zn916   1.995   .     S
O910   Zn915   1.995   .     S
O911   Zn915   1.948   .     S
O912   Zn916   1.948   .     S
O913   Zn916   1.903   .     S
O914   Zn915   1.903   .     S
N918   C1003   1.157   .     S
C919   N920    1.157   .     T
C921   N922    1.156   .     T
C923   N924    1.157   .     T
O925   C926    1.406   .     S
C926   H928    1.102   .     S
C926   C929    1.532   .     S
C926   H927    1.107   .     S
C929   H930    1.107   .     S
C929   H931    1.111   .     S
C929   C932    1.529   .     S
C932   H935    1.108   .     S
C932   H933    1.110   .     S
C932   H934    1.109   .     S
O936   C937    1.413   .     S
C937   H938    1.115   .     S
C937   H939    1.115   .     S
C937   C940    1.528   .     S
C940   H942    1.112   .     S
C940   H941    1.112   .     S
C940   C1459   1.526   1_545 S
C943   H944    1.111   .     S
C943   H945    1.108   .     S
C943   C1198   1.526   .     S
C943   H1204   1.111   .     S
H946   C1459   1.111   1_545 S
C947   C958    1.416   .     S
C947   O993    1.283   .     A
C947   O995    1.284   .     A
C948   O996    1.284   .     A
C948   C957    1.415   .     S
C948   O994    1.283   .     A
C949   O1011   1.386   .     S
C949   C978    1.410   .     A
C949   C951    1.399   .     A
C950   C952    1.412   .     A
C950   O1022   1.385   .     S
C950   C977    1.433   .     A
C951   C1003   1.444   .     S
C952   C1005   1.448   .     S
C952   C202    1.409   1_556 S
C953   C958    1.396   .     A
C953   H983    1.084   .     S
C953   C1213   1.370   .     S
C954   H984    1.084   .     S
C954   C957    1.396   .     A
C954   C1472   1.370   1_545 S
C955   H985    1.083   .     S
C955   C957    1.396   .     A
C955   C1469   1.370   1_545 S
C956   H986    1.084   .     S
C956   C958    1.397   .     A
C956   C1212   1.370   .     S
C959   H987    1.082   .     S
C959   N992    1.367   .     A
C959   C789    1.418   1_655 S
C960   H988    1.082   .     S
C960   N991    1.367   .     A
C961   N991    1.367   .     A
C961   H989    1.082   .     S
C962   H990    1.082   .     S
C962   N992    1.366   .     A
C962   C788    1.417   1_655 S
C963   O997    1.296   .     A
C963   O999    1.298   .     A
C963   C965    1.471   .     S
C964   O998    1.295   .     A
C964   C966    1.472   .     S
C964   O1000   1.296   .     A
C965   C969    1.412   .     A
C965   C971    1.395   .     A
C966   C970    1.414   .     A
C966   C972    1.389   .     A
C967   C969    1.398   .     A
C967   C975    1.410   .     A
C967   H981    1.084   .     S
C968   C970    1.403   .     A
C968   C976    1.410   .     A
C968   H982    1.084   .     S
C969   C1009   1.444   .     S
C970   C1007   1.441   .     S
C971   H980    1.076   .     S
C971   C973    1.392   .     A
C972   H979    1.083   .     S
C972   C974    1.392   .     A
C973   C975    1.422   .     A
C973   C977    1.419   .     A
C974   C978    1.398   .     A
C974   C976    1.407   .     A
C975   C177    1.410   1_556 S
C977   C204    1.400   1_556 S
N991   Zn1001  2.013   .     S
N992   Zn1002  2.013   .     S
O993   Zn1001  1.995   .     S
O994   Zn1002  1.995   .     S
O995   Zn1002  1.995   .     S
O996   Zn1001  1.995   .     S
O997   Zn1001  1.948   .     S
O998   Zn1002  1.948   .     S
O999   Zn1002  1.903   .     S
O1000  Zn1001  1.903   .     S
N1004  C831    1.157   1_655 S
C1005  N1006   1.157   .     T
C1007  N1008   1.156   .     T
C1009  N1010   1.157   .     T
O1011  C1012   1.406   .     S
C1012  H1014   1.102   .     S
C1012  C1015   1.532   .     S
C1012  H1013   1.107   .     S
C1015  H1016   1.107   .     S
C1015  H1017   1.111   .     S
C1015  C1018   1.529   .     S
C1018  H1021   1.108   .     S
C1018  H1019   1.110   .     S
C1018  H1020   1.109   .     S
O1022  C1023   1.413   .     S
C1023  H1024   1.115   .     S
C1023  H1025   1.115   .     S
C1023  C1026   1.528   .     S
C1026  H1028   1.112   .     S
C1026  H1027   1.112   .     S
C1026  C1545   1.526   1_545 S
C1029  H1030   1.111   .     S
C1029  H1031   1.108   .     S
C1029  C1284   1.526   .     S
C1029  H1290   1.111   .     S
H1032  C1545   1.111   1_545 S
C1033  C1044   1.416   .     S
C1033  O1079   1.283   .     A
C1033  O1081   1.284   .     A
C1034  O1082   1.284   .     A
C1034  C1043   1.415   .     S
C1034  O1080   1.283   .     A
C1035  O1097   1.386   .     S
C1035  C1064   1.410   .     A
C1035  C1037   1.399   .     A
C1036  C1038   1.412   .     A
C1036  O1108   1.385   .     S
C1036  C1063   1.433   .     A
C1037  C1089   1.444   .     S
C1038  C1091   1.448   .     S
C1038  C288    1.409   1_556 S
C1039  C1044   1.396   .     A
C1039  H1069   1.084   .     S
C1039  C1299   1.370   .     S
C1040  H1070   1.084   .     S
C1040  C1043   1.396   .     A
C1041  H1071   1.083   .     S
C1041  C1043   1.396   .     A
C1042  H1072   1.084   .     S
C1042  C1044   1.397   .     A
C1042  C1298   1.370   .     S
C1045  H1073   1.082   .     S
C1045  N1078   1.367   .     A
C1045  C1133   1.418   .     S
C1046  H1074   1.082   .     S
C1046  N1077   1.367   .     A
C1046  C1220   1.417   1_455 S
C1047  N1077   1.367   .     A
C1047  H1075   1.082   .     S
C1047  C1217   1.418   1_455 S
C1048  H1076   1.082   .     S
C1048  N1078   1.366   .     A
C1048  C1132   1.417   .     S
C1049  O1083   1.296   .     A
C1049  O1085   1.298   .     A
C1049  C1051   1.471   .     S
C1050  O1084   1.295   .     A
C1050  C1052   1.472   .     S
C1050  O1086   1.296   .     A
C1051  C1055   1.412   .     A
C1051  C1057   1.395   .     A
C1052  C1056   1.414   .     A
C1052  C1058   1.389   .     A
C1053  C1055   1.398   .     A
C1053  C1061   1.410   .     A
C1053  H1067   1.084   .     S
C1054  C1056   1.403   .     A
C1054  C1062   1.410   .     A
C1054  H1068   1.084   .     S
C1055  C1095   1.444   .     S
C1056  C1093   1.441   .     S
C1057  H1066   1.076   .     S
C1057  C1059   1.392   .     A
C1058  H1065   1.083   .     S
C1058  C1060   1.392   .     A
C1059  C1061   1.422   .     A
C1059  C1063   1.419   .     A
C1060  C1064   1.398   .     A
C1060  C1062   1.407   .     A
C1061  C263    1.410   1_556 S
C1063  C290    1.400   1_556 S
N1077  Zn1087  2.013   .     S
N1078  Zn1088  2.013   .     S
O1079  Zn1087  1.995   .     S
O1080  Zn1088  1.995   .     S
O1081  Zn1088  1.995   .     S
O1082  Zn1087  1.995   .     S
O1083  Zn1087  1.948   .     S
O1084  Zn1088  1.948   .     S
O1085  Zn1088  1.903   .     S
O1086  Zn1087  1.903   .     S
C1089  N1262   1.157   1_455 S
N1090  C1175   1.157   .     S
C1091  N1092   1.157   .     T
C1093  N1094   1.156   .     T
C1095  N1096   1.157   .     T
O1097  C1098   1.406   .     S
C1098  H1100   1.102   .     S
C1098  C1101   1.532   .     S
C1098  H1099   1.107   .     S
C1101  H1102   1.107   .     S
C1101  H1103   1.111   .     S
C1101  C1104   1.529   .     S
C1104  H1107   1.108   .     S
C1104  H1105   1.110   .     S
C1104  H1106   1.109   .     S
O1108  C1109   1.413   .     S
C1109  H1110   1.115   .     S
C1109  H1111   1.115   .     S
C1109  C1112   1.528   .     S
C1112  H1114   1.112   .     S
C1112  H1113   1.112   .     S
C1115  H1116   1.111   .     S
C1115  H1117   1.108   .     S
C1115  C1370   1.526   .     S
C1115  H1376   1.111   .     S
C1119  C1130   1.416   .     S
C1119  O1165   1.283   .     A
C1119  O1167   1.284   .     A
C1120  O1168   1.284   .     A
C1120  C1129   1.415   .     S
C1120  O1166   1.283   .     A
C1121  O1183   1.386   .     S
C1121  C1150   1.410   .     A
C1121  C1123   1.399   .     A
C1122  C1124   1.412   .     A
C1122  O1194   1.385   .     S
C1122  C1149   1.433   .     A
C1123  C1175   1.444   .     S
C1124  C1177   1.448   .     S
C1124  C374    1.409   1_556 S
C1125  C1130   1.396   .     A
C1125  H1155   1.084   .     S
C1125  C1385   1.370   .     S
C1126  H1156   1.084   .     S
C1126  C1129   1.396   .     A
C1127  H1157   1.083   .     S
C1127  C1129   1.396   .     A
C1128  H1158   1.084   .     S
C1128  C1130   1.397   .     A
C1128  C1384   1.370   .     S
C1131  H1159   1.082   .     S
C1131  N1164   1.367   .     A
C1131  C1219   1.418   .     S
C1132  H1160   1.082   .     S
C1132  N1163   1.367   .     A
C1133  N1163   1.367   .     A
C1133  H1161   1.082   .     S
C1134  H1162   1.082   .     S
C1134  N1164   1.366   .     A
C1134  C1218   1.417   .     S
C1135  O1169   1.296   .     A
C1135  O1171   1.298   .     A
C1135  C1137   1.471   .     S
C1136  O1170   1.295   .     A
C1136  C1138   1.472   .     S
C1136  O1172   1.296   .     A
C1137  C1141   1.412   .     A
C1137  C1143   1.395   .     A
C1138  C1142   1.414   .     A
C1138  C1144   1.389   .     A
C1139  C1141   1.398   .     A
C1139  C1147   1.410   .     A
C1139  H1153   1.084   .     S
C1140  C1142   1.403   .     A
C1140  C1148   1.410   .     A
C1140  H1154   1.084   .     S
C1141  C1181   1.444   .     S
C1142  C1179   1.441   .     S
C1143  H1152   1.076   .     S
C1143  C1145   1.392   .     A
C1144  H1151   1.083   .     S
C1144  C1146   1.392   .     A
C1145  C1147   1.422   .     A
C1145  C1149   1.419   .     A
C1146  C1150   1.398   .     A
C1146  C1148   1.407   .     A
C1147  C349    1.410   1_556 S
C1149  C376    1.400   1_556 S
N1163  Zn1173  2.013   .     S
N1164  Zn1174  2.013   .     S
O1165  Zn1173  1.995   .     S
O1166  Zn1174  1.995   .     S
O1167  Zn1174  1.995   .     S
O1168  Zn1173  1.995   .     S
O1169  Zn1173  1.948   .     S
O1170  Zn1174  1.948   .     S
O1171  Zn1174  1.903   .     S
O1172  Zn1173  1.903   .     S
N1176  C1261   1.157   .     S
C1177  N1178   1.157   .     T
C1179  N1180   1.156   .     T
C1181  N1182   1.157   .     T
O1183  C1184   1.406   .     S
C1184  H1186   1.102   .     S
C1184  C1187   1.532   .     S
C1184  H1185   1.107   .     S
C1187  H1188   1.107   .     S
C1187  H1189   1.111   .     S
C1187  C1190   1.529   .     S
C1190  H1193   1.108   .     S
C1190  H1191   1.110   .     S
C1190  H1192   1.109   .     S
O1194  C1195   1.413   .     S
C1195  H1196   1.115   .     S
C1195  H1197   1.115   .     S
C1195  C1198   1.528   .     S
C1198  H1200   1.112   .     S
C1198  H1199   1.112   .     S
C1201  H1202   1.111   .     S
C1201  H1203   1.108   .     S
C1201  C1456   1.526   .     S
C1201  H1462   1.111   .     S
C1205  C1216   1.416   .     S
C1205  O1251   1.283   .     A
C1205  O1253   1.284   .     A
C1206  O1254   1.284   .     A
C1206  C1215   1.415   .     S
C1206  O1252   1.283   .     A
C1207  O1269   1.386   .     S
C1207  C1236   1.410   .     A
C1207  C1209   1.399   .     A
C1208  C1210   1.412   .     A
C1208  O1280   1.385   .     S
C1208  C1235   1.433   .     A
C1209  C1261   1.444   .     S
C1210  C1263   1.448   .     S
C1210  C460    1.409   1_556 S
C1211  C1216   1.396   .     A
C1211  H1241   1.084   .     S
C1211  C1471   1.370   .     S
C1212  H1242   1.084   .     S
C1212  C1215   1.396   .     A
C1213  H1243   1.083   .     S
C1213  C1215   1.396   .     A
C1214  H1244   1.084   .     S
C1214  C1216   1.397   .     A
C1214  C1470   1.370   .     S
C1217  H1245   1.082   .     S
C1217  N1250   1.367   .     A
C1217  C1047   1.418   1_655 S
C1218  H1246   1.082   .     S
C1218  N1249   1.367   .     A
C1219  N1249   1.367   .     A
C1219  H1247   1.082   .     S
C1220  H1248   1.082   .     S
C1220  N1250   1.366   .     A
C1220  C1046   1.417   1_655 S
C1221  O1255   1.296   .     A
C1221  O1257   1.298   .     A
C1221  C1223   1.471   .     S
C1222  O1256   1.295   .     A
C1222  C1224   1.472   .     S
C1222  O1258   1.296   .     A
C1223  C1227   1.412   .     A
C1223  C1229   1.395   .     A
C1224  C1228   1.414   .     A
C1224  C1230   1.389   .     A
C1225  C1227   1.398   .     A
C1225  C1233   1.410   .     A
C1225  H1239   1.084   .     S
C1226  C1228   1.403   .     A
C1226  C1234   1.410   .     A
C1226  H1240   1.084   .     S
C1227  C1267   1.444   .     S
C1228  C1265   1.441   .     S
C1229  H1238   1.076   .     S
C1229  C1231   1.392   .     A
C1230  H1237   1.083   .     S
C1230  C1232   1.392   .     A
C1231  C1233   1.422   .     A
C1231  C1235   1.419   .     A
C1232  C1236   1.398   .     A
C1232  C1234   1.407   .     A
C1233  C435    1.410   1_556 S
C1235  C462    1.400   1_556 S
N1249  Zn1259  2.013   .     S
N1250  Zn1260  2.013   .     S
O1251  Zn1259  1.995   .     S
O1252  Zn1260  1.995   .     S
O1253  Zn1260  1.995   .     S
O1254  Zn1259  1.995   .     S
O1255  Zn1259  1.948   .     S
O1256  Zn1260  1.948   .     S
O1257  Zn1260  1.903   .     S
O1258  Zn1259  1.903   .     S
N1262  C1089   1.157   1_655 S
C1263  N1264   1.157   .     T
C1265  N1266   1.156   .     T
C1267  N1268   1.157   .     T
O1269  C1270   1.406   .     S
C1270  H1272   1.102   .     S
C1270  C1273   1.532   .     S
C1270  H1271   1.107   .     S
C1273  H1274   1.107   .     S
C1273  H1275   1.111   .     S
C1273  C1276   1.529   .     S
C1276  H1279   1.108   .     S
C1276  H1277   1.110   .     S
C1276  H1278   1.109   .     S
O1280  C1281   1.413   .     S
C1281  H1282   1.115   .     S
C1281  H1283   1.115   .     S
C1281  C1284   1.528   .     S
C1284  H1286   1.112   .     S
C1284  H1285   1.112   .     S
C1287  H1288   1.111   .     S
C1287  H1289   1.108   .     S
C1287  C1542   1.526   .     S
C1287  H1548   1.111   .     S
C1291  C1302   1.416   .     S
C1291  O1337   1.283   .     A
C1291  O1339   1.284   .     A
C1292  O1340   1.284   .     A
C1292  C1301   1.415   .     S
C1292  O1338   1.283   .     A
C1293  O1355   1.386   .     S
C1293  C1322   1.410   .     A
C1293  C1295   1.399   .     A
C1294  C1296   1.412   .     A
C1294  O1366   1.385   .     S
C1294  C1321   1.433   .     A
C1295  C1347   1.444   .     S
C1296  C1349   1.448   .     S
C1296  C546    1.409   1_556 S
C1297  C1302   1.396   .     A
C1297  H1327   1.084   .     S
C1297  C783    1.370   1_565 S
C1298  H1328   1.084   .     S
C1298  C1301   1.396   .     A
C1299  H1329   1.083   .     S
C1299  C1301   1.396   .     A
C1300  H1330   1.084   .     S
C1300  C1302   1.397   .     A
C1300  C782    1.370   1_565 S
C1303  H1331   1.082   .     S
C1303  N1336   1.367   .     A
C1303  C1391   1.418   .     S
C1304  H1332   1.082   .     S
C1304  N1335   1.367   .     A
C1304  C1478   1.417   1_455 S
C1305  N1335   1.367   .     A
C1305  H1333   1.082   .     S
C1305  C1475   1.418   1_455 S
C1306  H1334   1.082   .     S
C1306  N1336   1.366   .     A
C1306  C1390   1.417   .     S
C1307  O1341   1.296   .     A
C1307  O1343   1.298   .     A
C1307  C1309   1.471   .     S
C1308  O1342   1.295   .     A
C1308  C1310   1.472   .     S
C1308  O1344   1.296   .     A
C1309  C1313   1.412   .     A
C1309  C1315   1.395   .     A
C1310  C1314   1.414   .     A
C1310  C1316   1.389   .     A
C1311  C1313   1.398   .     A
C1311  C1319   1.410   .     A
C1311  H1325   1.084   .     S
C1312  C1314   1.403   .     A
C1312  C1320   1.410   .     A
C1312  H1326   1.084   .     S
C1313  C1353   1.444   .     S
C1314  C1351   1.441   .     S
C1315  H1324   1.076   .     S
C1315  C1317   1.392   .     A
C1316  H1323   1.083   .     S
C1316  C1318   1.392   .     A
C1317  C1319   1.422   .     A
C1317  C1321   1.419   .     A
C1318  C1322   1.398   .     A
C1318  C1320   1.407   .     A
C1319  C521    1.410   1_556 S
C1321  C548    1.400   1_556 S
N1335  Zn1345  2.013   .     S
N1336  Zn1346  2.013   .     S
O1337  Zn1345  1.995   .     S
O1338  Zn1346  1.995   .     S
O1339  Zn1346  1.995   .     S
O1340  Zn1345  1.995   .     S
O1341  Zn1345  1.948   .     S
O1342  Zn1346  1.948   .     S
O1343  Zn1346  1.903   .     S
O1344  Zn1345  1.903   .     S
C1347  N1520   1.157   1_455 S
N1348  C1433   1.157   .     S
C1349  N1350   1.157   .     T
C1351  N1352   1.156   .     T
C1353  N1354   1.157   .     T
O1355  C1356   1.406   .     S
C1356  H1358   1.102   .     S
C1356  C1359   1.532   .     S
C1356  H1357   1.107   .     S
C1359  H1360   1.107   .     S
C1359  H1361   1.111   .     S
C1359  C1362   1.529   .     S
C1362  H1365   1.108   .     S
C1362  H1363   1.110   .     S
C1362  H1364   1.109   .     S
O1366  C1367   1.413   .     S
C1367  H1368   1.115   .     S
C1367  H1369   1.115   .     S
C1367  C1370   1.528   .     S
C1370  H1372   1.112   .     S
C1370  H1371   1.112   .     S
C1373  H1374   1.111   .     S
C1373  H1375   1.108   .     S
C1373  C854    1.526   1_565 S
C1373  H860    1.111   1_565 S
C1377  C1388   1.416   .     S
C1377  O1423   1.283   .     A
C1377  O1425   1.284   .     A
C1378  O1426   1.284   .     A
C1378  C1387   1.415   .     S
C1378  O1424   1.283   .     A
C1379  O1441   1.386   .     S
C1379  C1408   1.410   .     A
C1379  C1381   1.399   .     A
C1380  C1382   1.412   .     A
C1380  O1452   1.385   .     S
C1380  C1407   1.433   .     A
C1381  C1433   1.444   .     S
C1382  C1435   1.448   .     S
C1382  C632    1.409   1_556 S
C1383  C1388   1.396   .     A
C1383  H1413   1.084   .     S
C1383  C869    1.370   1_565 S
C1384  H1414   1.084   .     S
C1384  C1387   1.396   .     A
C1385  H1415   1.083   .     S
C1385  C1387   1.396   .     A
C1386  H1416   1.084   .     S
C1386  C1388   1.397   .     A
C1386  C868    1.370   1_565 S
C1389  H1417   1.082   .     S
C1389  N1422   1.367   .     A
C1389  C1477   1.418   .     S
C1390  H1418   1.082   .     S
C1390  N1421   1.367   .     A
C1391  N1421   1.367   .     A
C1391  H1419   1.082   .     S
C1392  H1420   1.082   .     S
C1392  N1422   1.366   .     A
C1392  C1476   1.417   .     S
C1393  O1427   1.296   .     A
C1393  O1429   1.298   .     A
C1393  C1395   1.471   .     S
C1394  O1428   1.295   .     A
C1394  C1396   1.472   .     S
C1394  O1430   1.296   .     A
C1395  C1399   1.412   .     A
C1395  C1401   1.395   .     A
C1396  C1400   1.414   .     A
C1396  C1402   1.389   .     A
C1397  C1399   1.398   .     A
C1397  C1405   1.410   .     A
C1397  H1411   1.084   .     S
C1398  C1400   1.403   .     A
C1398  C1406   1.410   .     A
C1398  H1412   1.084   .     S
C1399  C1439   1.444   .     S
C1400  C1437   1.441   .     S
C1401  H1410   1.076   .     S
C1401  C1403   1.392   .     A
C1402  H1409   1.083   .     S
C1402  C1404   1.392   .     A
C1403  C1405   1.422   .     A
C1403  C1407   1.419   .     A
C1404  C1408   1.398   .     A
C1404  C1406   1.407   .     A
C1405  C607    1.410   1_556 S
C1407  C634    1.400   1_556 S
N1421  Zn1431  2.013   .     S
N1422  Zn1432  2.013   .     S
O1423  Zn1431  1.995   .     S
O1424  Zn1432  1.995   .     S
O1425  Zn1432  1.995   .     S
O1426  Zn1431  1.995   .     S
O1427  Zn1431  1.948   .     S
O1428  Zn1432  1.948   .     S
O1429  Zn1432  1.903   .     S
O1430  Zn1431  1.903   .     S
N1434  C1519   1.157   .     S
C1435  N1436   1.157   .     T
C1437  N1438   1.156   .     T
C1439  N1440   1.157   .     T
O1441  C1442   1.406   .     S
C1442  H1444   1.102   .     S
C1442  C1445   1.532   .     S
C1442  H1443   1.107   .     S
C1445  H1446   1.107   .     S
C1445  H1447   1.111   .     S
C1445  C1448   1.529   .     S
C1448  H1451   1.108   .     S
C1448  H1449   1.110   .     S
C1448  H1450   1.109   .     S
O1452  C1453   1.413   .     S
C1453  H1454   1.115   .     S
C1453  H1455   1.115   .     S
C1453  C1456   1.528   .     S
C1456  H1458   1.112   .     S
C1456  H1457   1.112   .     S
C1459  H1460   1.111   .     S
C1459  H1461   1.108   .     S
C1459  C940    1.526   1_565 S
C1459  H946    1.111   1_565 S
C1463  C1474   1.416   .     S
C1463  O1509   1.283   .     A
C1463  O1511   1.284   .     A
C1464  O1512   1.284   .     A
C1464  C1473   1.415   .     S
C1464  O1510   1.283   .     A
C1465  O1527   1.386   .     S
C1465  C1494   1.410   .     A
C1465  C1467   1.399   .     A
C1466  C1468   1.412   .     A
C1466  O1538   1.385   .     S
C1466  C1493   1.433   .     A
C1467  C1519   1.444   .     S
C1468  C1521   1.448   .     S
C1468  C718    1.409   1_556 S
C1469  C1474   1.396   .     A
C1469  H1499   1.084   .     S
C1469  C955    1.370   1_565 S
C1470  H1500   1.084   .     S
C1470  C1473   1.396   .     A
C1471  H1501   1.083   .     S
C1471  C1473   1.396   .     A
C1472  H1502   1.084   .     S
C1472  C1474   1.397   .     A
C1472  C954    1.370   1_565 S
C1475  H1503   1.082   .     S
C1475  N1508   1.367   .     A
C1475  C1305   1.418   1_655 S
C1476  H1504   1.082   .     S
C1476  N1507   1.367   .     A
C1477  N1507   1.367   .     A
C1477  H1505   1.082   .     S
C1478  H1506   1.082   .     S
C1478  N1508   1.366   .     A
C1478  C1304   1.417   1_655 S
C1479  O1513   1.296   .     A
C1479  O1515   1.298   .     A
C1479  C1481   1.471   .     S
C1480  O1514   1.295   .     A
C1480  C1482   1.472   .     S
C1480  O1516   1.296   .     A
C1481  C1485   1.412   .     A
C1481  C1487   1.395   .     A
C1482  C1486   1.414   .     A
C1482  C1488   1.389   .     A
C1483  C1485   1.398   .     A
C1483  C1491   1.410   .     A
C1483  H1497   1.084   .     S
C1484  C1486   1.403   .     A
C1484  C1492   1.410   .     A
C1484  H1498   1.084   .     S
C1485  C1525   1.444   .     S
C1486  C1523   1.441   .     S
C1487  H1496   1.076   .     S
C1487  C1489   1.392   .     A
C1488  H1495   1.083   .     S
C1488  C1490   1.392   .     A
C1489  C1491   1.422   .     A
C1489  C1493   1.419   .     A
C1490  C1494   1.398   .     A
C1490  C1492   1.407   .     A
C1491  C693    1.410   1_556 S
C1493  C720    1.400   1_556 S
N1507  Zn1517  2.013   .     S
N1508  Zn1518  2.013   .     S
O1509  Zn1517  1.995   .     S
O1510  Zn1518  1.995   .     S
O1511  Zn1518  1.995   .     S
O1512  Zn1517  1.995   .     S
O1513  Zn1517  1.948   .     S
O1514  Zn1518  1.948   .     S
O1515  Zn1518  1.903   .     S
O1516  Zn1517  1.903   .     S
N1520  C1347   1.157   1_655 S
C1521  N1522   1.157   .     T
C1523  N1524   1.156   .     T
C1525  N1526   1.157   .     T
O1527  C1528   1.406   .     S
C1528  H1530   1.102   .     S
C1528  C1531   1.532   .     S
C1528  H1529   1.107   .     S
C1531  H1532   1.107   .     S
C1531  H1533   1.111   .     S
C1531  C1534   1.529   .     S
C1534  H1537   1.108   .     S
C1534  H1535   1.110   .     S
C1534  H1536   1.109   .     S
O1538  C1539   1.413   .     S
C1539  H1540   1.115   .     S
C1539  H1541   1.115   .     S
C1539  C1542   1.528   .     S
C1542  H1544   1.112   .     S
C1542  H1543   1.112   .     S
C1545  H1546   1.111   .     S
C1545  H1547   1.108   .     S
C1545  C1026   1.526   1_565 S
C1545  H1032   1.111   1_565 S
