data_str_m3_o1_o16_pcu_sym.259
_audit_creation_date              2020-01-03
_audit_creation_method            'Materials Studio'
_symmetry_space_group_name_H-M    'P1'
_symmetry_Int_Tables_number       1
_symmetry_cell_setting            triclinic
loop_
_symmetry_equiv_pos_as_xyz
  x,y,z
_cell_length_a                    29.8270
_cell_length_b                    32.1153
_cell_length_c                    26.4330
_cell_angle_alpha                 89.7159
_cell_angle_beta                  69.4061
_cell_angle_gamma                 88.5186
loop_
_atom_site_label
_atom_site_type_symbol
_atom_site_fract_x
_atom_site_fract_y
_atom_site_fract_z
_atom_site_U_iso_or_equiv
_atom_site_adp_type
_atom_site_occupancy
C1     C     0.16566   0.24642   0.25140   0.00000  Uiso   1.00
C2     C     0.14520   0.16058   0.49405   0.00000  Uiso   1.00
C3     C     0.15449   0.15051   0.43949   0.00000  Uiso   1.00
C4     C     0.18345   0.15483   0.01452   0.00000  Uiso   1.00
C5     C     0.22521   0.13015   0.48600   0.00000  Uiso   1.00
C6     C     0.23234   0.11869   0.43253   0.00000  Uiso   1.00
C7     C     0.19639   0.12692   0.41171   0.00000  Uiso   1.00
C8     C     0.18216   0.17470   0.06190   0.00000  Uiso   1.00
C9     C     0.24796   0.13180   0.06569   0.00000  Uiso   1.00
C10    C     0.12256   0.16482   0.41333   0.00000  Uiso   1.00
C11    C     0.18293   0.31040   0.28845   0.00000  Uiso   1.00
C12    C     0.13977   0.16581   0.35276   0.00000  Uiso   1.00
C13    C     0.18924   0.01956   0.28311   0.00000  Uiso   1.00
C14    C     0.16897   0.04203   0.25016   0.00000  Uiso   1.00
C15    C     0.14803   0.02157   0.21800   0.00000  Uiso   1.00
C16    C     0.14602   0.31224   0.21936   0.00000  Uiso   1.00
C17    C     0.16365   0.29036   0.25425   0.00000  Uiso   1.00
C18    C     0.31885   0.13715   0.22179   0.00000  Uiso   1.00
C19    C     0.03273   0.13595   0.22370   0.00000  Uiso   1.00
C20    C     0.01415   0.19705   0.27690   0.00000  Uiso   1.00
C21    C     0.29971   0.19629   0.27735   0.00000  Uiso   1.00
C22    C     0.16736   0.08658   0.25008   0.00000  Uiso   1.00
C23    C     0.19350   0.16671   0.14801   0.00000  Uiso   1.00
C24    C     0.25702   0.11782   0.01324   0.00000  Uiso   1.00
C25    C     0.21075   0.16027   0.08991   0.00000  Uiso   1.00
C26    C     0.07733   0.18266   0.44514   0.00000  Uiso   1.00
C27    C     0.06396   0.18539   0.00194   0.00000  Uiso   1.00
C28    C     0.09773   0.17405   0.02651   0.00000  Uiso   1.00
H29    H     0.26866   0.11878   0.08851   0.00000  Uiso   1.00
H30    H     0.13512   0.03845   0.19023   0.00000  Uiso   1.00
H31    H     0.13160   0.29628   0.19263   0.00000  Uiso   1.00
H32    H     0.27357   0.21954   0.29966   0.00000  Uiso   1.00
H33    H     0.15707   0.20005   0.07950   0.00000  Uiso   1.00
H34    H     0.20221   0.11428   0.37263   0.00000  Uiso   1.00
N35    N     0.04760   0.16668   0.25001   0.00000  Uiso   1.00
N36    N     0.28573   0.16665   0.25000   0.00000  Uiso   1.00
O37    O     0.12846   0.22775   0.25000   0.00000  Uiso   1.00
O38    O     0.20490   0.22774   0.25000   0.00000  Uiso   1.00
O39    O     0.10947   0.16666   0.32681   0.00000  Uiso   1.00
O40    O     0.18591   0.16665   0.32681   0.00000  Uiso   1.00
O41    O     0.12843   0.10559   0.24999   0.00000  Uiso   1.00
O42    O     0.20488   0.10558   0.24999   0.00000  Uiso   1.00
O43    O     0.14742   0.16668   0.17319   0.00000  Uiso   1.00
O44    O     0.22387   0.16667   0.17319   0.00000  Uiso   1.00
Zn45   Zn    0.11562   0.16667   0.25000   0.00000  Uiso   1.00
Zn46   Zn    0.21771   0.16666   0.25000   0.00000  Uiso   1.00
Br47   Br    0.22921   0.04383   0.31731   0.00000  Uiso   1.00
Br48   Br    0.30300   0.09962   0.17458   0.00000  Uiso   1.00
C49    C     0.06519   0.10080   0.19761   0.00000  Uiso   1.00
H50    H     0.10201   0.10585   0.17278   0.00000  Uiso   1.00
O51    O     0.05099   0.06516   0.20426   0.00000  Uiso   1.00
C52    C     0.02644   0.23055   0.30720   0.00000  Uiso   1.00
H53    H     0.05643   0.22687   0.32043   0.00000  Uiso   1.00
O54    O     0.00232   0.26277   0.31883   0.00000  Uiso   1.00
Br55   Br    0.29327   0.10186   0.37979   0.00000  Uiso   1.00
Br56   Br    0.30656   0.07515   0.48985   0.00000  Uiso   1.00
C57    C     0.04248   0.19664   0.41993   0.00000  Uiso   1.00
H58    H     0.02905   0.17461   0.39806   0.00000  Uiso   1.00
O59    O     0.02867   0.23299   0.42350   0.00000  Uiso   1.00
C60    C     0.08134   0.17037   0.08612   0.00000  Uiso   1.00
H61    H     0.08933   0.14188   0.10342   0.00000  Uiso   1.00
O62    O     0.06170   0.19965   0.11560   0.00000  Uiso   1.00
C63    C     0.01381   0.19900   0.03517   0.00000  Uiso   1.00
H64    H     0.32840   0.22293   0.02082   0.00000  Uiso   1.00
O65    O     0.32545   0.18276   0.07840   0.00000  Uiso   1.00
Br66   Br    0.19692   0.28054   0.34526   0.00000  Uiso   1.00
C67    C     0.49899   0.24642   0.25140   0.00000  Uiso   1.00
C68    C     0.47854   0.16058   0.49405   0.00000  Uiso   1.00
C69    C     0.48782   0.15051   0.43949   0.00000  Uiso   1.00
C70    C     0.51679   0.15483   0.01452   0.00000  Uiso   1.00
C71    C     0.55855   0.13015   0.48600   0.00000  Uiso   1.00
C72    C     0.56568   0.11869   0.43253   0.00000  Uiso   1.00
C73    C     0.52973   0.12692   0.41171   0.00000  Uiso   1.00
C74    C     0.51549   0.17470   0.06190   0.00000  Uiso   1.00
C75    C     0.58129   0.13180   0.06569   0.00000  Uiso   1.00
C76    C     0.45589   0.16482   0.41333   0.00000  Uiso   1.00
C77    C     0.51626   0.31040   0.28845   0.00000  Uiso   1.00
C78    C     0.47310   0.16581   0.35276   0.00000  Uiso   1.00
C79    C     0.52258   0.01956   0.28311   0.00000  Uiso   1.00
C80    C     0.50230   0.04203   0.25016   0.00000  Uiso   1.00
C81    C     0.48136   0.02157   0.21800   0.00000  Uiso   1.00
C82    C     0.47935   0.31224   0.21936   0.00000  Uiso   1.00
C83    C     0.49698   0.29036   0.25425   0.00000  Uiso   1.00
C84    C     0.65218   0.13715   0.22179   0.00000  Uiso   1.00
C85    C     0.36606   0.13595   0.22370   0.00000  Uiso   1.00
C86    C     0.34749   0.19705   0.27690   0.00000  Uiso   1.00
C87    C     0.63304   0.19629   0.27735   0.00000  Uiso   1.00
C88    C     0.50070   0.08658   0.25008   0.00000  Uiso   1.00
C89    C     0.52684   0.16671   0.14801   0.00000  Uiso   1.00
C90    C     0.59035   0.11782   0.01324   0.00000  Uiso   1.00
C91    C     0.54408   0.16027   0.08991   0.00000  Uiso   1.00
C92    C     0.41067   0.18266   0.44514   0.00000  Uiso   1.00
C93    C     0.39729   0.18539   0.00194   0.00000  Uiso   1.00
C94    C     0.43106   0.17405   0.02651   0.00000  Uiso   1.00
H95    H     0.60199   0.11878   0.08851   0.00000  Uiso   1.00
H96    H     0.46845   0.03845   0.19023   0.00000  Uiso   1.00
H97    H     0.46493   0.29628   0.19263   0.00000  Uiso   1.00
H98    H     0.60691   0.21954   0.29966   0.00000  Uiso   1.00
H99    H     0.49040   0.20005   0.07950   0.00000  Uiso   1.00
H100   H     0.53555   0.11428   0.37263   0.00000  Uiso   1.00
N101   N     0.38093   0.16668   0.25001   0.00000  Uiso   1.00
N102   N     0.61906   0.16665   0.25000   0.00000  Uiso   1.00
O103   O     0.46179   0.22775   0.25000   0.00000  Uiso   1.00
O104   O     0.53823   0.22774   0.25000   0.00000  Uiso   1.00
O105   O     0.44280   0.16666   0.32681   0.00000  Uiso   1.00
O106   O     0.51924   0.16665   0.32681   0.00000  Uiso   1.00
O107   O     0.46177   0.10559   0.24999   0.00000  Uiso   1.00
O108   O     0.53821   0.10558   0.24999   0.00000  Uiso   1.00
O109   O     0.48076   0.16668   0.17319   0.00000  Uiso   1.00
O110   O     0.55720   0.16667   0.17319   0.00000  Uiso   1.00
Zn111  Zn    0.44896   0.16667   0.25000   0.00000  Uiso   1.00
Zn112  Zn    0.55104   0.16666   0.25000   0.00000  Uiso   1.00
Br113  Br    0.56254   0.04383   0.31731   0.00000  Uiso   1.00
Br114  Br    0.63633   0.09962   0.17458   0.00000  Uiso   1.00
C115   C     0.39852   0.10080   0.19761   0.00000  Uiso   1.00
H116   H     0.43534   0.10585   0.17278   0.00000  Uiso   1.00
O117   O     0.38432   0.06516   0.20426   0.00000  Uiso   1.00
C118   C     0.35977   0.23055   0.30720   0.00000  Uiso   1.00
H119   H     0.38976   0.22687   0.32043   0.00000  Uiso   1.00
O120   O     0.33565   0.26277   0.31883   0.00000  Uiso   1.00
Br121  Br    0.62660   0.10186   0.37979   0.00000  Uiso   1.00
Br122  Br    0.63989   0.07515   0.48985   0.00000  Uiso   1.00
C123   C     0.37581   0.19664   0.41993   0.00000  Uiso   1.00
H124   H     0.36238   0.17461   0.39806   0.00000  Uiso   1.00
O125   O     0.36200   0.23299   0.42350   0.00000  Uiso   1.00
C126   C     0.41467   0.17037   0.08612   0.00000  Uiso   1.00
H127   H     0.42266   0.14188   0.10342   0.00000  Uiso   1.00
O128   O     0.39503   0.19965   0.11560   0.00000  Uiso   1.00
C129   C     0.34714   0.19900   0.03517   0.00000  Uiso   1.00
H130   H     0.66173   0.22293   0.02082   0.00000  Uiso   1.00
O131   O     0.65879   0.18276   0.07840   0.00000  Uiso   1.00
Br132  Br    0.53025   0.28054   0.34526   0.00000  Uiso   1.00
C133   C     0.83232   0.24642   0.25140   0.00000  Uiso   1.00
C134   C     0.81187   0.16058   0.49405   0.00000  Uiso   1.00
C135   C     0.82115   0.15051   0.43949   0.00000  Uiso   1.00
C136   C     0.85012   0.15483   0.01452   0.00000  Uiso   1.00
C137   C     0.89188   0.13015   0.48600   0.00000  Uiso   1.00
C138   C     0.89901   0.11869   0.43253   0.00000  Uiso   1.00
C139   C     0.86306   0.12692   0.41171   0.00000  Uiso   1.00
C140   C     0.84883   0.17470   0.06190   0.00000  Uiso   1.00
C141   C     0.91463   0.13180   0.06569   0.00000  Uiso   1.00
C142   C     0.78922   0.16482   0.41333   0.00000  Uiso   1.00
C143   C     0.84959   0.31040   0.28845   0.00000  Uiso   1.00
C144   C     0.80643   0.16581   0.35276   0.00000  Uiso   1.00
C145   C     0.85591   0.01956   0.28311   0.00000  Uiso   1.00
C146   C     0.83563   0.04203   0.25016   0.00000  Uiso   1.00
C147   C     0.81469   0.02157   0.21800   0.00000  Uiso   1.00
C148   C     0.81268   0.31224   0.21936   0.00000  Uiso   1.00
C149   C     0.83032   0.29036   0.25425   0.00000  Uiso   1.00
C150   C     0.98552   0.13715   0.22179   0.00000  Uiso   1.00
C151   C     0.69939   0.13595   0.22370   0.00000  Uiso   1.00
C152   C     0.68082   0.19705   0.27690   0.00000  Uiso   1.00
C153   C     0.96637   0.19629   0.27735   0.00000  Uiso   1.00
C154   C     0.83403   0.08658   0.25008   0.00000  Uiso   1.00
C155   C     0.86017   0.16671   0.14801   0.00000  Uiso   1.00
C156   C     0.92369   0.11782   0.01324   0.00000  Uiso   1.00
C157   C     0.87742   0.16027   0.08991   0.00000  Uiso   1.00
C158   C     0.74400   0.18266   0.44514   0.00000  Uiso   1.00
C159   C     0.73062   0.18539   0.00194   0.00000  Uiso   1.00
C160   C     0.76440   0.17405   0.02651   0.00000  Uiso   1.00
H161   H     0.93532   0.11878   0.08851   0.00000  Uiso   1.00
H162   H     0.80179   0.03845   0.19023   0.00000  Uiso   1.00
H163   H     0.79826   0.29628   0.19263   0.00000  Uiso   1.00
H164   H     0.94024   0.21954   0.29966   0.00000  Uiso   1.00
H165   H     0.82374   0.20005   0.07950   0.00000  Uiso   1.00
H166   H     0.86888   0.11428   0.37263   0.00000  Uiso   1.00
N167   N     0.71426   0.16668   0.25001   0.00000  Uiso   1.00
N168   N     0.95239   0.16665   0.25000   0.00000  Uiso   1.00
O169   O     0.79512   0.22775   0.25000   0.00000  Uiso   1.00
O170   O     0.87157   0.22774   0.25000   0.00000  Uiso   1.00
O171   O     0.77613   0.16666   0.32681   0.00000  Uiso   1.00
O172   O     0.85258   0.16665   0.32681   0.00000  Uiso   1.00
O173   O     0.79510   0.10559   0.24999   0.00000  Uiso   1.00
O174   O     0.87154   0.10558   0.24999   0.00000  Uiso   1.00
O175   O     0.81409   0.16668   0.17319   0.00000  Uiso   1.00
O176   O     0.89053   0.16667   0.17319   0.00000  Uiso   1.00
Zn177  Zn    0.78229   0.16667   0.25000   0.00000  Uiso   1.00
Zn178  Zn    0.88438   0.16666   0.25000   0.00000  Uiso   1.00
Br179  Br    0.89588   0.04383   0.31731   0.00000  Uiso   1.00
Br180  Br    0.96966   0.09962   0.17458   0.00000  Uiso   1.00
C181   C     0.73186   0.10080   0.19761   0.00000  Uiso   1.00
H182   H     0.76868   0.10585   0.17278   0.00000  Uiso   1.00
O183   O     0.71766   0.06516   0.20426   0.00000  Uiso   1.00
C184   C     0.69311   0.23055   0.30720   0.00000  Uiso   1.00
H185   H     0.72309   0.22687   0.32043   0.00000  Uiso   1.00
O186   O     0.66898   0.26277   0.31883   0.00000  Uiso   1.00
Br187  Br    0.95993   0.10186   0.37979   0.00000  Uiso   1.00
Br188  Br    0.97322   0.07515   0.48985   0.00000  Uiso   1.00
C189   C     0.70915   0.19664   0.41993   0.00000  Uiso   1.00
H190   H     0.69571   0.17461   0.39806   0.00000  Uiso   1.00
O191   O     0.69533   0.23299   0.42350   0.00000  Uiso   1.00
C192   C     0.74801   0.17037   0.08612   0.00000  Uiso   1.00
H193   H     0.75599   0.14188   0.10342   0.00000  Uiso   1.00
O194   O     0.72836   0.19965   0.11560   0.00000  Uiso   1.00
C195   C     0.68048   0.19900   0.03517   0.00000  Uiso   1.00
H196   H     0.99507   0.22293   0.02082   0.00000  Uiso   1.00
O197   O     0.99212   0.18276   0.07840   0.00000  Uiso   1.00
Br198  Br    0.86359   0.28054   0.34526   0.00000  Uiso   1.00
C199   C     0.16566   0.57975   0.25140   0.00000  Uiso   1.00
C200   C     0.14520   0.49391   0.49405   0.00000  Uiso   1.00
C201   C     0.15449   0.48385   0.43949   0.00000  Uiso   1.00
C202   C     0.18345   0.48817   0.01452   0.00000  Uiso   1.00
C203   C     0.22521   0.46348   0.48600   0.00000  Uiso   1.00
C204   C     0.23234   0.45203   0.43253   0.00000  Uiso   1.00
C205   C     0.19639   0.46025   0.41171   0.00000  Uiso   1.00
C206   C     0.18216   0.50804   0.06190   0.00000  Uiso   1.00
C207   C     0.24796   0.46513   0.06569   0.00000  Uiso   1.00
C208   C     0.12256   0.49815   0.41333   0.00000  Uiso   1.00
C209   C     0.18293   0.64373   0.28845   0.00000  Uiso   1.00
C210   C     0.13977   0.49915   0.35276   0.00000  Uiso   1.00
C211   C     0.18924   0.35289   0.28311   0.00000  Uiso   1.00
C212   C     0.16897   0.37537   0.25016   0.00000  Uiso   1.00
C213   C     0.14803   0.35490   0.21800   0.00000  Uiso   1.00
C214   C     0.14602   0.64558   0.21936   0.00000  Uiso   1.00
C215   C     0.16365   0.62369   0.25425   0.00000  Uiso   1.00
C216   C     0.31885   0.47049   0.22179   0.00000  Uiso   1.00
C217   C     0.03273   0.46928   0.22370   0.00000  Uiso   1.00
C218   C     0.01415   0.53038   0.27690   0.00000  Uiso   1.00
C219   C     0.29971   0.52962   0.27735   0.00000  Uiso   1.00
C220   C     0.16736   0.41991   0.25008   0.00000  Uiso   1.00
C221   C     0.19350   0.50005   0.14801   0.00000  Uiso   1.00
C222   C     0.25702   0.45115   0.01324   0.00000  Uiso   1.00
C223   C     0.21075   0.49360   0.08991   0.00000  Uiso   1.00
C224   C     0.07733   0.51600   0.44514   0.00000  Uiso   1.00
C225   C     0.06396   0.51873   0.00194   0.00000  Uiso   1.00
C226   C     0.09773   0.50739   0.02651   0.00000  Uiso   1.00
H227   H     0.26866   0.45211   0.08851   0.00000  Uiso   1.00
H228   H     0.13512   0.37178   0.19023   0.00000  Uiso   1.00
H229   H     0.13160   0.62961   0.19263   0.00000  Uiso   1.00
H230   H     0.27357   0.55287   0.29966   0.00000  Uiso   1.00
H231   H     0.15707   0.53338   0.07950   0.00000  Uiso   1.00
H232   H     0.20221   0.44762   0.37263   0.00000  Uiso   1.00
N233   N     0.04760   0.50001   0.25001   0.00000  Uiso   1.00
N234   N     0.28573   0.49998   0.25000   0.00000  Uiso   1.00
O235   O     0.12846   0.56108   0.25000   0.00000  Uiso   1.00
O236   O     0.20490   0.56107   0.25000   0.00000  Uiso   1.00
O237   O     0.10947   0.50000   0.32681   0.00000  Uiso   1.00
O238   O     0.18591   0.49999   0.32681   0.00000  Uiso   1.00
O239   O     0.12843   0.43893   0.24999   0.00000  Uiso   1.00
O240   O     0.20488   0.43892   0.24999   0.00000  Uiso   1.00
O241   O     0.14742   0.50001   0.17319   0.00000  Uiso   1.00
O242   O     0.22387   0.50000   0.17319   0.00000  Uiso   1.00
Zn243  Zn    0.11562   0.50001   0.25000   0.00000  Uiso   1.00
Zn244  Zn    0.21771   0.49999   0.25000   0.00000  Uiso   1.00
Br245  Br    0.22921   0.37716   0.31731   0.00000  Uiso   1.00
Br246  Br    0.30300   0.43295   0.17458   0.00000  Uiso   1.00
C247   C     0.06519   0.43413   0.19761   0.00000  Uiso   1.00
H248   H     0.10201   0.43919   0.17278   0.00000  Uiso   1.00
O249   O     0.05099   0.39849   0.20426   0.00000  Uiso   1.00
C250   C     0.02644   0.56388   0.30720   0.00000  Uiso   1.00
H251   H     0.05643   0.56021   0.32043   0.00000  Uiso   1.00
O252   O     0.00232   0.59611   0.31883   0.00000  Uiso   1.00
Br253  Br    0.29327   0.43520   0.37979   0.00000  Uiso   1.00
Br254  Br    0.30656   0.40849   0.48985   0.00000  Uiso   1.00
C255   C     0.04248   0.52997   0.41993   0.00000  Uiso   1.00
H256   H     0.02905   0.50794   0.39806   0.00000  Uiso   1.00
O257   O     0.02867   0.56633   0.42350   0.00000  Uiso   1.00
C258   C     0.08134   0.50371   0.08612   0.00000  Uiso   1.00
H259   H     0.08933   0.47521   0.10342   0.00000  Uiso   1.00
O260   O     0.06170   0.53299   0.11560   0.00000  Uiso   1.00
C261   C     0.01381   0.53233   0.03517   0.00000  Uiso   1.00
H262   H     0.32840   0.55626   0.02082   0.00000  Uiso   1.00
O263   O     0.32545   0.51610   0.07840   0.00000  Uiso   1.00
Br264  Br    0.19692   0.61387   0.34526   0.00000  Uiso   1.00
C265   C     0.49899   0.57975   0.25140   0.00000  Uiso   1.00
C266   C     0.47854   0.49391   0.49405   0.00000  Uiso   1.00
C267   C     0.48782   0.48385   0.43949   0.00000  Uiso   1.00
C268   C     0.51679   0.48817   0.01452   0.00000  Uiso   1.00
C269   C     0.55855   0.46348   0.48600   0.00000  Uiso   1.00
C270   C     0.56568   0.45203   0.43253   0.00000  Uiso   1.00
C271   C     0.52973   0.46025   0.41171   0.00000  Uiso   1.00
C272   C     0.51549   0.50804   0.06190   0.00000  Uiso   1.00
C273   C     0.58129   0.46513   0.06569   0.00000  Uiso   1.00
C274   C     0.45589   0.49815   0.41333   0.00000  Uiso   1.00
C275   C     0.51626   0.64373   0.28845   0.00000  Uiso   1.00
C276   C     0.47310   0.49915   0.35276   0.00000  Uiso   1.00
C277   C     0.52258   0.35289   0.28311   0.00000  Uiso   1.00
C278   C     0.50230   0.37537   0.25016   0.00000  Uiso   1.00
C279   C     0.48136   0.35490   0.21800   0.00000  Uiso   1.00
C280   C     0.47935   0.64558   0.21936   0.00000  Uiso   1.00
C281   C     0.49698   0.62369   0.25425   0.00000  Uiso   1.00
C282   C     0.65218   0.47049   0.22179   0.00000  Uiso   1.00
C283   C     0.36606   0.46928   0.22370   0.00000  Uiso   1.00
C284   C     0.34749   0.53038   0.27690   0.00000  Uiso   1.00
C285   C     0.63304   0.52962   0.27735   0.00000  Uiso   1.00
C286   C     0.50070   0.41991   0.25008   0.00000  Uiso   1.00
C287   C     0.52684   0.50005   0.14801   0.00000  Uiso   1.00
C288   C     0.59035   0.45115   0.01324   0.00000  Uiso   1.00
C289   C     0.54408   0.49360   0.08991   0.00000  Uiso   1.00
C290   C     0.41067   0.51600   0.44514   0.00000  Uiso   1.00
C291   C     0.39729   0.51873   0.00194   0.00000  Uiso   1.00
C292   C     0.43106   0.50739   0.02651   0.00000  Uiso   1.00
H293   H     0.60199   0.45211   0.08851   0.00000  Uiso   1.00
H294   H     0.46845   0.37178   0.19023   0.00000  Uiso   1.00
H295   H     0.46493   0.62961   0.19263   0.00000  Uiso   1.00
H296   H     0.60691   0.55287   0.29966   0.00000  Uiso   1.00
H297   H     0.49040   0.53338   0.07950   0.00000  Uiso   1.00
H298   H     0.53555   0.44762   0.37263   0.00000  Uiso   1.00
N299   N     0.38093   0.50001   0.25001   0.00000  Uiso   1.00
N300   N     0.61906   0.49998   0.25000   0.00000  Uiso   1.00
O301   O     0.46179   0.56108   0.25000   0.00000  Uiso   1.00
O302   O     0.53823   0.56107   0.25000   0.00000  Uiso   1.00
O303   O     0.44280   0.50000   0.32681   0.00000  Uiso   1.00
O304   O     0.51924   0.49999   0.32681   0.00000  Uiso   1.00
O305   O     0.46177   0.43893   0.24999   0.00000  Uiso   1.00
O306   O     0.53821   0.43892   0.24999   0.00000  Uiso   1.00
O307   O     0.48076   0.50001   0.17319   0.00000  Uiso   1.00
O308   O     0.55720   0.50000   0.17319   0.00000  Uiso   1.00
Zn309  Zn    0.44896   0.50001   0.25000   0.00000  Uiso   1.00
Zn310  Zn    0.55104   0.49999   0.25000   0.00000  Uiso   1.00
Br311  Br    0.56254   0.37716   0.31731   0.00000  Uiso   1.00
Br312  Br    0.63633   0.43295   0.17458   0.00000  Uiso   1.00
C313   C     0.39852   0.43413   0.19761   0.00000  Uiso   1.00
H314   H     0.43534   0.43919   0.17278   0.00000  Uiso   1.00
O315   O     0.38432   0.39849   0.20426   0.00000  Uiso   1.00
C316   C     0.35977   0.56388   0.30720   0.00000  Uiso   1.00
H317   H     0.38976   0.56021   0.32043   0.00000  Uiso   1.00
O318   O     0.33565   0.59611   0.31883   0.00000  Uiso   1.00
Br319  Br    0.62660   0.43520   0.37979   0.00000  Uiso   1.00
Br320  Br    0.63989   0.40849   0.48985   0.00000  Uiso   1.00
C321   C     0.37581   0.52997   0.41993   0.00000  Uiso   1.00
H322   H     0.36238   0.50794   0.39806   0.00000  Uiso   1.00
O323   O     0.36200   0.56633   0.42350   0.00000  Uiso   1.00
C324   C     0.41467   0.50371   0.08612   0.00000  Uiso   1.00
H325   H     0.42266   0.47521   0.10342   0.00000  Uiso   1.00
O326   O     0.39503   0.53299   0.11560   0.00000  Uiso   1.00
C327   C     0.34714   0.53233   0.03517   0.00000  Uiso   1.00
H328   H     0.66173   0.55626   0.02082   0.00000  Uiso   1.00
O329   O     0.65879   0.51610   0.07840   0.00000  Uiso   1.00
Br330  Br    0.53025   0.61387   0.34526   0.00000  Uiso   1.00
C331   C     0.83232   0.57975   0.25140   0.00000  Uiso   1.00
C332   C     0.81187   0.49391   0.49405   0.00000  Uiso   1.00
C333   C     0.82115   0.48385   0.43949   0.00000  Uiso   1.00
C334   C     0.85012   0.48817   0.01452   0.00000  Uiso   1.00
C335   C     0.89188   0.46348   0.48600   0.00000  Uiso   1.00
C336   C     0.89901   0.45203   0.43253   0.00000  Uiso   1.00
C337   C     0.86306   0.46025   0.41171   0.00000  Uiso   1.00
C338   C     0.84883   0.50804   0.06190   0.00000  Uiso   1.00
C339   C     0.91463   0.46513   0.06569   0.00000  Uiso   1.00
C340   C     0.78922   0.49815   0.41333   0.00000  Uiso   1.00
C341   C     0.84959   0.64373   0.28845   0.00000  Uiso   1.00
C342   C     0.80643   0.49915   0.35276   0.00000  Uiso   1.00
C343   C     0.85591   0.35289   0.28311   0.00000  Uiso   1.00
C344   C     0.83563   0.37537   0.25016   0.00000  Uiso   1.00
C345   C     0.81469   0.35490   0.21800   0.00000  Uiso   1.00
C346   C     0.81268   0.64558   0.21936   0.00000  Uiso   1.00
C347   C     0.83032   0.62369   0.25425   0.00000  Uiso   1.00
C348   C     0.98552   0.47049   0.22179   0.00000  Uiso   1.00
C349   C     0.69939   0.46928   0.22370   0.00000  Uiso   1.00
C350   C     0.68082   0.53038   0.27690   0.00000  Uiso   1.00
C351   C     0.96637   0.52962   0.27735   0.00000  Uiso   1.00
C352   C     0.83403   0.41991   0.25008   0.00000  Uiso   1.00
C353   C     0.86017   0.50005   0.14801   0.00000  Uiso   1.00
C354   C     0.92369   0.45115   0.01324   0.00000  Uiso   1.00
C355   C     0.87742   0.49360   0.08991   0.00000  Uiso   1.00
C356   C     0.74400   0.51600   0.44514   0.00000  Uiso   1.00
C357   C     0.73062   0.51873   0.00194   0.00000  Uiso   1.00
C358   C     0.76440   0.50739   0.02651   0.00000  Uiso   1.00
H359   H     0.93532   0.45211   0.08851   0.00000  Uiso   1.00
H360   H     0.80179   0.37178   0.19023   0.00000  Uiso   1.00
H361   H     0.79826   0.62961   0.19263   0.00000  Uiso   1.00
H362   H     0.94024   0.55287   0.29966   0.00000  Uiso   1.00
H363   H     0.82374   0.53338   0.07950   0.00000  Uiso   1.00
H364   H     0.86888   0.44762   0.37263   0.00000  Uiso   1.00
N365   N     0.71426   0.50001   0.25001   0.00000  Uiso   1.00
N366   N     0.95239   0.49998   0.25000   0.00000  Uiso   1.00
O367   O     0.79512   0.56108   0.25000   0.00000  Uiso   1.00
O368   O     0.87157   0.56107   0.25000   0.00000  Uiso   1.00
O369   O     0.77613   0.50000   0.32681   0.00000  Uiso   1.00
O370   O     0.85258   0.49999   0.32681   0.00000  Uiso   1.00
O371   O     0.79510   0.43893   0.24999   0.00000  Uiso   1.00
O372   O     0.87154   0.43892   0.24999   0.00000  Uiso   1.00
O373   O     0.81409   0.50001   0.17319   0.00000  Uiso   1.00
O374   O     0.89053   0.50000   0.17319   0.00000  Uiso   1.00
Zn375  Zn    0.78229   0.50001   0.25000   0.00000  Uiso   1.00
Zn376  Zn    0.88438   0.49999   0.25000   0.00000  Uiso   1.00
Br377  Br    0.89588   0.37716   0.31731   0.00000  Uiso   1.00
Br378  Br    0.96966   0.43295   0.17458   0.00000  Uiso   1.00
C379   C     0.73186   0.43413   0.19761   0.00000  Uiso   1.00
H380   H     0.76868   0.43919   0.17278   0.00000  Uiso   1.00
O381   O     0.71766   0.39849   0.20426   0.00000  Uiso   1.00
C382   C     0.69311   0.56388   0.30720   0.00000  Uiso   1.00
H383   H     0.72309   0.56021   0.32043   0.00000  Uiso   1.00
O384   O     0.66898   0.59611   0.31883   0.00000  Uiso   1.00
Br385  Br    0.95993   0.43520   0.37979   0.00000  Uiso   1.00
Br386  Br    0.97322   0.40849   0.48985   0.00000  Uiso   1.00
C387   C     0.70915   0.52997   0.41993   0.00000  Uiso   1.00
H388   H     0.69571   0.50794   0.39806   0.00000  Uiso   1.00
O389   O     0.69533   0.56633   0.42350   0.00000  Uiso   1.00
C390   C     0.74801   0.50371   0.08612   0.00000  Uiso   1.00
H391   H     0.75599   0.47521   0.10342   0.00000  Uiso   1.00
O392   O     0.72836   0.53299   0.11560   0.00000  Uiso   1.00
C393   C     0.68048   0.53233   0.03517   0.00000  Uiso   1.00
H394   H     0.99507   0.55626   0.02082   0.00000  Uiso   1.00
O395   O     0.99212   0.51610   0.07840   0.00000  Uiso   1.00
Br396  Br    0.86359   0.61387   0.34526   0.00000  Uiso   1.00
C397   C     0.16566   0.91309   0.25140   0.00000  Uiso   1.00
C398   C     0.14520   0.82725   0.49405   0.00000  Uiso   1.00
C399   C     0.15449   0.81718   0.43949   0.00000  Uiso   1.00
C400   C     0.18345   0.82150   0.01452   0.00000  Uiso   1.00
C401   C     0.22521   0.79681   0.48600   0.00000  Uiso   1.00
C402   C     0.23234   0.78536   0.43253   0.00000  Uiso   1.00
C403   C     0.19639   0.79359   0.41171   0.00000  Uiso   1.00
C404   C     0.18216   0.84137   0.06190   0.00000  Uiso   1.00
C405   C     0.24796   0.79847   0.06569   0.00000  Uiso   1.00
C406   C     0.12256   0.83148   0.41333   0.00000  Uiso   1.00
C407   C     0.18293   0.97707   0.28845   0.00000  Uiso   1.00
C408   C     0.13977   0.83248   0.35276   0.00000  Uiso   1.00
C409   C     0.18924   0.68622   0.28311   0.00000  Uiso   1.00
C410   C     0.16897   0.70870   0.25016   0.00000  Uiso   1.00
C411   C     0.14803   0.68823   0.21800   0.00000  Uiso   1.00
C412   C     0.14602   0.97891   0.21936   0.00000  Uiso   1.00
C413   C     0.16365   0.95703   0.25425   0.00000  Uiso   1.00
C414   C     0.31885   0.80382   0.22179   0.00000  Uiso   1.00
C415   C     0.03273   0.80262   0.22370   0.00000  Uiso   1.00
C416   C     0.01415   0.86371   0.27690   0.00000  Uiso   1.00
C417   C     0.29971   0.86295   0.27735   0.00000  Uiso   1.00
C418   C     0.16736   0.75324   0.25008   0.00000  Uiso   1.00
C419   C     0.19350   0.83338   0.14801   0.00000  Uiso   1.00
C420   C     0.25702   0.78449   0.01324   0.00000  Uiso   1.00
C421   C     0.21075   0.82694   0.08991   0.00000  Uiso   1.00
C422   C     0.07733   0.84933   0.44514   0.00000  Uiso   1.00
C423   C     0.06396   0.85206   0.00194   0.00000  Uiso   1.00
C424   C     0.09773   0.84072   0.02651   0.00000  Uiso   1.00
H425   H     0.26866   0.78545   0.08851   0.00000  Uiso   1.00
H426   H     0.13512   0.70512   0.19023   0.00000  Uiso   1.00
H427   H     0.13160   0.96295   0.19263   0.00000  Uiso   1.00
H428   H     0.27357   0.88620   0.29966   0.00000  Uiso   1.00
H429   H     0.15707   0.86672   0.07950   0.00000  Uiso   1.00
H430   H     0.20221   0.78095   0.37263   0.00000  Uiso   1.00
N431   N     0.04760   0.83334   0.25001   0.00000  Uiso   1.00
N432   N     0.28573   0.83331   0.25000   0.00000  Uiso   1.00
O433   O     0.12846   0.89442   0.25000   0.00000  Uiso   1.00
O434   O     0.20490   0.89441   0.25000   0.00000  Uiso   1.00
O435   O     0.10947   0.83333   0.32681   0.00000  Uiso   1.00
O436   O     0.18591   0.83332   0.32681   0.00000  Uiso   1.00
O437   O     0.12843   0.77226   0.24999   0.00000  Uiso   1.00
O438   O     0.20488   0.77225   0.24999   0.00000  Uiso   1.00
O439   O     0.14742   0.83335   0.17319   0.00000  Uiso   1.00
O440   O     0.22387   0.83334   0.17319   0.00000  Uiso   1.00
Zn441  Zn    0.11562   0.83334   0.25000   0.00000  Uiso   1.00
Zn442  Zn    0.21771   0.83333   0.25000   0.00000  Uiso   1.00
Br443  Br    0.22921   0.71049   0.31731   0.00000  Uiso   1.00
Br444  Br    0.30300   0.76629   0.17458   0.00000  Uiso   1.00
C445   C     0.06519   0.76747   0.19761   0.00000  Uiso   1.00
H446   H     0.10201   0.77252   0.17278   0.00000  Uiso   1.00
O447   O     0.05099   0.73183   0.20426   0.00000  Uiso   1.00
C448   C     0.02644   0.89722   0.30720   0.00000  Uiso   1.00
H449   H     0.05643   0.89354   0.32043   0.00000  Uiso   1.00
O450   O     0.00232   0.92944   0.31883   0.00000  Uiso   1.00
Br451  Br    0.29327   0.76853   0.37979   0.00000  Uiso   1.00
Br452  Br    0.30656   0.74182   0.48985   0.00000  Uiso   1.00
C453   C     0.04248   0.86331   0.41993   0.00000  Uiso   1.00
H454   H     0.02905   0.84128   0.39806   0.00000  Uiso   1.00
O455   O     0.02867   0.89966   0.42350   0.00000  Uiso   1.00
C456   C     0.08134   0.83704   0.08612   0.00000  Uiso   1.00
H457   H     0.08933   0.80855   0.10342   0.00000  Uiso   1.00
O458   O     0.06170   0.86632   0.11560   0.00000  Uiso   1.00
C459   C     0.01381   0.86566   0.03517   0.00000  Uiso   1.00
H460   H     0.32840   0.88959   0.02082   0.00000  Uiso   1.00
O461   O     0.32545   0.84943   0.07840   0.00000  Uiso   1.00
Br462  Br    0.19692   0.94721   0.34526   0.00000  Uiso   1.00
C463   C     0.49899   0.91309   0.25140   0.00000  Uiso   1.00
C464   C     0.47854   0.82725   0.49405   0.00000  Uiso   1.00
C465   C     0.48782   0.81718   0.43949   0.00000  Uiso   1.00
C466   C     0.51679   0.82150   0.01452   0.00000  Uiso   1.00
C467   C     0.55855   0.79681   0.48600   0.00000  Uiso   1.00
C468   C     0.56568   0.78536   0.43253   0.00000  Uiso   1.00
C469   C     0.52973   0.79359   0.41171   0.00000  Uiso   1.00
C470   C     0.51549   0.84137   0.06190   0.00000  Uiso   1.00
C471   C     0.58129   0.79847   0.06569   0.00000  Uiso   1.00
C472   C     0.45589   0.83148   0.41333   0.00000  Uiso   1.00
C473   C     0.51626   0.97707   0.28845   0.00000  Uiso   1.00
C474   C     0.47310   0.83248   0.35276   0.00000  Uiso   1.00
C475   C     0.52258   0.68622   0.28311   0.00000  Uiso   1.00
C476   C     0.50230   0.70870   0.25016   0.00000  Uiso   1.00
C477   C     0.48136   0.68823   0.21800   0.00000  Uiso   1.00
C478   C     0.47935   0.97891   0.21936   0.00000  Uiso   1.00
C479   C     0.49698   0.95703   0.25425   0.00000  Uiso   1.00
C480   C     0.65218   0.80382   0.22179   0.00000  Uiso   1.00
C481   C     0.36606   0.80262   0.22370   0.00000  Uiso   1.00
C482   C     0.34749   0.86371   0.27690   0.00000  Uiso   1.00
C483   C     0.63304   0.86295   0.27735   0.00000  Uiso   1.00
C484   C     0.50070   0.75324   0.25008   0.00000  Uiso   1.00
C485   C     0.52684   0.83338   0.14801   0.00000  Uiso   1.00
C486   C     0.59035   0.78449   0.01324   0.00000  Uiso   1.00
C487   C     0.54408   0.82694   0.08991   0.00000  Uiso   1.00
C488   C     0.41067   0.84933   0.44514   0.00000  Uiso   1.00
C489   C     0.39729   0.85206   0.00194   0.00000  Uiso   1.00
C490   C     0.43106   0.84072   0.02651   0.00000  Uiso   1.00
H491   H     0.60199   0.78545   0.08851   0.00000  Uiso   1.00
H492   H     0.46845   0.70512   0.19023   0.00000  Uiso   1.00
H493   H     0.46493   0.96295   0.19263   0.00000  Uiso   1.00
H494   H     0.60691   0.88620   0.29966   0.00000  Uiso   1.00
H495   H     0.49040   0.86672   0.07950   0.00000  Uiso   1.00
H496   H     0.53555   0.78095   0.37263   0.00000  Uiso   1.00
N497   N     0.38093   0.83334   0.25001   0.00000  Uiso   1.00
N498   N     0.61906   0.83331   0.25000   0.00000  Uiso   1.00
O499   O     0.46179   0.89442   0.25000   0.00000  Uiso   1.00
O500   O     0.53823   0.89441   0.25000   0.00000  Uiso   1.00
O501   O     0.44280   0.83333   0.32681   0.00000  Uiso   1.00
O502   O     0.51924   0.83332   0.32681   0.00000  Uiso   1.00
O503   O     0.46177   0.77226   0.24999   0.00000  Uiso   1.00
O504   O     0.53821   0.77225   0.24999   0.00000  Uiso   1.00
O505   O     0.48076   0.83335   0.17319   0.00000  Uiso   1.00
O506   O     0.55720   0.83334   0.17319   0.00000  Uiso   1.00
Zn507  Zn    0.44896   0.83334   0.25000   0.00000  Uiso   1.00
Zn508  Zn    0.55104   0.83333   0.25000   0.00000  Uiso   1.00
Br509  Br    0.56254   0.71049   0.31731   0.00000  Uiso   1.00
Br510  Br    0.63633   0.76629   0.17458   0.00000  Uiso   1.00
C511   C     0.39852   0.76747   0.19761   0.00000  Uiso   1.00
H512   H     0.43534   0.77252   0.17278   0.00000  Uiso   1.00
O513   O     0.38432   0.73183   0.20426   0.00000  Uiso   1.00
C514   C     0.35977   0.89722   0.30720   0.00000  Uiso   1.00
H515   H     0.38976   0.89354   0.32043   0.00000  Uiso   1.00
O516   O     0.33565   0.92944   0.31883   0.00000  Uiso   1.00
Br517  Br    0.62660   0.76853   0.37979   0.00000  Uiso   1.00
Br518  Br    0.63989   0.74182   0.48985   0.00000  Uiso   1.00
C519   C     0.37581   0.86331   0.41993   0.00000  Uiso   1.00
H520   H     0.36238   0.84128   0.39806   0.00000  Uiso   1.00
O521   O     0.36200   0.89966   0.42350   0.00000  Uiso   1.00
C522   C     0.41467   0.83704   0.08612   0.00000  Uiso   1.00
H523   H     0.42266   0.80855   0.10342   0.00000  Uiso   1.00
O524   O     0.39503   0.86632   0.11560   0.00000  Uiso   1.00
C525   C     0.34714   0.86566   0.03517   0.00000  Uiso   1.00
H526   H     0.66173   0.88959   0.02082   0.00000  Uiso   1.00
O527   O     0.65879   0.84943   0.07840   0.00000  Uiso   1.00
Br528  Br    0.53025   0.94721   0.34526   0.00000  Uiso   1.00
C529   C     0.83232   0.91309   0.25140   0.00000  Uiso   1.00
C530   C     0.81187   0.82725   0.49405   0.00000  Uiso   1.00
C531   C     0.82115   0.81718   0.43949   0.00000  Uiso   1.00
C532   C     0.85012   0.82150   0.01452   0.00000  Uiso   1.00
C533   C     0.89188   0.79681   0.48600   0.00000  Uiso   1.00
C534   C     0.89901   0.78536   0.43253   0.00000  Uiso   1.00
C535   C     0.86306   0.79359   0.41171   0.00000  Uiso   1.00
C536   C     0.84883   0.84137   0.06190   0.00000  Uiso   1.00
C537   C     0.91463   0.79847   0.06569   0.00000  Uiso   1.00
C538   C     0.78922   0.83148   0.41333   0.00000  Uiso   1.00
C539   C     0.84959   0.97707   0.28845   0.00000  Uiso   1.00
C540   C     0.80643   0.83248   0.35276   0.00000  Uiso   1.00
C541   C     0.85591   0.68622   0.28311   0.00000  Uiso   1.00
C542   C     0.83563   0.70870   0.25016   0.00000  Uiso   1.00
C543   C     0.81469   0.68823   0.21800   0.00000  Uiso   1.00
C544   C     0.81268   0.97891   0.21936   0.00000  Uiso   1.00
C545   C     0.83032   0.95703   0.25425   0.00000  Uiso   1.00
C546   C     0.98552   0.80382   0.22179   0.00000  Uiso   1.00
C547   C     0.69939   0.80262   0.22370   0.00000  Uiso   1.00
C548   C     0.68082   0.86371   0.27690   0.00000  Uiso   1.00
C549   C     0.96637   0.86295   0.27735   0.00000  Uiso   1.00
C550   C     0.83403   0.75324   0.25008   0.00000  Uiso   1.00
C551   C     0.86017   0.83338   0.14801   0.00000  Uiso   1.00
C552   C     0.92369   0.78449   0.01324   0.00000  Uiso   1.00
C553   C     0.87742   0.82694   0.08991   0.00000  Uiso   1.00
C554   C     0.74400   0.84933   0.44514   0.00000  Uiso   1.00
C555   C     0.73062   0.85206   0.00194   0.00000  Uiso   1.00
C556   C     0.76440   0.84072   0.02651   0.00000  Uiso   1.00
H557   H     0.93532   0.78545   0.08851   0.00000  Uiso   1.00
H558   H     0.80179   0.70512   0.19023   0.00000  Uiso   1.00
H559   H     0.79826   0.96295   0.19263   0.00000  Uiso   1.00
H560   H     0.94024   0.88620   0.29966   0.00000  Uiso   1.00
H561   H     0.82374   0.86672   0.07950   0.00000  Uiso   1.00
H562   H     0.86888   0.78095   0.37263   0.00000  Uiso   1.00
N563   N     0.71426   0.83334   0.25001   0.00000  Uiso   1.00
N564   N     0.95239   0.83331   0.25000   0.00000  Uiso   1.00
O565   O     0.79512   0.89442   0.25000   0.00000  Uiso   1.00
O566   O     0.87157   0.89441   0.25000   0.00000  Uiso   1.00
O567   O     0.77613   0.83333   0.32681   0.00000  Uiso   1.00
O568   O     0.85258   0.83332   0.32681   0.00000  Uiso   1.00
O569   O     0.79510   0.77226   0.24999   0.00000  Uiso   1.00
O570   O     0.87154   0.77225   0.24999   0.00000  Uiso   1.00
O571   O     0.81409   0.83335   0.17319   0.00000  Uiso   1.00
O572   O     0.89053   0.83334   0.17319   0.00000  Uiso   1.00
Zn573  Zn    0.78229   0.83334   0.25000   0.00000  Uiso   1.00
Zn574  Zn    0.88438   0.83333   0.25000   0.00000  Uiso   1.00
Br575  Br    0.89588   0.71049   0.31731   0.00000  Uiso   1.00
Br576  Br    0.96966   0.76629   0.17458   0.00000  Uiso   1.00
C577   C     0.73186   0.76747   0.19761   0.00000  Uiso   1.00
H578   H     0.76868   0.77252   0.17278   0.00000  Uiso   1.00
O579   O     0.71766   0.73183   0.20426   0.00000  Uiso   1.00
C580   C     0.69311   0.89722   0.30720   0.00000  Uiso   1.00
H581   H     0.72309   0.89354   0.32043   0.00000  Uiso   1.00
O582   O     0.66898   0.92944   0.31883   0.00000  Uiso   1.00
Br583  Br    0.95993   0.76853   0.37979   0.00000  Uiso   1.00
Br584  Br    0.97322   0.74182   0.48985   0.00000  Uiso   1.00
C585   C     0.70915   0.86331   0.41993   0.00000  Uiso   1.00
H586   H     0.69571   0.84128   0.39806   0.00000  Uiso   1.00
O587   O     0.69533   0.89966   0.42350   0.00000  Uiso   1.00
C588   C     0.74801   0.83704   0.08612   0.00000  Uiso   1.00
H589   H     0.75599   0.80855   0.10342   0.00000  Uiso   1.00
O590   O     0.72836   0.86632   0.11560   0.00000  Uiso   1.00
C591   C     0.68048   0.86566   0.03517   0.00000  Uiso   1.00
H592   H     0.99507   0.88959   0.02082   0.00000  Uiso   1.00
O593   O     0.99212   0.84943   0.07840   0.00000  Uiso   1.00
Br594  Br    0.86359   0.94721   0.34526   0.00000  Uiso   1.00
C595   C     0.16566   0.24642   0.75140   0.00000  Uiso   1.00
C596   C     0.14520   0.16058   0.99405   0.00000  Uiso   1.00
C597   C     0.15449   0.15051   0.93949   0.00000  Uiso   1.00
C598   C     0.18345   0.15483   0.51452   0.00000  Uiso   1.00
C599   C     0.22521   0.13015   0.98600   0.00000  Uiso   1.00
C600   C     0.23234   0.11869   0.93253   0.00000  Uiso   1.00
C601   C     0.19639   0.12692   0.91171   0.00000  Uiso   1.00
C602   C     0.18216   0.17470   0.56190   0.00000  Uiso   1.00
C603   C     0.24796   0.13180   0.56569   0.00000  Uiso   1.00
C604   C     0.12256   0.16482   0.91333   0.00000  Uiso   1.00
C605   C     0.18293   0.31040   0.78845   0.00000  Uiso   1.00
C606   C     0.13977   0.16581   0.85276   0.00000  Uiso   1.00
C607   C     0.18924   0.01956   0.78311   0.00000  Uiso   1.00
C608   C     0.16897   0.04203   0.75016   0.00000  Uiso   1.00
C609   C     0.14803   0.02157   0.71800   0.00000  Uiso   1.00
C610   C     0.14602   0.31224   0.71936   0.00000  Uiso   1.00
C611   C     0.16365   0.29036   0.75425   0.00000  Uiso   1.00
C612   C     0.31885   0.13715   0.72179   0.00000  Uiso   1.00
C613   C     0.03273   0.13595   0.72370   0.00000  Uiso   1.00
C614   C     0.01415   0.19705   0.77690   0.00000  Uiso   1.00
C615   C     0.29971   0.19629   0.77735   0.00000  Uiso   1.00
C616   C     0.16736   0.08658   0.75008   0.00000  Uiso   1.00
C617   C     0.19350   0.16671   0.64801   0.00000  Uiso   1.00
C618   C     0.25702   0.11782   0.51324   0.00000  Uiso   1.00
C619   C     0.21075   0.16027   0.58991   0.00000  Uiso   1.00
C620   C     0.07733   0.18266   0.94514   0.00000  Uiso   1.00
C621   C     0.06396   0.18539   0.50194   0.00000  Uiso   1.00
C622   C     0.09773   0.17405   0.52651   0.00000  Uiso   1.00
H623   H     0.26866   0.11878   0.58851   0.00000  Uiso   1.00
H624   H     0.13512   0.03845   0.69023   0.00000  Uiso   1.00
H625   H     0.13160   0.29628   0.69263   0.00000  Uiso   1.00
H626   H     0.27357   0.21954   0.79966   0.00000  Uiso   1.00
H627   H     0.15707   0.20005   0.57950   0.00000  Uiso   1.00
H628   H     0.20221   0.11428   0.87263   0.00000  Uiso   1.00
N629   N     0.04760   0.16668   0.75001   0.00000  Uiso   1.00
N630   N     0.28573   0.16665   0.75000   0.00000  Uiso   1.00
O631   O     0.12846   0.22775   0.75000   0.00000  Uiso   1.00
O632   O     0.20490   0.22774   0.75000   0.00000  Uiso   1.00
O633   O     0.10947   0.16666   0.82681   0.00000  Uiso   1.00
O634   O     0.18591   0.16665   0.82681   0.00000  Uiso   1.00
O635   O     0.12843   0.10559   0.74999   0.00000  Uiso   1.00
O636   O     0.20488   0.10558   0.74999   0.00000  Uiso   1.00
O637   O     0.14742   0.16668   0.67319   0.00000  Uiso   1.00
O638   O     0.22387   0.16667   0.67319   0.00000  Uiso   1.00
Zn639  Zn    0.11562   0.16667   0.75000   0.00000  Uiso   1.00
Zn640  Zn    0.21771   0.16666   0.75000   0.00000  Uiso   1.00
Br641  Br    0.22921   0.04383   0.81731   0.00000  Uiso   1.00
Br642  Br    0.30300   0.09962   0.67458   0.00000  Uiso   1.00
C643   C     0.06519   0.10080   0.69761   0.00000  Uiso   1.00
H644   H     0.10201   0.10585   0.67278   0.00000  Uiso   1.00
O645   O     0.05099   0.06516   0.70426   0.00000  Uiso   1.00
C646   C     0.02644   0.23055   0.80720   0.00000  Uiso   1.00
H647   H     0.05643   0.22687   0.82043   0.00000  Uiso   1.00
O648   O     0.00232   0.26277   0.81883   0.00000  Uiso   1.00
Br649  Br    0.29327   0.10186   0.87979   0.00000  Uiso   1.00
Br650  Br    0.30656   0.07515   0.98985   0.00000  Uiso   1.00
C651   C     0.04248   0.19664   0.91993   0.00000  Uiso   1.00
H652   H     0.02905   0.17461   0.89806   0.00000  Uiso   1.00
O653   O     0.02867   0.23299   0.92350   0.00000  Uiso   1.00
C654   C     0.08134   0.17037   0.58612   0.00000  Uiso   1.00
H655   H     0.08933   0.14188   0.60342   0.00000  Uiso   1.00
O656   O     0.06170   0.19965   0.61560   0.00000  Uiso   1.00
C657   C     0.01381   0.19900   0.53517   0.00000  Uiso   1.00
H658   H     0.32840   0.22293   0.52082   0.00000  Uiso   1.00
O659   O     0.32545   0.18276   0.57840   0.00000  Uiso   1.00
Br660  Br    0.19692   0.28054   0.84526   0.00000  Uiso   1.00
C661   C     0.49899   0.24642   0.75140   0.00000  Uiso   1.00
C662   C     0.47854   0.16058   0.99405   0.00000  Uiso   1.00
C663   C     0.48782   0.15051   0.93949   0.00000  Uiso   1.00
C664   C     0.51679   0.15483   0.51452   0.00000  Uiso   1.00
C665   C     0.55855   0.13015   0.98600   0.00000  Uiso   1.00
C666   C     0.56568   0.11869   0.93253   0.00000  Uiso   1.00
C667   C     0.52973   0.12692   0.91171   0.00000  Uiso   1.00
C668   C     0.51549   0.17470   0.56190   0.00000  Uiso   1.00
C669   C     0.58129   0.13180   0.56569   0.00000  Uiso   1.00
C670   C     0.45589   0.16482   0.91333   0.00000  Uiso   1.00
C671   C     0.51626   0.31040   0.78845   0.00000  Uiso   1.00
C672   C     0.47310   0.16581   0.85276   0.00000  Uiso   1.00
C673   C     0.52258   0.01956   0.78311   0.00000  Uiso   1.00
C674   C     0.50230   0.04203   0.75016   0.00000  Uiso   1.00
C675   C     0.48136   0.02157   0.71800   0.00000  Uiso   1.00
C676   C     0.47935   0.31224   0.71936   0.00000  Uiso   1.00
C677   C     0.49698   0.29036   0.75425   0.00000  Uiso   1.00
C678   C     0.65218   0.13715   0.72179   0.00000  Uiso   1.00
C679   C     0.36606   0.13595   0.72370   0.00000  Uiso   1.00
C680   C     0.34749   0.19705   0.77690   0.00000  Uiso   1.00
C681   C     0.63304   0.19629   0.77735   0.00000  Uiso   1.00
C682   C     0.50070   0.08658   0.75008   0.00000  Uiso   1.00
C683   C     0.52684   0.16671   0.64801   0.00000  Uiso   1.00
C684   C     0.59035   0.11782   0.51324   0.00000  Uiso   1.00
C685   C     0.54408   0.16027   0.58991   0.00000  Uiso   1.00
C686   C     0.41067   0.18266   0.94514   0.00000  Uiso   1.00
C687   C     0.39729   0.18539   0.50194   0.00000  Uiso   1.00
C688   C     0.43106   0.17405   0.52651   0.00000  Uiso   1.00
H689   H     0.60199   0.11878   0.58851   0.00000  Uiso   1.00
H690   H     0.46845   0.03845   0.69023   0.00000  Uiso   1.00
H691   H     0.46493   0.29628   0.69263   0.00000  Uiso   1.00
H692   H     0.60691   0.21954   0.79966   0.00000  Uiso   1.00
H693   H     0.49040   0.20005   0.57950   0.00000  Uiso   1.00
H694   H     0.53555   0.11428   0.87263   0.00000  Uiso   1.00
N695   N     0.38093   0.16668   0.75001   0.00000  Uiso   1.00
N696   N     0.61906   0.16665   0.75000   0.00000  Uiso   1.00
O697   O     0.46179   0.22775   0.75000   0.00000  Uiso   1.00
O698   O     0.53823   0.22774   0.75000   0.00000  Uiso   1.00
O699   O     0.44280   0.16666   0.82681   0.00000  Uiso   1.00
O700   O     0.51924   0.16665   0.82681   0.00000  Uiso   1.00
O701   O     0.46177   0.10559   0.74999   0.00000  Uiso   1.00
O702   O     0.53821   0.10558   0.74999   0.00000  Uiso   1.00
O703   O     0.48076   0.16668   0.67319   0.00000  Uiso   1.00
O704   O     0.55720   0.16667   0.67319   0.00000  Uiso   1.00
Zn705  Zn    0.44896   0.16667   0.75000   0.00000  Uiso   1.00
Zn706  Zn    0.55104   0.16666   0.75000   0.00000  Uiso   1.00
Br707  Br    0.56254   0.04383   0.81731   0.00000  Uiso   1.00
Br708  Br    0.63633   0.09962   0.67458   0.00000  Uiso   1.00
C709   C     0.39852   0.10080   0.69761   0.00000  Uiso   1.00
H710   H     0.43534   0.10585   0.67278   0.00000  Uiso   1.00
O711   O     0.38432   0.06516   0.70426   0.00000  Uiso   1.00
C712   C     0.35977   0.23055   0.80720   0.00000  Uiso   1.00
H713   H     0.38976   0.22687   0.82043   0.00000  Uiso   1.00
O714   O     0.33565   0.26277   0.81883   0.00000  Uiso   1.00
Br715  Br    0.62660   0.10186   0.87979   0.00000  Uiso   1.00
Br716  Br    0.63989   0.07515   0.98985   0.00000  Uiso   1.00
C717   C     0.37581   0.19664   0.91993   0.00000  Uiso   1.00
H718   H     0.36238   0.17461   0.89806   0.00000  Uiso   1.00
O719   O     0.36200   0.23299   0.92350   0.00000  Uiso   1.00
C720   C     0.41467   0.17037   0.58612   0.00000  Uiso   1.00
H721   H     0.42266   0.14188   0.60342   0.00000  Uiso   1.00
O722   O     0.39503   0.19965   0.61560   0.00000  Uiso   1.00
C723   C     0.34714   0.19900   0.53517   0.00000  Uiso   1.00
H724   H     0.66173   0.22293   0.52082   0.00000  Uiso   1.00
O725   O     0.65879   0.18276   0.57840   0.00000  Uiso   1.00
Br726  Br    0.53025   0.28054   0.84526   0.00000  Uiso   1.00
C727   C     0.83232   0.24642   0.75140   0.00000  Uiso   1.00
C728   C     0.81187   0.16058   0.99405   0.00000  Uiso   1.00
C729   C     0.82115   0.15051   0.93949   0.00000  Uiso   1.00
C730   C     0.85012   0.15483   0.51452   0.00000  Uiso   1.00
C731   C     0.89188   0.13015   0.98600   0.00000  Uiso   1.00
C732   C     0.89901   0.11869   0.93253   0.00000  Uiso   1.00
C733   C     0.86306   0.12692   0.91171   0.00000  Uiso   1.00
C734   C     0.84883   0.17470   0.56190   0.00000  Uiso   1.00
C735   C     0.91463   0.13180   0.56569   0.00000  Uiso   1.00
C736   C     0.78922   0.16482   0.91333   0.00000  Uiso   1.00
C737   C     0.84959   0.31040   0.78845   0.00000  Uiso   1.00
C738   C     0.80643   0.16581   0.85276   0.00000  Uiso   1.00
C739   C     0.85591   0.01956   0.78311   0.00000  Uiso   1.00
C740   C     0.83563   0.04203   0.75016   0.00000  Uiso   1.00
C741   C     0.81469   0.02157   0.71800   0.00000  Uiso   1.00
C742   C     0.81268   0.31224   0.71936   0.00000  Uiso   1.00
C743   C     0.83032   0.29036   0.75425   0.00000  Uiso   1.00
C744   C     0.98552   0.13715   0.72179   0.00000  Uiso   1.00
C745   C     0.69939   0.13595   0.72370   0.00000  Uiso   1.00
C746   C     0.68082   0.19705   0.77690   0.00000  Uiso   1.00
C747   C     0.96637   0.19629   0.77735   0.00000  Uiso   1.00
C748   C     0.83403   0.08658   0.75008   0.00000  Uiso   1.00
C749   C     0.86017   0.16671   0.64801   0.00000  Uiso   1.00
C750   C     0.92369   0.11782   0.51324   0.00000  Uiso   1.00
C751   C     0.87742   0.16027   0.58991   0.00000  Uiso   1.00
C752   C     0.74400   0.18266   0.94514   0.00000  Uiso   1.00
C753   C     0.73062   0.18539   0.50194   0.00000  Uiso   1.00
C754   C     0.76440   0.17405   0.52651   0.00000  Uiso   1.00
H755   H     0.93532   0.11878   0.58851   0.00000  Uiso   1.00
H756   H     0.80179   0.03845   0.69023   0.00000  Uiso   1.00
H757   H     0.79826   0.29628   0.69263   0.00000  Uiso   1.00
H758   H     0.94024   0.21954   0.79966   0.00000  Uiso   1.00
H759   H     0.82374   0.20005   0.57950   0.00000  Uiso   1.00
H760   H     0.86888   0.11428   0.87263   0.00000  Uiso   1.00
N761   N     0.71426   0.16668   0.75001   0.00000  Uiso   1.00
N762   N     0.95239   0.16665   0.75000   0.00000  Uiso   1.00
O763   O     0.79512   0.22775   0.75000   0.00000  Uiso   1.00
O764   O     0.87157   0.22774   0.75000   0.00000  Uiso   1.00
O765   O     0.77613   0.16666   0.82681   0.00000  Uiso   1.00
O766   O     0.85258   0.16665   0.82681   0.00000  Uiso   1.00
O767   O     0.79510   0.10559   0.74999   0.00000  Uiso   1.00
O768   O     0.87154   0.10558   0.74999   0.00000  Uiso   1.00
O769   O     0.81409   0.16668   0.67319   0.00000  Uiso   1.00
O770   O     0.89053   0.16667   0.67319   0.00000  Uiso   1.00
Zn771  Zn    0.78229   0.16667   0.75000   0.00000  Uiso   1.00
Zn772  Zn    0.88438   0.16666   0.75000   0.00000  Uiso   1.00
Br773  Br    0.89588   0.04383   0.81731   0.00000  Uiso   1.00
Br774  Br    0.96966   0.09962   0.67458   0.00000  Uiso   1.00
C775   C     0.73186   0.10080   0.69761   0.00000  Uiso   1.00
H776   H     0.76868   0.10585   0.67278   0.00000  Uiso   1.00
O777   O     0.71766   0.06516   0.70426   0.00000  Uiso   1.00
C778   C     0.69311   0.23055   0.80720   0.00000  Uiso   1.00
H779   H     0.72309   0.22687   0.82043   0.00000  Uiso   1.00
O780   O     0.66898   0.26277   0.81883   0.00000  Uiso   1.00
Br781  Br    0.95993   0.10186   0.87979   0.00000  Uiso   1.00
Br782  Br    0.97322   0.07515   0.98985   0.00000  Uiso   1.00
C783   C     0.70915   0.19664   0.91993   0.00000  Uiso   1.00
H784   H     0.69571   0.17461   0.89806   0.00000  Uiso   1.00
O785   O     0.69533   0.23299   0.92350   0.00000  Uiso   1.00
C786   C     0.74801   0.17037   0.58612   0.00000  Uiso   1.00
H787   H     0.75599   0.14188   0.60342   0.00000  Uiso   1.00
O788   O     0.72836   0.19965   0.61560   0.00000  Uiso   1.00
C789   C     0.68048   0.19900   0.53517   0.00000  Uiso   1.00
H790   H     0.99507   0.22293   0.52082   0.00000  Uiso   1.00
O791   O     0.99212   0.18276   0.57840   0.00000  Uiso   1.00
Br792  Br    0.86359   0.28054   0.84526   0.00000  Uiso   1.00
C793   C     0.16566   0.57975   0.75140   0.00000  Uiso   1.00
C794   C     0.14520   0.49391   0.99405   0.00000  Uiso   1.00
C795   C     0.15449   0.48385   0.93949   0.00000  Uiso   1.00
C796   C     0.18345   0.48817   0.51452   0.00000  Uiso   1.00
C797   C     0.22521   0.46348   0.98600   0.00000  Uiso   1.00
C798   C     0.23234   0.45203   0.93253   0.00000  Uiso   1.00
C799   C     0.19639   0.46025   0.91171   0.00000  Uiso   1.00
C800   C     0.18216   0.50804   0.56190   0.00000  Uiso   1.00
C801   C     0.24796   0.46513   0.56569   0.00000  Uiso   1.00
C802   C     0.12256   0.49815   0.91333   0.00000  Uiso   1.00
C803   C     0.18293   0.64373   0.78845   0.00000  Uiso   1.00
C804   C     0.13977   0.49915   0.85276   0.00000  Uiso   1.00
C805   C     0.18924   0.35289   0.78311   0.00000  Uiso   1.00
C806   C     0.16897   0.37537   0.75016   0.00000  Uiso   1.00
C807   C     0.14803   0.35490   0.71800   0.00000  Uiso   1.00
C808   C     0.14602   0.64558   0.71936   0.00000  Uiso   1.00
C809   C     0.16365   0.62369   0.75425   0.00000  Uiso   1.00
C810   C     0.31885   0.47049   0.72179   0.00000  Uiso   1.00
C811   C     0.03273   0.46928   0.72370   0.00000  Uiso   1.00
C812   C     0.01415   0.53038   0.77690   0.00000  Uiso   1.00
C813   C     0.29971   0.52962   0.77735   0.00000  Uiso   1.00
C814   C     0.16736   0.41991   0.75008   0.00000  Uiso   1.00
C815   C     0.19350   0.50005   0.64801   0.00000  Uiso   1.00
C816   C     0.25702   0.45115   0.51324   0.00000  Uiso   1.00
C817   C     0.21075   0.49360   0.58991   0.00000  Uiso   1.00
C818   C     0.07733   0.51600   0.94514   0.00000  Uiso   1.00
C819   C     0.06396   0.51873   0.50194   0.00000  Uiso   1.00
C820   C     0.09773   0.50739   0.52651   0.00000  Uiso   1.00
H821   H     0.26866   0.45211   0.58851   0.00000  Uiso   1.00
H822   H     0.13512   0.37178   0.69023   0.00000  Uiso   1.00
H823   H     0.13160   0.62961   0.69263   0.00000  Uiso   1.00
H824   H     0.27357   0.55287   0.79966   0.00000  Uiso   1.00
H825   H     0.15707   0.53338   0.57950   0.00000  Uiso   1.00
H826   H     0.20221   0.44762   0.87263   0.00000  Uiso   1.00
N827   N     0.04760   0.50001   0.75001   0.00000  Uiso   1.00
N828   N     0.28573   0.49998   0.75000   0.00000  Uiso   1.00
O829   O     0.12846   0.56108   0.75000   0.00000  Uiso   1.00
O830   O     0.20490   0.56107   0.75000   0.00000  Uiso   1.00
O831   O     0.10947   0.50000   0.82681   0.00000  Uiso   1.00
O832   O     0.18591   0.49999   0.82681   0.00000  Uiso   1.00
O833   O     0.12843   0.43893   0.74999   0.00000  Uiso   1.00
O834   O     0.20488   0.43892   0.74999   0.00000  Uiso   1.00
O835   O     0.14742   0.50001   0.67319   0.00000  Uiso   1.00
O836   O     0.22387   0.50000   0.67319   0.00000  Uiso   1.00
Zn837  Zn    0.11562   0.50001   0.75000   0.00000  Uiso   1.00
Zn838  Zn    0.21771   0.49999   0.75000   0.00000  Uiso   1.00
Br839  Br    0.22921   0.37716   0.81731   0.00000  Uiso   1.00
Br840  Br    0.30300   0.43295   0.67458   0.00000  Uiso   1.00
C841   C     0.06519   0.43413   0.69761   0.00000  Uiso   1.00
H842   H     0.10201   0.43919   0.67278   0.00000  Uiso   1.00
O843   O     0.05099   0.39849   0.70426   0.00000  Uiso   1.00
C844   C     0.02644   0.56388   0.80720   0.00000  Uiso   1.00
H845   H     0.05643   0.56021   0.82043   0.00000  Uiso   1.00
O846   O     0.00232   0.59611   0.81883   0.00000  Uiso   1.00
Br847  Br    0.29327   0.43520   0.87979   0.00000  Uiso   1.00
Br848  Br    0.30656   0.40849   0.98985   0.00000  Uiso   1.00
C849   C     0.04248   0.52997   0.91993   0.00000  Uiso   1.00
H850   H     0.02905   0.50794   0.89806   0.00000  Uiso   1.00
O851   O     0.02867   0.56633   0.92350   0.00000  Uiso   1.00
C852   C     0.08134   0.50371   0.58612   0.00000  Uiso   1.00
H853   H     0.08933   0.47521   0.60342   0.00000  Uiso   1.00
O854   O     0.06170   0.53299   0.61560   0.00000  Uiso   1.00
C855   C     0.01381   0.53233   0.53517   0.00000  Uiso   1.00
H856   H     0.32840   0.55626   0.52082   0.00000  Uiso   1.00
O857   O     0.32545   0.51610   0.57840   0.00000  Uiso   1.00
Br858  Br    0.19692   0.61387   0.84526   0.00000  Uiso   1.00
C859   C     0.49899   0.57975   0.75140   0.00000  Uiso   1.00
C860   C     0.47854   0.49391   0.99405   0.00000  Uiso   1.00
C861   C     0.48782   0.48385   0.93949   0.00000  Uiso   1.00
C862   C     0.51679   0.48817   0.51452   0.00000  Uiso   1.00
C863   C     0.55855   0.46348   0.98600   0.00000  Uiso   1.00
C864   C     0.56568   0.45203   0.93253   0.00000  Uiso   1.00
C865   C     0.52973   0.46025   0.91171   0.00000  Uiso   1.00
C866   C     0.51549   0.50804   0.56190   0.00000  Uiso   1.00
C867   C     0.58129   0.46513   0.56569   0.00000  Uiso   1.00
C868   C     0.45589   0.49815   0.91333   0.00000  Uiso   1.00
C869   C     0.51626   0.64373   0.78845   0.00000  Uiso   1.00
C870   C     0.47310   0.49915   0.85276   0.00000  Uiso   1.00
C871   C     0.52258   0.35289   0.78311   0.00000  Uiso   1.00
C872   C     0.50230   0.37537   0.75016   0.00000  Uiso   1.00
C873   C     0.48136   0.35490   0.71800   0.00000  Uiso   1.00
C874   C     0.47935   0.64558   0.71936   0.00000  Uiso   1.00
C875   C     0.49698   0.62369   0.75425   0.00000  Uiso   1.00
C876   C     0.65218   0.47049   0.72179   0.00000  Uiso   1.00
C877   C     0.36606   0.46928   0.72370   0.00000  Uiso   1.00
C878   C     0.34749   0.53038   0.77690   0.00000  Uiso   1.00
C879   C     0.63304   0.52962   0.77735   0.00000  Uiso   1.00
C880   C     0.50070   0.41991   0.75008   0.00000  Uiso   1.00
C881   C     0.52684   0.50005   0.64801   0.00000  Uiso   1.00
C882   C     0.59035   0.45115   0.51324   0.00000  Uiso   1.00
C883   C     0.54408   0.49360   0.58991   0.00000  Uiso   1.00
C884   C     0.41067   0.51600   0.94514   0.00000  Uiso   1.00
C885   C     0.39729   0.51873   0.50194   0.00000  Uiso   1.00
C886   C     0.43106   0.50739   0.52651   0.00000  Uiso   1.00
H887   H     0.60199   0.45211   0.58851   0.00000  Uiso   1.00
H888   H     0.46845   0.37178   0.69023   0.00000  Uiso   1.00
H889   H     0.46493   0.62961   0.69263   0.00000  Uiso   1.00
H890   H     0.60691   0.55287   0.79966   0.00000  Uiso   1.00
H891   H     0.49040   0.53338   0.57950   0.00000  Uiso   1.00
H892   H     0.53555   0.44762   0.87263   0.00000  Uiso   1.00
N893   N     0.38093   0.50001   0.75001   0.00000  Uiso   1.00
N894   N     0.61906   0.49998   0.75000   0.00000  Uiso   1.00
O895   O     0.46179   0.56108   0.75000   0.00000  Uiso   1.00
O896   O     0.53823   0.56107   0.75000   0.00000  Uiso   1.00
O897   O     0.44280   0.50000   0.82681   0.00000  Uiso   1.00
O898   O     0.51924   0.49999   0.82681   0.00000  Uiso   1.00
O899   O     0.46177   0.43893   0.74999   0.00000  Uiso   1.00
O900   O     0.53821   0.43892   0.74999   0.00000  Uiso   1.00
O901   O     0.48076   0.50001   0.67319   0.00000  Uiso   1.00
O902   O     0.55720   0.50000   0.67319   0.00000  Uiso   1.00
Zn903  Zn    0.44896   0.50001   0.75000   0.00000  Uiso   1.00
Zn904  Zn    0.55104   0.49999   0.75000   0.00000  Uiso   1.00
Br905  Br    0.56254   0.37716   0.81731   0.00000  Uiso   1.00
Br906  Br    0.63633   0.43295   0.67458   0.00000  Uiso   1.00
C907   C     0.39852   0.43413   0.69761   0.00000  Uiso   1.00
H908   H     0.43534   0.43919   0.67278   0.00000  Uiso   1.00
O909   O     0.38432   0.39849   0.70426   0.00000  Uiso   1.00
C910   C     0.35977   0.56388   0.80720   0.00000  Uiso   1.00
H911   H     0.38976   0.56021   0.82043   0.00000  Uiso   1.00
O912   O     0.33565   0.59611   0.81883   0.00000  Uiso   1.00
Br913  Br    0.62660   0.43520   0.87979   0.00000  Uiso   1.00
Br914  Br    0.63989   0.40849   0.98985   0.00000  Uiso   1.00
C915   C     0.37581   0.52997   0.91993   0.00000  Uiso   1.00
H916   H     0.36238   0.50794   0.89806   0.00000  Uiso   1.00
O917   O     0.36200   0.56633   0.92350   0.00000  Uiso   1.00
C918   C     0.41467   0.50371   0.58612   0.00000  Uiso   1.00
H919   H     0.42266   0.47521   0.60342   0.00000  Uiso   1.00
O920   O     0.39503   0.53299   0.61560   0.00000  Uiso   1.00
C921   C     0.34714   0.53233   0.53517   0.00000  Uiso   1.00
H922   H     0.66173   0.55626   0.52082   0.00000  Uiso   1.00
O923   O     0.65879   0.51610   0.57840   0.00000  Uiso   1.00
Br924  Br    0.53025   0.61387   0.84526   0.00000  Uiso   1.00
C925   C     0.83232   0.57975   0.75140   0.00000  Uiso   1.00
C926   C     0.81187   0.49391   0.99405   0.00000  Uiso   1.00
C927   C     0.82115   0.48385   0.93949   0.00000  Uiso   1.00
C928   C     0.85012   0.48817   0.51452   0.00000  Uiso   1.00
C929   C     0.89188   0.46348   0.98600   0.00000  Uiso   1.00
C930   C     0.89901   0.45203   0.93253   0.00000  Uiso   1.00
C931   C     0.86306   0.46025   0.91171   0.00000  Uiso   1.00
C932   C     0.84883   0.50804   0.56190   0.00000  Uiso   1.00
C933   C     0.91463   0.46513   0.56569   0.00000  Uiso   1.00
C934   C     0.78922   0.49815   0.91333   0.00000  Uiso   1.00
C935   C     0.84959   0.64373   0.78845   0.00000  Uiso   1.00
C936   C     0.80643   0.49915   0.85276   0.00000  Uiso   1.00
C937   C     0.85591   0.35289   0.78311   0.00000  Uiso   1.00
C938   C     0.83563   0.37537   0.75016   0.00000  Uiso   1.00
C939   C     0.81469   0.35490   0.71800   0.00000  Uiso   1.00
C940   C     0.81268   0.64558   0.71936   0.00000  Uiso   1.00
C941   C     0.83032   0.62369   0.75425   0.00000  Uiso   1.00
C942   C     0.98552   0.47049   0.72179   0.00000  Uiso   1.00
C943   C     0.69939   0.46928   0.72370   0.00000  Uiso   1.00
C944   C     0.68082   0.53038   0.77690   0.00000  Uiso   1.00
C945   C     0.96637   0.52962   0.77735   0.00000  Uiso   1.00
C946   C     0.83403   0.41991   0.75008   0.00000  Uiso   1.00
C947   C     0.86017   0.50005   0.64801   0.00000  Uiso   1.00
C948   C     0.92369   0.45115   0.51324   0.00000  Uiso   1.00
C949   C     0.87742   0.49360   0.58991   0.00000  Uiso   1.00
C950   C     0.74400   0.51600   0.94514   0.00000  Uiso   1.00
C951   C     0.73062   0.51873   0.50194   0.00000  Uiso   1.00
C952   C     0.76440   0.50739   0.52651   0.00000  Uiso   1.00
H953   H     0.93532   0.45211   0.58851   0.00000  Uiso   1.00
H954   H     0.80179   0.37178   0.69023   0.00000  Uiso   1.00
H955   H     0.79826   0.62961   0.69263   0.00000  Uiso   1.00
H956   H     0.94024   0.55287   0.79966   0.00000  Uiso   1.00
H957   H     0.82374   0.53338   0.57950   0.00000  Uiso   1.00
H958   H     0.86888   0.44762   0.87263   0.00000  Uiso   1.00
N959   N     0.71426   0.50001   0.75001   0.00000  Uiso   1.00
N960   N     0.95239   0.49998   0.75000   0.00000  Uiso   1.00
O961   O     0.79512   0.56108   0.75000   0.00000  Uiso   1.00
O962   O     0.87157   0.56107   0.75000   0.00000  Uiso   1.00
O963   O     0.77613   0.50000   0.82681   0.00000  Uiso   1.00
O964   O     0.85258   0.49999   0.82681   0.00000  Uiso   1.00
O965   O     0.79510   0.43893   0.74999   0.00000  Uiso   1.00
O966   O     0.87154   0.43892   0.74999   0.00000  Uiso   1.00
O967   O     0.81409   0.50001   0.67319   0.00000  Uiso   1.00
O968   O     0.89053   0.50000   0.67319   0.00000  Uiso   1.00
Zn969  Zn    0.78229   0.50001   0.75000   0.00000  Uiso   1.00
Zn970  Zn    0.88438   0.49999   0.75000   0.00000  Uiso   1.00
Br971  Br    0.89588   0.37716   0.81731   0.00000  Uiso   1.00
Br972  Br    0.96966   0.43295   0.67458   0.00000  Uiso   1.00
C973   C     0.73186   0.43413   0.69761   0.00000  Uiso   1.00
H974   H     0.76868   0.43919   0.67278   0.00000  Uiso   1.00
O975   O     0.71766   0.39849   0.70426   0.00000  Uiso   1.00
C976   C     0.69311   0.56388   0.80720   0.00000  Uiso   1.00
H977   H     0.72309   0.56021   0.82043   0.00000  Uiso   1.00
O978   O     0.66898   0.59611   0.81883   0.00000  Uiso   1.00
Br979  Br    0.95993   0.43520   0.87979   0.00000  Uiso   1.00
Br980  Br    0.97322   0.40849   0.98985   0.00000  Uiso   1.00
C981   C     0.70915   0.52997   0.91993   0.00000  Uiso   1.00
H982   H     0.69571   0.50794   0.89806   0.00000  Uiso   1.00
O983   O     0.69533   0.56633   0.92350   0.00000  Uiso   1.00
C984   C     0.74801   0.50371   0.58612   0.00000  Uiso   1.00
H985   H     0.75599   0.47521   0.60342   0.00000  Uiso   1.00
O986   O     0.72836   0.53299   0.61560   0.00000  Uiso   1.00
C987   C     0.68048   0.53233   0.53517   0.00000  Uiso   1.00
H988   H     0.99507   0.55626   0.52082   0.00000  Uiso   1.00
O989   O     0.99212   0.51610   0.57840   0.00000  Uiso   1.00
Br990  Br    0.86359   0.61387   0.84526   0.00000  Uiso   1.00
C991   C     0.16566   0.91309   0.75140   0.00000  Uiso   1.00
C992   C     0.14520   0.82725   0.99405   0.00000  Uiso   1.00
C993   C     0.15449   0.81718   0.93949   0.00000  Uiso   1.00
C994   C     0.18345   0.82150   0.51452   0.00000  Uiso   1.00
C995   C     0.22521   0.79681   0.98600   0.00000  Uiso   1.00
C996   C     0.23234   0.78536   0.93253   0.00000  Uiso   1.00
C997   C     0.19639   0.79359   0.91171   0.00000  Uiso   1.00
C998   C     0.18216   0.84137   0.56190   0.00000  Uiso   1.00
C999   C     0.24796   0.79847   0.56569   0.00000  Uiso   1.00
C1000  C     0.12256   0.83148   0.91333   0.00000  Uiso   1.00
C1001  C     0.18293   0.97707   0.78845   0.00000  Uiso   1.00
C1002  C     0.13977   0.83248   0.85276   0.00000  Uiso   1.00
C1003  C     0.18924   0.68622   0.78311   0.00000  Uiso   1.00
C1004  C     0.16897   0.70870   0.75016   0.00000  Uiso   1.00
C1005  C     0.14803   0.68823   0.71800   0.00000  Uiso   1.00
C1006  C     0.14602   0.97891   0.71936   0.00000  Uiso   1.00
C1007  C     0.16365   0.95703   0.75425   0.00000  Uiso   1.00
C1008  C     0.31885   0.80382   0.72179   0.00000  Uiso   1.00
C1009  C     0.03273   0.80262   0.72370   0.00000  Uiso   1.00
C1010  C     0.01415   0.86371   0.77690   0.00000  Uiso   1.00
C1011  C     0.29971   0.86295   0.77735   0.00000  Uiso   1.00
C1012  C     0.16736   0.75324   0.75008   0.00000  Uiso   1.00
C1013  C     0.19350   0.83338   0.64801   0.00000  Uiso   1.00
C1014  C     0.25702   0.78449   0.51324   0.00000  Uiso   1.00
C1015  C     0.21075   0.82694   0.58991   0.00000  Uiso   1.00
C1016  C     0.07733   0.84933   0.94514   0.00000  Uiso   1.00
C1017  C     0.06396   0.85206   0.50194   0.00000  Uiso   1.00
C1018  C     0.09773   0.84072   0.52651   0.00000  Uiso   1.00
H1019  H     0.26866   0.78545   0.58851   0.00000  Uiso   1.00
H1020  H     0.13512   0.70512   0.69023   0.00000  Uiso   1.00
H1021  H     0.13160   0.96295   0.69263   0.00000  Uiso   1.00
H1022  H     0.27357   0.88620   0.79966   0.00000  Uiso   1.00
H1023  H     0.15707   0.86672   0.57950   0.00000  Uiso   1.00
H1024  H     0.20221   0.78095   0.87263   0.00000  Uiso   1.00
N1025  N     0.04760   0.83334   0.75001   0.00000  Uiso   1.00
N1026  N     0.28573   0.83331   0.75000   0.00000  Uiso   1.00
O1027  O     0.12846   0.89442   0.75000   0.00000  Uiso   1.00
O1028  O     0.20490   0.89441   0.75000   0.00000  Uiso   1.00
O1029  O     0.10947   0.83333   0.82681   0.00000  Uiso   1.00
O1030  O     0.18591   0.83332   0.82681   0.00000  Uiso   1.00
O1031  O     0.12843   0.77226   0.74999   0.00000  Uiso   1.00
O1032  O     0.20488   0.77225   0.74999   0.00000  Uiso   1.00
O1033  O     0.14742   0.83335   0.67319   0.00000  Uiso   1.00
O1034  O     0.22387   0.83334   0.67319   0.00000  Uiso   1.00
Zn1035 Zn    0.11562   0.83334   0.75000   0.00000  Uiso   1.00
Zn1036 Zn    0.21771   0.83333   0.75000   0.00000  Uiso   1.00
Br1037 Br    0.22921   0.71049   0.81731   0.00000  Uiso   1.00
Br1038 Br    0.30300   0.76629   0.67458   0.00000  Uiso   1.00
C1039  C     0.06519   0.76747   0.69761   0.00000  Uiso   1.00
H1040  H     0.10201   0.77252   0.67278   0.00000  Uiso   1.00
O1041  O     0.05099   0.73183   0.70426   0.00000  Uiso   1.00
C1042  C     0.02644   0.89722   0.80720   0.00000  Uiso   1.00
H1043  H     0.05643   0.89354   0.82043   0.00000  Uiso   1.00
O1044  O     0.00232   0.92944   0.81883   0.00000  Uiso   1.00
Br1045 Br    0.29327   0.76853   0.87979   0.00000  Uiso   1.00
Br1046 Br    0.30656   0.74182   0.98985   0.00000  Uiso   1.00
C1047  C     0.04248   0.86331   0.91993   0.00000  Uiso   1.00
H1048  H     0.02905   0.84128   0.89806   0.00000  Uiso   1.00
O1049  O     0.02867   0.89966   0.92350   0.00000  Uiso   1.00
C1050  C     0.08134   0.83704   0.58612   0.00000  Uiso   1.00
H1051  H     0.08933   0.80855   0.60342   0.00000  Uiso   1.00
O1052  O     0.06170   0.86632   0.61560   0.00000  Uiso   1.00
C1053  C     0.01381   0.86566   0.53517   0.00000  Uiso   1.00
H1054  H     0.32840   0.88959   0.52082   0.00000  Uiso   1.00
O1055  O     0.32545   0.84943   0.57840   0.00000  Uiso   1.00
Br1056 Br    0.19692   0.94721   0.84526   0.00000  Uiso   1.00
C1057  C     0.49899   0.91309   0.75140   0.00000  Uiso   1.00
C1058  C     0.47854   0.82725   0.99405   0.00000  Uiso   1.00
C1059  C     0.48782   0.81718   0.93949   0.00000  Uiso   1.00
C1060  C     0.51679   0.82150   0.51452   0.00000  Uiso   1.00
C1061  C     0.55855   0.79681   0.98600   0.00000  Uiso   1.00
C1062  C     0.56568   0.78536   0.93253   0.00000  Uiso   1.00
C1063  C     0.52973   0.79359   0.91171   0.00000  Uiso   1.00
C1064  C     0.51549   0.84137   0.56190   0.00000  Uiso   1.00
C1065  C     0.58129   0.79847   0.56569   0.00000  Uiso   1.00
C1066  C     0.45589   0.83148   0.91333   0.00000  Uiso   1.00
C1067  C     0.51626   0.97707   0.78845   0.00000  Uiso   1.00
C1068  C     0.47310   0.83248   0.85276   0.00000  Uiso   1.00
C1069  C     0.52258   0.68622   0.78311   0.00000  Uiso   1.00
C1070  C     0.50230   0.70870   0.75016   0.00000  Uiso   1.00
C1071  C     0.48136   0.68823   0.71800   0.00000  Uiso   1.00
C1072  C     0.47935   0.97891   0.71936   0.00000  Uiso   1.00
C1073  C     0.49698   0.95703   0.75425   0.00000  Uiso   1.00
C1074  C     0.65218   0.80382   0.72179   0.00000  Uiso   1.00
C1075  C     0.36606   0.80262   0.72370   0.00000  Uiso   1.00
C1076  C     0.34749   0.86371   0.77690   0.00000  Uiso   1.00
C1077  C     0.63304   0.86295   0.77735   0.00000  Uiso   1.00
C1078  C     0.50070   0.75324   0.75008   0.00000  Uiso   1.00
C1079  C     0.52684   0.83338   0.64801   0.00000  Uiso   1.00
C1080  C     0.59035   0.78449   0.51324   0.00000  Uiso   1.00
C1081  C     0.54408   0.82694   0.58991   0.00000  Uiso   1.00
C1082  C     0.41067   0.84933   0.94514   0.00000  Uiso   1.00
C1083  C     0.39729   0.85206   0.50194   0.00000  Uiso   1.00
C1084  C     0.43106   0.84072   0.52651   0.00000  Uiso   1.00
H1085  H     0.60199   0.78545   0.58851   0.00000  Uiso   1.00
H1086  H     0.46845   0.70512   0.69023   0.00000  Uiso   1.00
H1087  H     0.46493   0.96295   0.69263   0.00000  Uiso   1.00
H1088  H     0.60691   0.88620   0.79966   0.00000  Uiso   1.00
H1089  H     0.49040   0.86672   0.57950   0.00000  Uiso   1.00
H1090  H     0.53555   0.78095   0.87263   0.00000  Uiso   1.00
N1091  N     0.38093   0.83334   0.75001   0.00000  Uiso   1.00
N1092  N     0.61906   0.83331   0.75000   0.00000  Uiso   1.00
O1093  O     0.46179   0.89442   0.75000   0.00000  Uiso   1.00
O1094  O     0.53823   0.89441   0.75000   0.00000  Uiso   1.00
O1095  O     0.44280   0.83333   0.82681   0.00000  Uiso   1.00
O1096  O     0.51924   0.83332   0.82681   0.00000  Uiso   1.00
O1097  O     0.46177   0.77226   0.74999   0.00000  Uiso   1.00
O1098  O     0.53821   0.77225   0.74999   0.00000  Uiso   1.00
O1099  O     0.48076   0.83335   0.67319   0.00000  Uiso   1.00
O1100  O     0.55720   0.83334   0.67319   0.00000  Uiso   1.00
Zn1101 Zn    0.44896   0.83334   0.75000   0.00000  Uiso   1.00
Zn1102 Zn    0.55104   0.83333   0.75000   0.00000  Uiso   1.00
Br1103 Br    0.56254   0.71049   0.81731   0.00000  Uiso   1.00
Br1104 Br    0.63633   0.76629   0.67458   0.00000  Uiso   1.00
C1105  C     0.39852   0.76747   0.69761   0.00000  Uiso   1.00
H1106  H     0.43534   0.77252   0.67278   0.00000  Uiso   1.00
O1107  O     0.38432   0.73183   0.70426   0.00000  Uiso   1.00
C1108  C     0.35977   0.89722   0.80720   0.00000  Uiso   1.00
H1109  H     0.38976   0.89354   0.82043   0.00000  Uiso   1.00
O1110  O     0.33565   0.92944   0.81883   0.00000  Uiso   1.00
Br1111 Br    0.62660   0.76853   0.87979   0.00000  Uiso   1.00
Br1112 Br    0.63989   0.74182   0.98985   0.00000  Uiso   1.00
C1113  C     0.37581   0.86331   0.91993   0.00000  Uiso   1.00
H1114  H     0.36238   0.84128   0.89806   0.00000  Uiso   1.00
O1115  O     0.36200   0.89966   0.92350   0.00000  Uiso   1.00
C1116  C     0.41467   0.83704   0.58612   0.00000  Uiso   1.00
H1117  H     0.42266   0.80855   0.60342   0.00000  Uiso   1.00
O1118  O     0.39503   0.86632   0.61560   0.00000  Uiso   1.00
C1119  C     0.34714   0.86566   0.53517   0.00000  Uiso   1.00
H1120  H     0.66173   0.88959   0.52082   0.00000  Uiso   1.00
O1121  O     0.65879   0.84943   0.57840   0.00000  Uiso   1.00
Br1122 Br    0.53025   0.94721   0.84526   0.00000  Uiso   1.00
C1123  C     0.83232   0.91309   0.75140   0.00000  Uiso   1.00
C1124  C     0.81187   0.82725   0.99405   0.00000  Uiso   1.00
C1125  C     0.82115   0.81718   0.93949   0.00000  Uiso   1.00
C1126  C     0.85012   0.82150   0.51452   0.00000  Uiso   1.00
C1127  C     0.89188   0.79681   0.98600   0.00000  Uiso   1.00
C1128  C     0.89901   0.78536   0.93253   0.00000  Uiso   1.00
C1129  C     0.86306   0.79359   0.91171   0.00000  Uiso   1.00
C1130  C     0.84883   0.84137   0.56190   0.00000  Uiso   1.00
C1131  C     0.91463   0.79847   0.56569   0.00000  Uiso   1.00
C1132  C     0.78922   0.83148   0.91333   0.00000  Uiso   1.00
C1133  C     0.84959   0.97707   0.78845   0.00000  Uiso   1.00
C1134  C     0.80643   0.83248   0.85276   0.00000  Uiso   1.00
C1135  C     0.85591   0.68622   0.78311   0.00000  Uiso   1.00
C1136  C     0.83563   0.70870   0.75016   0.00000  Uiso   1.00
C1137  C     0.81469   0.68823   0.71800   0.00000  Uiso   1.00
C1138  C     0.81268   0.97891   0.71936   0.00000  Uiso   1.00
C1139  C     0.83032   0.95703   0.75425   0.00000  Uiso   1.00
C1140  C     0.98552   0.80382   0.72179   0.00000  Uiso   1.00
C1141  C     0.69939   0.80262   0.72370   0.00000  Uiso   1.00
C1142  C     0.68082   0.86371   0.77690   0.00000  Uiso   1.00
C1143  C     0.96637   0.86295   0.77735   0.00000  Uiso   1.00
C1144  C     0.83403   0.75324   0.75008   0.00000  Uiso   1.00
C1145  C     0.86017   0.83338   0.64801   0.00000  Uiso   1.00
C1146  C     0.92369   0.78449   0.51324   0.00000  Uiso   1.00
C1147  C     0.87742   0.82694   0.58991   0.00000  Uiso   1.00
C1148  C     0.74400   0.84933   0.94514   0.00000  Uiso   1.00
C1149  C     0.73062   0.85206   0.50194   0.00000  Uiso   1.00
C1150  C     0.76440   0.84072   0.52651   0.00000  Uiso   1.00
H1151  H     0.93532   0.78545   0.58851   0.00000  Uiso   1.00
H1152  H     0.80179   0.70512   0.69023   0.00000  Uiso   1.00
H1153  H     0.79826   0.96295   0.69263   0.00000  Uiso   1.00
H1154  H     0.94024   0.88620   0.79966   0.00000  Uiso   1.00
H1155  H     0.82374   0.86672   0.57950   0.00000  Uiso   1.00
H1156  H     0.86888   0.78095   0.87263   0.00000  Uiso   1.00
N1157  N     0.71426   0.83334   0.75001   0.00000  Uiso   1.00
N1158  N     0.95239   0.83331   0.75000   0.00000  Uiso   1.00
O1159  O     0.79512   0.89442   0.75000   0.00000  Uiso   1.00
O1160  O     0.87157   0.89441   0.75000   0.00000  Uiso   1.00
O1161  O     0.77613   0.83333   0.82681   0.00000  Uiso   1.00
O1162  O     0.85258   0.83332   0.82681   0.00000  Uiso   1.00
O1163  O     0.79510   0.77226   0.74999   0.00000  Uiso   1.00
O1164  O     0.87154   0.77225   0.74999   0.00000  Uiso   1.00
O1165  O     0.81409   0.83335   0.67319   0.00000  Uiso   1.00
O1166  O     0.89053   0.83334   0.67319   0.00000  Uiso   1.00
Zn1167 Zn    0.78229   0.83334   0.75000   0.00000  Uiso   1.00
Zn1168 Zn    0.88438   0.83333   0.75000   0.00000  Uiso   1.00
Br1169 Br    0.89588   0.71049   0.81731   0.00000  Uiso   1.00
Br1170 Br    0.96966   0.76629   0.67458   0.00000  Uiso   1.00
C1171  C     0.73186   0.76747   0.69761   0.00000  Uiso   1.00
H1172  H     0.76868   0.77252   0.67278   0.00000  Uiso   1.00
O1173  O     0.71766   0.73183   0.70426   0.00000  Uiso   1.00
C1174  C     0.69311   0.89722   0.80720   0.00000  Uiso   1.00
H1175  H     0.72309   0.89354   0.82043   0.00000  Uiso   1.00
O1176  O     0.66898   0.92944   0.81883   0.00000  Uiso   1.00
Br1177 Br    0.95993   0.76853   0.87979   0.00000  Uiso   1.00
Br1178 Br    0.97322   0.74182   0.98985   0.00000  Uiso   1.00
C1179  C     0.70915   0.86331   0.91993   0.00000  Uiso   1.00
H1180  H     0.69571   0.84128   0.89806   0.00000  Uiso   1.00
O1181  O     0.69533   0.89966   0.92350   0.00000  Uiso   1.00
C1182  C     0.74801   0.83704   0.58612   0.00000  Uiso   1.00
H1183  H     0.75599   0.80855   0.60342   0.00000  Uiso   1.00
O1184  O     0.72836   0.86632   0.61560   0.00000  Uiso   1.00
C1185  C     0.68048   0.86566   0.53517   0.00000  Uiso   1.00
H1186  H     0.99507   0.88959   0.52082   0.00000  Uiso   1.00
O1187  O     0.99212   0.84943   0.57840   0.00000  Uiso   1.00
Br1188 Br    0.86359   0.94721   0.84526   0.00000  Uiso   1.00
loop_
_geom_bond_atom_site_label_1
_geom_bond_atom_site_label_2
_geom_bond_distance
_geom_bond_site_symmetry_2
_ccdc_geom_bond_type
C1     C17     1.412   .     S
C1     O37     1.287   .     A
C1     O38     1.290   .     A
C2     C3      1.407   .     A
C2     C598    1.432   .     S
C2     C622    1.430   .     S
C3     C10     1.426   .     A
C3     C7      1.409   .     A
C4     C8      1.396   .     A
C4     C596    1.432   1_554 S
C4     C599    1.429   1_554 S
C5     C6      1.403   .     A
C5     C598    1.429   .     S
C5     C618    1.426   .     S
C6     C7      1.386   .     A
C6     Br55    1.927   .     S
C7     H34     1.066   .     S
C8     C25     1.382   .     A
C8     H33     1.080   .     S
C9     C24     1.390   .     A
C9     H29     1.080   .     S
C9     C25     1.390   .     A
C10    C26     1.422   .     A
C10    C12     1.500   .     S
C11    Br66    1.938   .     S
C11    C17     1.397   .     A
C11    C211    1.382   .     S
C12    O40     1.305   .     A
C12    O39     1.313   .     A
C13    C14     1.410   .     A
C13    Br47    1.913   .     S
C13    C407    1.382   1_545 S
C14    C22     1.430   .     S
C14    C15     1.395   .     A
C15    H30     1.079   .     S
C15    C412    1.373   1_545 S
C16    H31     1.084   .     S
C16    C17     1.392   .     A
C16    C213    1.373   .     S
C18    N36     1.367   .     A
C18    Br48    1.922   .     S
C18    C85     1.426   .     S
C19    C49     1.473   .     S
C19    N35     1.379   .     A
C19    C150    1.426   1_455 S
C20    C52     1.473   .     S
C20    N35     1.382   .     A
C20    C153    1.422   1_455 S
C21    H32     1.079   .     S
C21    N36     1.357   .     A
C21    C86     1.422   .     S
C22    O42     1.288   .     A
C22    O41     1.299   .     A
C23    C25     1.452   .     S
C23    O43     1.299   .     A
C23    O44     1.299   .     A
C24    C599    1.426   1_554 S
C24    Br650   1.925   1_554 S
C26    C57     1.479   .     S
C26    C621    1.414   .     S
C27    C28     1.417   .     A
C27    C63     1.498   .     S
C27    C620    1.414   1_554 S
C28    C60     1.482   .     S
C28    C596    1.430   1_554 S
N35    Zn45    2.029   .     S
N36    Zn46    2.029   .     S
O37    Zn45    2.008   .     S
O38    Zn46    1.989   .     S
O39    Zn45    1.973   .     S
O40    Zn46    1.915   .     S
O41    Zn45    1.989   .     S
O42    Zn46    2.008   .     S
O43    Zn45    1.915   .     S
O44    Zn46    1.973   .     S
C49    H50     1.079   .     S
C49    O51     1.221   .     D
C52    H53     1.073   .     S
C52    O54     1.222   .     D
Br56   C618    1.925   .     S
C57    H58     1.085   .     S
C57    O59     1.221   .     D
C60    O62     1.222   .     D
C60    H61     1.079   .     S
C63    H196    1.082   1_455 S
C63    O197    1.220   1_455 S
H64    C129    1.082   .     S
O65    C129    1.220   .     S
C67    C83     1.412   .     S
C67    O103    1.287   .     A
C67    O104    1.290   .     A
C68    C69     1.407   .     A
C68    C664    1.432   .     S
C68    C688    1.430   .     S
C69    C76     1.426   .     A
C69    C73     1.409   .     A
C70    C74     1.396   .     A
C70    C662    1.432   1_554 S
C70    C665    1.429   1_554 S
C71    C72     1.403   .     A
C71    C664    1.429   .     S
C71    C684    1.426   .     S
C72    C73     1.386   .     A
C72    Br121   1.927   .     S
C73    H100    1.066   .     S
C74    C91     1.382   .     A
C74    H99     1.080   .     S
C75    C90     1.390   .     A
C75    H95     1.080   .     S
C75    C91     1.390   .     A
C76    C92     1.422   .     A
C76    C78     1.500   .     S
C77    Br132   1.938   .     S
C77    C83     1.397   .     A
C77    C277    1.382   .     S
C78    O106    1.305   .     A
C78    O105    1.313   .     A
C79    C80     1.410   .     A
C79    Br113   1.913   .     S
C79    C473    1.382   1_545 S
C80    C88     1.430   .     S
C80    C81     1.395   .     A
C81    H96     1.079   .     S
C81    C478    1.373   1_545 S
C82    H97     1.084   .     S
C82    C83     1.392   .     A
C82    C279    1.373   .     S
C84    N102    1.367   .     A
C84    Br114   1.922   .     S
C84    C151    1.426   .     S
C85    C115    1.473   .     S
C85    N101    1.379   .     A
C86    C118    1.473   .     S
C86    N101    1.382   .     A
C87    H98     1.079   .     S
C87    N102    1.357   .     A
C87    C152    1.422   .     S
C88    O108    1.288   .     A
C88    O107    1.299   .     A
C89    C91     1.452   .     S
C89    O109    1.299   .     A
C89    O110    1.299   .     A
C90    C665    1.426   1_554 S
C90    Br716   1.925   1_554 S
C92    C123    1.479   .     S
C92    C687    1.414   .     S
C93    C94     1.417   .     A
C93    C129    1.498   .     S
C93    C686    1.414   1_554 S
C94    C126    1.482   .     S
C94    C662    1.430   1_554 S
N101   Zn111   2.029   .     S
N102   Zn112   2.029   .     S
O103   Zn111   2.008   .     S
O104   Zn112   1.989   .     S
O105   Zn111   1.973   .     S
O106   Zn112   1.915   .     S
O107   Zn111   1.989   .     S
O108   Zn112   2.008   .     S
O109   Zn111   1.915   .     S
O110   Zn112   1.973   .     S
C115   H116    1.079   .     S
C115   O117    1.221   .     D
C118   H119    1.073   .     S
C118   O120    1.222   .     D
Br122  C684    1.925   .     S
C123   H124    1.085   .     S
C123   O125    1.221   .     D
C126   O128    1.222   .     D
C126   H127    1.079   .     S
H130   C195    1.082   .     S
O131   C195    1.220   .     S
C133   C149    1.412   .     S
C133   O169    1.287   .     A
C133   O170    1.290   .     A
C134   C135    1.407   .     A
C134   C730    1.432   .     S
C134   C754    1.430   .     S
C135   C142    1.426   .     A
C135   C139    1.409   .     A
C136   C140    1.396   .     A
C136   C728    1.432   1_554 S
C136   C731    1.429   1_554 S
C137   C138    1.403   .     A
C137   C730    1.429   .     S
C137   C750    1.426   .     S
C138   C139    1.386   .     A
C138   Br187   1.927   .     S
C139   H166    1.066   .     S
C140   C157    1.382   .     A
C140   H165    1.080   .     S
C141   C156    1.390   .     A
C141   H161    1.080   .     S
C141   C157    1.390   .     A
C142   C158    1.422   .     A
C142   C144    1.500   .     S
C143   Br198   1.938   .     S
C143   C149    1.397   .     A
C143   C343    1.382   .     S
C144   O172    1.305   .     A
C144   O171    1.313   .     A
C145   C146    1.410   .     A
C145   Br179   1.913   .     S
C145   C539    1.382   1_545 S
C146   C154    1.430   .     S
C146   C147    1.395   .     A
C147   H162    1.079   .     S
C147   C544    1.373   1_545 S
C148   H163    1.084   .     S
C148   C149    1.392   .     A
C148   C345    1.373   .     S
C150   N168    1.367   .     A
C150   Br180   1.922   .     S
C150   C19     1.426   1_655 S
C151   C181    1.473   .     S
C151   N167    1.379   .     A
C152   C184    1.473   .     S
C152   N167    1.382   .     A
C153   H164    1.079   .     S
C153   N168    1.357   .     A
C153   C20     1.422   1_655 S
C154   O174    1.288   .     A
C154   O173    1.299   .     A
C155   C157    1.452   .     S
C155   O175    1.299   .     A
C155   O176    1.299   .     A
C156   C731    1.426   1_554 S
C156   Br782   1.925   1_554 S
C158   C189    1.479   .     S
C158   C753    1.414   .     S
C159   C160    1.417   .     A
C159   C195    1.498   .     S
C159   C752    1.414   1_554 S
C160   C192    1.482   .     S
C160   C728    1.430   1_554 S
N167   Zn177   2.029   .     S
N168   Zn178   2.029   .     S
O169   Zn177   2.008   .     S
O170   Zn178   1.989   .     S
O171   Zn177   1.973   .     S
O172   Zn178   1.915   .     S
O173   Zn177   1.989   .     S
O174   Zn178   2.008   .     S
O175   Zn177   1.915   .     S
O176   Zn178   1.973   .     S
C181   H182    1.079   .     S
C181   O183    1.221   .     D
C184   H185    1.073   .     S
C184   O186    1.222   .     D
Br188  C750    1.925   .     S
C189   H190    1.085   .     S
C189   O191    1.221   .     D
C192   O194    1.222   .     D
C192   H193    1.079   .     S
H196   C63     1.082   1_655 S
O197   C63     1.220   1_655 S
C199   C215    1.412   .     S
C199   O235    1.287   .     A
C199   O236    1.290   .     A
C200   C201    1.407   .     A
C200   C796    1.432   .     S
C200   C820    1.430   .     S
C201   C208    1.426   .     A
C201   C205    1.409   .     A
C202   C206    1.396   .     A
C202   C794    1.432   1_554 S
C202   C797    1.429   1_554 S
C203   C204    1.403   .     A
C203   C796    1.429   .     S
C203   C816    1.426   .     S
C204   C205    1.386   .     A
C204   Br253   1.927   .     S
C205   H232    1.066   .     S
C206   C223    1.382   .     A
C206   H231    1.080   .     S
C207   C222    1.390   .     A
C207   H227    1.080   .     S
C207   C223    1.390   .     A
C208   C224    1.422   .     A
C208   C210    1.500   .     S
C209   Br264   1.938   .     S
C209   C215    1.397   .     A
C209   C409    1.382   .     S
C210   O238    1.305   .     A
C210   O237    1.313   .     A
C211   C212    1.410   .     A
C211   Br245   1.913   .     S
C212   C220    1.430   .     S
C212   C213    1.395   .     A
C213   H228    1.079   .     S
C214   H229    1.084   .     S
C214   C215    1.392   .     A
C214   C411    1.373   .     S
C216   N234    1.367   .     A
C216   Br246   1.922   .     S
C216   C283    1.426   .     S
C217   C247    1.473   .     S
C217   N233    1.379   .     A
C217   C348    1.426   1_455 S
C218   C250    1.473   .     S
C218   N233    1.382   .     A
C218   C351    1.422   1_455 S
C219   H230    1.079   .     S
C219   N234    1.357   .     A
C219   C284    1.422   .     S
C220   O240    1.288   .     A
C220   O239    1.299   .     A
C221   C223    1.452   .     S
C221   O241    1.299   .     A
C221   O242    1.299   .     A
C222   C797    1.426   1_554 S
C222   Br848   1.925   1_554 S
C224   C255    1.479   .     S
C224   C819    1.414   .     S
C225   C226    1.417   .     A
C225   C261    1.498   .     S
C225   C818    1.414   1_554 S
C226   C258    1.482   .     S
C226   C794    1.430   1_554 S
N233   Zn243   2.029   .     S
N234   Zn244   2.029   .     S
O235   Zn243   2.008   .     S
O236   Zn244   1.989   .     S
O237   Zn243   1.973   .     S
O238   Zn244   1.915   .     S
O239   Zn243   1.989   .     S
O240   Zn244   2.008   .     S
O241   Zn243   1.915   .     S
O242   Zn244   1.973   .     S
C247   H248    1.079   .     S
C247   O249    1.221   .     D
C250   H251    1.073   .     S
C250   O252    1.222   .     D
Br254  C816    1.925   .     S
C255   H256    1.085   .     S
C255   O257    1.221   .     D
C258   O260    1.222   .     D
C258   H259    1.079   .     S
C261   H394    1.082   1_455 S
C261   O395    1.220   1_455 S
H262   C327    1.082   .     S
O263   C327    1.220   .     S
C265   C281    1.412   .     S
C265   O301    1.287   .     A
C265   O302    1.290   .     A
C266   C267    1.407   .     A
C266   C862    1.432   .     S
C266   C886    1.430   .     S
C267   C274    1.426   .     A
C267   C271    1.409   .     A
C268   C272    1.396   .     A
C268   C860    1.432   1_554 S
C268   C863    1.429   1_554 S
C269   C270    1.403   .     A
C269   C862    1.429   .     S
C269   C882    1.426   .     S
C270   C271    1.386   .     A
C270   Br319   1.927   .     S
C271   H298    1.066   .     S
C272   C289    1.382   .     A
C272   H297    1.080   .     S
C273   C288    1.390   .     A
C273   H293    1.080   .     S
C273   C289    1.390   .     A
C274   C290    1.422   .     A
C274   C276    1.500   .     S
C275   Br330   1.938   .     S
C275   C281    1.397   .     A
C275   C475    1.382   .     S
C276   O304    1.305   .     A
C276   O303    1.313   .     A
C277   C278    1.410   .     A
C277   Br311   1.913   .     S
C278   C286    1.430   .     S
C278   C279    1.395   .     A
C279   H294    1.079   .     S
C280   H295    1.084   .     S
C280   C281    1.392   .     A
C280   C477    1.373   .     S
C282   N300    1.367   .     A
C282   Br312   1.922   .     S
C282   C349    1.426   .     S
C283   C313    1.473   .     S
C283   N299    1.379   .     A
C284   C316    1.473   .     S
C284   N299    1.382   .     A
C285   H296    1.079   .     S
C285   N300    1.357   .     A
C285   C350    1.422   .     S
C286   O306    1.288   .     A
C286   O305    1.299   .     A
C287   C289    1.452   .     S
C287   O307    1.299   .     A
C287   O308    1.299   .     A
C288   C863    1.426   1_554 S
C288   Br914   1.925   1_554 S
C290   C321    1.479   .     S
C290   C885    1.414   .     S
C291   C292    1.417   .     A
C291   C327    1.498   .     S
C291   C884    1.414   1_554 S
C292   C324    1.482   .     S
C292   C860    1.430   1_554 S
N299   Zn309   2.029   .     S
N300   Zn310   2.029   .     S
O301   Zn309   2.008   .     S
O302   Zn310   1.989   .     S
O303   Zn309   1.973   .     S
O304   Zn310   1.915   .     S
O305   Zn309   1.989   .     S
O306   Zn310   2.008   .     S
O307   Zn309   1.915   .     S
O308   Zn310   1.973   .     S
C313   H314    1.079   .     S
C313   O315    1.221   .     D
C316   H317    1.073   .     S
C316   O318    1.222   .     D
Br320  C882    1.925   .     S
C321   H322    1.085   .     S
C321   O323    1.221   .     D
C324   O326    1.222   .     D
C324   H325    1.079   .     S
H328   C393    1.082   .     S
O329   C393    1.220   .     S
C331   C347    1.412   .     S
C331   O367    1.287   .     A
C331   O368    1.290   .     A
C332   C333    1.407   .     A
C332   C928    1.432   .     S
C332   C952    1.430   .     S
C333   C340    1.426   .     A
C333   C337    1.409   .     A
C334   C338    1.396   .     A
C334   C926    1.432   1_554 S
C334   C929    1.429   1_554 S
C335   C336    1.403   .     A
C335   C928    1.429   .     S
C335   C948    1.426   .     S
C336   C337    1.386   .     A
C336   Br385   1.927   .     S
C337   H364    1.066   .     S
C338   C355    1.382   .     A
C338   H363    1.080   .     S
C339   C354    1.390   .     A
C339   H359    1.080   .     S
C339   C355    1.390   .     A
C340   C356    1.422   .     A
C340   C342    1.500   .     S
C341   Br396   1.938   .     S
C341   C347    1.397   .     A
C341   C541    1.382   .     S
C342   O370    1.305   .     A
C342   O369    1.313   .     A
C343   C344    1.410   .     A
C343   Br377   1.913   .     S
C344   C352    1.430   .     S
C344   C345    1.395   .     A
C345   H360    1.079   .     S
C346   H361    1.084   .     S
C346   C347    1.392   .     A
C346   C543    1.373   .     S
C348   N366    1.367   .     A
C348   Br378   1.922   .     S
C348   C217    1.426   1_655 S
C349   C379    1.473   .     S
C349   N365    1.379   .     A
C350   C382    1.473   .     S
C350   N365    1.382   .     A
C351   H362    1.079   .     S
C351   N366    1.357   .     A
C351   C218    1.422   1_655 S
C352   O372    1.288   .     A
C352   O371    1.299   .     A
C353   C355    1.452   .     S
C353   O373    1.299   .     A
C353   O374    1.299   .     A
C354   C929    1.426   1_554 S
C354   Br980   1.925   1_554 S
C356   C387    1.479   .     S
C356   C951    1.414   .     S
C357   C358    1.417   .     A
C357   C393    1.498   .     S
C357   C950    1.414   1_554 S
C358   C390    1.482   .     S
C358   C926    1.430   1_554 S
N365   Zn375   2.029   .     S
N366   Zn376   2.029   .     S
O367   Zn375   2.008   .     S
O368   Zn376   1.989   .     S
O369   Zn375   1.973   .     S
O370   Zn376   1.915   .     S
O371   Zn375   1.989   .     S
O372   Zn376   2.008   .     S
O373   Zn375   1.915   .     S
O374   Zn376   1.973   .     S
C379   H380    1.079   .     S
C379   O381    1.221   .     D
C382   H383    1.073   .     S
C382   O384    1.222   .     D
Br386  C948    1.925   .     S
C387   H388    1.085   .     S
C387   O389    1.221   .     D
C390   O392    1.222   .     D
C390   H391    1.079   .     S
H394   C261    1.082   1_655 S
O395   C261    1.220   1_655 S
C397   C413    1.412   .     S
C397   O433    1.287   .     A
C397   O434    1.290   .     A
C398   C399    1.407   .     A
C398   C994    1.432   .     S
C398   C1018   1.430   .     S
C399   C406    1.426   .     A
C399   C403    1.409   .     A
C400   C404    1.396   .     A
C400   C992    1.432   1_554 S
C400   C995    1.429   1_554 S
C401   C402    1.403   .     A
C401   C994    1.429   .     S
C401   C1014   1.426   .     S
C402   C403    1.386   .     A
C402   Br451   1.927   .     S
C403   H430    1.066   .     S
C404   C421    1.382   .     A
C404   H429    1.080   .     S
C405   C420    1.390   .     A
C405   H425    1.080   .     S
C405   C421    1.390   .     A
C406   C422    1.422   .     A
C406   C408    1.500   .     S
C407   Br462   1.938   .     S
C407   C413    1.397   .     A
C407   C13     1.382   1_565 S
C408   O436    1.305   .     A
C408   O435    1.313   .     A
C409   C410    1.410   .     A
C409   Br443   1.913   .     S
C410   C418    1.430   .     S
C410   C411    1.395   .     A
C411   H426    1.079   .     S
C412   H427    1.084   .     S
C412   C413    1.392   .     A
C412   C15     1.373   1_565 S
C414   N432    1.367   .     A
C414   Br444   1.922   .     S
C414   C481    1.426   .     S
C415   C445    1.473   .     S
C415   N431    1.379   .     A
C415   C546    1.426   1_455 S
C416   C448    1.473   .     S
C416   N431    1.382   .     A
C416   C549    1.422   1_455 S
C417   H428    1.079   .     S
C417   N432    1.357   .     A
C417   C482    1.422   .     S
C418   O438    1.288   .     A
C418   O437    1.299   .     A
C419   C421    1.452   .     S
C419   O439    1.299   .     A
C419   O440    1.299   .     A
C420   C995    1.426   1_554 S
C420   Br1046  1.925   1_554 S
C422   C453    1.479   .     S
C422   C1017   1.414   .     S
C423   C424    1.417   .     A
C423   C459    1.498   .     S
C423   C1016   1.414   1_554 S
C424   C456    1.482   .     S
C424   C992    1.430   1_554 S
N431   Zn441   2.029   .     S
N432   Zn442   2.029   .     S
O433   Zn441   2.008   .     S
O434   Zn442   1.989   .     S
O435   Zn441   1.973   .     S
O436   Zn442   1.915   .     S
O437   Zn441   1.989   .     S
O438   Zn442   2.008   .     S
O439   Zn441   1.915   .     S
O440   Zn442   1.973   .     S
C445   H446    1.079   .     S
C445   O447    1.221   .     D
C448   H449    1.073   .     S
C448   O450    1.222   .     D
Br452  C1014   1.925   .     S
C453   H454    1.085   .     S
C453   O455    1.221   .     D
C456   O458    1.222   .     D
C456   H457    1.079   .     S
C459   H592    1.082   1_455 S
C459   O593    1.220   1_455 S
H460   C525    1.082   .     S
O461   C525    1.220   .     S
C463   C479    1.412   .     S
C463   O499    1.287   .     A
C463   O500    1.290   .     A
C464   C465    1.407   .     A
C464   C1060   1.432   .     S
C464   C1084   1.430   .     S
C465   C472    1.426   .     A
C465   C469    1.409   .     A
C466   C470    1.396   .     A
C466   C1058   1.432   1_554 S
C466   C1061   1.429   1_554 S
C467   C468    1.403   .     A
C467   C1060   1.429   .     S
C467   C1080   1.426   .     S
C468   C469    1.386   .     A
C468   Br517   1.927   .     S
C469   H496    1.066   .     S
C470   C487    1.382   .     A
C470   H495    1.080   .     S
C471   C486    1.390   .     A
C471   H491    1.080   .     S
C471   C487    1.390   .     A
C472   C488    1.422   .     A
C472   C474    1.500   .     S
C473   Br528   1.938   .     S
C473   C479    1.397   .     A
C473   C79     1.382   1_565 S
C474   O502    1.305   .     A
C474   O501    1.313   .     A
C475   C476    1.410   .     A
C475   Br509   1.913   .     S
C476   C484    1.430   .     S
C476   C477    1.395   .     A
C477   H492    1.079   .     S
C478   H493    1.084   .     S
C478   C479    1.392   .     A
C478   C81     1.373   1_565 S
C480   N498    1.367   .     A
C480   Br510   1.922   .     S
C480   C547    1.426   .     S
C481   C511    1.473   .     S
C481   N497    1.379   .     A
C482   C514    1.473   .     S
C482   N497    1.382   .     A
C483   H494    1.079   .     S
C483   N498    1.357   .     A
C483   C548    1.422   .     S
C484   O504    1.288   .     A
C484   O503    1.299   .     A
C485   C487    1.452   .     S
C485   O505    1.299   .     A
C485   O506    1.299   .     A
C486   C1061   1.426   1_554 S
C486   Br1112  1.925   1_554 S
C488   C519    1.479   .     S
C488   C1083   1.414   .     S
C489   C490    1.417   .     A
C489   C525    1.498   .     S
C489   C1082   1.414   1_554 S
C490   C522    1.482   .     S
C490   C1058   1.430   1_554 S
N497   Zn507   2.029   .     S
N498   Zn508   2.029   .     S
O499   Zn507   2.008   .     S
O500   Zn508   1.989   .     S
O501   Zn507   1.973   .     S
O502   Zn508   1.915   .     S
O503   Zn507   1.989   .     S
O504   Zn508   2.008   .     S
O505   Zn507   1.915   .     S
O506   Zn508   1.973   .     S
C511   H512    1.079   .     S
C511   O513    1.221   .     D
C514   H515    1.073   .     S
C514   O516    1.222   .     D
Br518  C1080   1.925   .     S
C519   H520    1.085   .     S
C519   O521    1.221   .     D
C522   O524    1.222   .     D
C522   H523    1.079   .     S
H526   C591    1.082   .     S
O527   C591    1.220   .     S
C529   C545    1.412   .     S
C529   O565    1.287   .     A
C529   O566    1.290   .     A
C530   C531    1.407   .     A
C530   C1126   1.432   .     S
C530   C1150   1.430   .     S
C531   C538    1.426   .     A
C531   C535    1.409   .     A
C532   C536    1.396   .     A
C532   C1124   1.432   1_554 S
C532   C1127   1.429   1_554 S
C533   C534    1.403   .     A
C533   C1126   1.429   .     S
C533   C1146   1.426   .     S
C534   C535    1.386   .     A
C534   Br583   1.927   .     S
C535   H562    1.066   .     S
C536   C553    1.382   .     A
C536   H561    1.080   .     S
C537   C552    1.390   .     A
C537   H557    1.080   .     S
C537   C553    1.390   .     A
C538   C554    1.422   .     A
C538   C540    1.500   .     S
C539   Br594   1.938   .     S
C539   C545    1.397   .     A
C539   C145    1.382   1_565 S
C540   O568    1.305   .     A
C540   O567    1.313   .     A
C541   C542    1.410   .     A
C541   Br575   1.913   .     S
C542   C550    1.430   .     S
C542   C543    1.395   .     A
C543   H558    1.079   .     S
C544   H559    1.084   .     S
C544   C545    1.392   .     A
C544   C147    1.373   1_565 S
C546   N564    1.367   .     A
C546   Br576   1.922   .     S
C546   C415    1.426   1_655 S
C547   C577    1.473   .     S
C547   N563    1.379   .     A
C548   C580    1.473   .     S
C548   N563    1.382   .     A
C549   H560    1.079   .     S
C549   N564    1.357   .     A
C549   C416    1.422   1_655 S
C550   O570    1.288   .     A
C550   O569    1.299   .     A
C551   C553    1.452   .     S
C551   O571    1.299   .     A
C551   O572    1.299   .     A
C552   C1127   1.426   1_554 S
C552   Br1178  1.925   1_554 S
C554   C585    1.479   .     S
C554   C1149   1.414   .     S
C555   C556    1.417   .     A
C555   C591    1.498   .     S
C555   C1148   1.414   1_554 S
C556   C588    1.482   .     S
C556   C1124   1.430   1_554 S
N563   Zn573   2.029   .     S
N564   Zn574   2.029   .     S
O565   Zn573   2.008   .     S
O566   Zn574   1.989   .     S
O567   Zn573   1.973   .     S
O568   Zn574   1.915   .     S
O569   Zn573   1.989   .     S
O570   Zn574   2.008   .     S
O571   Zn573   1.915   .     S
O572   Zn574   1.973   .     S
C577   H578    1.079   .     S
C577   O579    1.221   .     D
C580   H581    1.073   .     S
C580   O582    1.222   .     D
Br584  C1146   1.925   .     S
C585   H586    1.085   .     S
C585   O587    1.221   .     D
C588   O590    1.222   .     D
C588   H589    1.079   .     S
H592   C459    1.082   1_655 S
O593   C459    1.220   1_655 S
C595   C611    1.412   .     S
C595   O631    1.287   .     A
C595   O632    1.290   .     A
C596   C597    1.407   .     A
C596   C4      1.432   1_556 S
C596   C28     1.430   1_556 S
C597   C604    1.426   .     A
C597   C601    1.409   .     A
C598   C602    1.396   .     A
C599   C600    1.403   .     A
C599   C4      1.429   1_556 S
C599   C24     1.426   1_556 S
C600   C601    1.386   .     A
C600   Br649   1.927   .     S
C601   H628    1.066   .     S
C602   C619    1.382   .     A
C602   H627    1.080   .     S
C603   C618    1.390   .     A
C603   H623    1.080   .     S
C603   C619    1.390   .     A
C604   C620    1.422   .     A
C604   C606    1.500   .     S
C605   Br660   1.938   .     S
C605   C611    1.397   .     A
C605   C805    1.382   .     S
C606   O634    1.305   .     A
C606   O633    1.313   .     A
C607   C608    1.410   .     A
C607   Br641   1.913   .     S
C607   C1001   1.382   1_545 S
C608   C616    1.430   .     S
C608   C609    1.395   .     A
C609   H624    1.079   .     S
C609   C1006   1.373   1_545 S
C610   H625    1.084   .     S
C610   C611    1.392   .     A
C610   C807    1.373   .     S
C612   N630    1.367   .     A
C612   Br642   1.922   .     S
C612   C679    1.426   .     S
C613   C643    1.473   .     S
C613   N629    1.379   .     A
C613   C744    1.426   1_455 S
C614   C646    1.473   .     S
C614   N629    1.382   .     A
C614   C747    1.422   1_455 S
C615   H626    1.079   .     S
C615   N630    1.357   .     A
C615   C680    1.422   .     S
C616   O636    1.288   .     A
C616   O635    1.299   .     A
C617   C619    1.452   .     S
C617   O637    1.299   .     A
C617   O638    1.299   .     A
C620   C651    1.479   .     S
C620   C27     1.414   1_556 S
C621   C622    1.417   .     A
C621   C657    1.498   .     S
C622   C654    1.482   .     S
N629   Zn639   2.029   .     S
N630   Zn640   2.029   .     S
O631   Zn639   2.008   .     S
O632   Zn640   1.989   .     S
O633   Zn639   1.973   .     S
O634   Zn640   1.915   .     S
O635   Zn639   1.989   .     S
O636   Zn640   2.008   .     S
O637   Zn639   1.915   .     S
O638   Zn640   1.973   .     S
C643   H644    1.079   .     S
C643   O645    1.221   .     D
C646   H647    1.073   .     S
C646   O648    1.222   .     D
Br650  C24     1.925   1_556 S
C651   H652    1.085   .     S
C651   O653    1.221   .     D
C654   O656    1.222   .     D
C654   H655    1.079   .     S
C657   H790    1.082   1_455 S
C657   O791    1.220   1_455 S
H658   C723    1.082   .     S
O659   C723    1.220   .     S
C661   C677    1.412   .     S
C661   O697    1.287   .     A
C661   O698    1.290   .     A
C662   C663    1.407   .     A
C662   C70     1.432   1_556 S
C662   C94     1.430   1_556 S
C663   C670    1.426   .     A
C663   C667    1.409   .     A
C664   C668    1.396   .     A
C665   C666    1.403   .     A
C665   C70     1.429   1_556 S
C665   C90     1.426   1_556 S
C666   C667    1.386   .     A
C666   Br715   1.927   .     S
C667   H694    1.066   .     S
C668   C685    1.382   .     A
C668   H693    1.080   .     S
C669   C684    1.390   .     A
C669   H689    1.080   .     S
C669   C685    1.390   .     A
C670   C686    1.422   .     A
C670   C672    1.500   .     S
C671   Br726   1.938   .     S
C671   C677    1.397   .     A
C671   C871    1.382   .     S
C672   O700    1.305   .     A
C672   O699    1.313   .     A
C673   C674    1.410   .     A
C673   Br707   1.913   .     S
C673   C1067   1.382   1_545 S
C674   C682    1.430   .     S
C674   C675    1.395   .     A
C675   H690    1.079   .     S
C675   C1072   1.373   1_545 S
C676   H691    1.084   .     S
C676   C677    1.392   .     A
C676   C873    1.373   .     S
C678   N696    1.367   .     A
C678   Br708   1.922   .     S
C678   C745    1.426   .     S
C679   C709    1.473   .     S
C679   N695    1.379   .     A
C680   C712    1.473   .     S
C680   N695    1.382   .     A
C681   H692    1.079   .     S
C681   N696    1.357   .     A
C681   C746    1.422   .     S
C682   O702    1.288   .     A
C682   O701    1.299   .     A
C683   C685    1.452   .     S
C683   O703    1.299   .     A
C683   O704    1.299   .     A
C686   C717    1.479   .     S
C686   C93     1.414   1_556 S
C687   C688    1.417   .     A
C687   C723    1.498   .     S
C688   C720    1.482   .     S
N695   Zn705   2.029   .     S
N696   Zn706   2.029   .     S
O697   Zn705   2.008   .     S
O698   Zn706   1.989   .     S
O699   Zn705   1.973   .     S
O700   Zn706   1.915   .     S
O701   Zn705   1.989   .     S
O702   Zn706   2.008   .     S
O703   Zn705   1.915   .     S
O704   Zn706   1.973   .     S
C709   H710    1.079   .     S
C709   O711    1.221   .     D
C712   H713    1.073   .     S
C712   O714    1.222   .     D
Br716  C90     1.925   1_556 S
C717   H718    1.085   .     S
C717   O719    1.221   .     D
C720   O722    1.222   .     D
C720   H721    1.079   .     S
H724   C789    1.082   .     S
O725   C789    1.220   .     S
C727   C743    1.412   .     S
C727   O763    1.287   .     A
C727   O764    1.290   .     A
C728   C729    1.407   .     A
C728   C136    1.432   1_556 S
C728   C160    1.430   1_556 S
C729   C736    1.426   .     A
C729   C733    1.409   .     A
C730   C734    1.396   .     A
C731   C732    1.403   .     A
C731   C136    1.429   1_556 S
C731   C156    1.426   1_556 S
C732   C733    1.386   .     A
C732   Br781   1.927   .     S
C733   H760    1.066   .     S
C734   C751    1.382   .     A
C734   H759    1.080   .     S
C735   C750    1.390   .     A
C735   H755    1.080   .     S
C735   C751    1.390   .     A
C736   C752    1.422   .     A
C736   C738    1.500   .     S
C737   Br792   1.938   .     S
C737   C743    1.397   .     A
C737   C937    1.382   .     S
C738   O766    1.305   .     A
C738   O765    1.313   .     A
C739   C740    1.410   .     A
C739   Br773   1.913   .     S
C739   C1133   1.382   1_545 S
C740   C748    1.430   .     S
C740   C741    1.395   .     A
C741   H756    1.079   .     S
C741   C1138   1.373   1_545 S
C742   H757    1.084   .     S
C742   C743    1.392   .     A
C742   C939    1.373   .     S
C744   N762    1.367   .     A
C744   Br774   1.922   .     S
C744   C613    1.426   1_655 S
C745   C775    1.473   .     S
C745   N761    1.379   .     A
C746   C778    1.473   .     S
C746   N761    1.382   .     A
C747   H758    1.079   .     S
C747   N762    1.357   .     A
C747   C614    1.422   1_655 S
C748   O768    1.288   .     A
C748   O767    1.299   .     A
C749   C751    1.452   .     S
C749   O769    1.299   .     A
C749   O770    1.299   .     A
C752   C783    1.479   .     S
C752   C159    1.414   1_556 S
C753   C754    1.417   .     A
C753   C789    1.498   .     S
C754   C786    1.482   .     S
N761   Zn771   2.029   .     S
N762   Zn772   2.029   .     S
O763   Zn771   2.008   .     S
O764   Zn772   1.989   .     S
O765   Zn771   1.973   .     S
O766   Zn772   1.915   .     S
O767   Zn771   1.989   .     S
O768   Zn772   2.008   .     S
O769   Zn771   1.915   .     S
O770   Zn772   1.973   .     S
C775   H776    1.079   .     S
C775   O777    1.221   .     D
C778   H779    1.073   .     S
C778   O780    1.222   .     D
Br782  C156    1.925   1_556 S
C783   H784    1.085   .     S
C783   O785    1.221   .     D
C786   O788    1.222   .     D
C786   H787    1.079   .     S
H790   C657    1.082   1_655 S
O791   C657    1.220   1_655 S
C793   C809    1.412   .     S
C793   O829    1.287   .     A
C793   O830    1.290   .     A
C794   C795    1.407   .     A
C794   C202    1.432   1_556 S
C794   C226    1.430   1_556 S
C795   C802    1.426   .     A
C795   C799    1.409   .     A
C796   C800    1.396   .     A
C797   C798    1.403   .     A
C797   C202    1.429   1_556 S
C797   C222    1.426   1_556 S
C798   C799    1.386   .     A
C798   Br847   1.927   .     S
C799   H826    1.066   .     S
C800   C817    1.382   .     A
C800   H825    1.080   .     S
C801   C816    1.390   .     A
C801   H821    1.080   .     S
C801   C817    1.390   .     A
C802   C818    1.422   .     A
C802   C804    1.500   .     S
C803   Br858   1.938   .     S
C803   C809    1.397   .     A
C803   C1003   1.382   .     S
C804   O832    1.305   .     A
C804   O831    1.313   .     A
C805   C806    1.410   .     A
C805   Br839   1.913   .     S
C806   C814    1.430   .     S
C806   C807    1.395   .     A
C807   H822    1.079   .     S
C808   H823    1.084   .     S
C808   C809    1.392   .     A
C808   C1005   1.373   .     S
C810   N828    1.367   .     A
C810   Br840   1.922   .     S
C810   C877    1.426   .     S
C811   C841    1.473   .     S
C811   N827    1.379   .     A
C811   C942    1.426   1_455 S
C812   C844    1.473   .     S
C812   N827    1.382   .     A
C812   C945    1.422   1_455 S
C813   H824    1.079   .     S
C813   N828    1.357   .     A
C813   C878    1.422   .     S
C814   O834    1.288   .     A
C814   O833    1.299   .     A
C815   C817    1.452   .     S
C815   O835    1.299   .     A
C815   O836    1.299   .     A
C818   C849    1.479   .     S
C818   C225    1.414   1_556 S
C819   C820    1.417   .     A
C819   C855    1.498   .     S
C820   C852    1.482   .     S
N827   Zn837   2.029   .     S
N828   Zn838   2.029   .     S
O829   Zn837   2.008   .     S
O830   Zn838   1.989   .     S
O831   Zn837   1.973   .     S
O832   Zn838   1.915   .     S
O833   Zn837   1.989   .     S
O834   Zn838   2.008   .     S
O835   Zn837   1.915   .     S
O836   Zn838   1.973   .     S
C841   H842    1.079   .     S
C841   O843    1.221   .     D
C844   H845    1.073   .     S
C844   O846    1.222   .     D
Br848  C222    1.925   1_556 S
C849   H850    1.085   .     S
C849   O851    1.221   .     D
C852   O854    1.222   .     D
C852   H853    1.079   .     S
C855   H988    1.082   1_455 S
C855   O989    1.220   1_455 S
H856   C921    1.082   .     S
O857   C921    1.220   .     S
C859   C875    1.412   .     S
C859   O895    1.287   .     A
C859   O896    1.290   .     A
C860   C861    1.407   .     A
C860   C268    1.432   1_556 S
C860   C292    1.430   1_556 S
C861   C868    1.426   .     A
C861   C865    1.409   .     A
C862   C866    1.396   .     A
C863   C864    1.403   .     A
C863   C268    1.429   1_556 S
C863   C288    1.426   1_556 S
C864   C865    1.386   .     A
C864   Br913   1.927   .     S
C865   H892    1.066   .     S
C866   C883    1.382   .     A
C866   H891    1.080   .     S
C867   C882    1.390   .     A
C867   H887    1.080   .     S
C867   C883    1.390   .     A
C868   C884    1.422   .     A
C868   C870    1.500   .     S
C869   Br924   1.938   .     S
C869   C875    1.397   .     A
C869   C1069   1.382   .     S
C870   O898    1.305   .     A
C870   O897    1.313   .     A
C871   C872    1.410   .     A
C871   Br905   1.913   .     S
C872   C880    1.430   .     S
C872   C873    1.395   .     A
C873   H888    1.079   .     S
C874   H889    1.084   .     S
C874   C875    1.392   .     A
C874   C1071   1.373   .     S
C876   N894    1.367   .     A
C876   Br906   1.922   .     S
C876   C943    1.426   .     S
C877   C907    1.473   .     S
C877   N893    1.379   .     A
C878   C910    1.473   .     S
C878   N893    1.382   .     A
C879   H890    1.079   .     S
C879   N894    1.357   .     A
C879   C944    1.422   .     S
C880   O900    1.288   .     A
C880   O899    1.299   .     A
C881   C883    1.452   .     S
C881   O901    1.299   .     A
C881   O902    1.299   .     A
C884   C915    1.479   .     S
C884   C291    1.414   1_556 S
C885   C886    1.417   .     A
C885   C921    1.498   .     S
C886   C918    1.482   .     S
N893   Zn903   2.029   .     S
N894   Zn904   2.029   .     S
O895   Zn903   2.008   .     S
O896   Zn904   1.989   .     S
O897   Zn903   1.973   .     S
O898   Zn904   1.915   .     S
O899   Zn903   1.989   .     S
O900   Zn904   2.008   .     S
O901   Zn903   1.915   .     S
O902   Zn904   1.973   .     S
C907   H908    1.079   .     S
C907   O909    1.221   .     D
C910   H911    1.073   .     S
C910   O912    1.222   .     D
Br914  C288    1.925   1_556 S
C915   H916    1.085   .     S
C915   O917    1.221   .     D
C918   O920    1.222   .     D
C918   H919    1.079   .     S
H922   C987    1.082   .     S
O923   C987    1.220   .     S
C925   C941    1.412   .     S
C925   O961    1.287   .     A
C925   O962    1.290   .     A
C926   C927    1.407   .     A
C926   C334    1.432   1_556 S
C926   C358    1.430   1_556 S
C927   C934    1.426   .     A
C927   C931    1.409   .     A
C928   C932    1.396   .     A
C929   C930    1.403   .     A
C929   C334    1.429   1_556 S
C929   C354    1.426   1_556 S
C930   C931    1.386   .     A
C930   Br979   1.927   .     S
C931   H958    1.066   .     S
C932   C949    1.382   .     A
C932   H957    1.080   .     S
C933   C948    1.390   .     A
C933   H953    1.080   .     S
C933   C949    1.390   .     A
C934   C950    1.422   .     A
C934   C936    1.500   .     S
C935   Br990   1.938   .     S
C935   C941    1.397   .     A
C935   C1135   1.382   .     S
C936   O964    1.305   .     A
C936   O963    1.313   .     A
C937   C938    1.410   .     A
C937   Br971   1.913   .     S
C938   C946    1.430   .     S
C938   C939    1.395   .     A
C939   H954    1.079   .     S
C940   H955    1.084   .     S
C940   C941    1.392   .     A
C940   C1137   1.373   .     S
C942   N960    1.367   .     A
C942   Br972   1.922   .     S
C942   C811    1.426   1_655 S
C943   C973    1.473   .     S
C943   N959    1.379   .     A
C944   C976    1.473   .     S
C944   N959    1.382   .     A
C945   H956    1.079   .     S
C945   N960    1.357   .     A
C945   C812    1.422   1_655 S
C946   O966    1.288   .     A
C946   O965    1.299   .     A
C947   C949    1.452   .     S
C947   O967    1.299   .     A
C947   O968    1.299   .     A
C950   C981    1.479   .     S
C950   C357    1.414   1_556 S
C951   C952    1.417   .     A
C951   C987    1.498   .     S
C952   C984    1.482   .     S
N959   Zn969   2.029   .     S
N960   Zn970   2.029   .     S
O961   Zn969   2.008   .     S
O962   Zn970   1.989   .     S
O963   Zn969   1.973   .     S
O964   Zn970   1.915   .     S
O965   Zn969   1.989   .     S
O966   Zn970   2.008   .     S
O967   Zn969   1.915   .     S
O968   Zn970   1.973   .     S
C973   H974    1.079   .     S
C973   O975    1.221   .     D
C976   H977    1.073   .     S
C976   O978    1.222   .     D
Br980  C354    1.925   1_556 S
C981   H982    1.085   .     S
C981   O983    1.221   .     D
C984   O986    1.222   .     D
C984   H985    1.079   .     S
H988   C855    1.082   1_655 S
O989   C855    1.220   1_655 S
C991   C1007   1.412   .     S
C991   O1027   1.287   .     A
C991   O1028   1.290   .     A
C992   C993    1.407   .     A
C992   C400    1.432   1_556 S
C992   C424    1.430   1_556 S
C993   C1000   1.426   .     A
C993   C997    1.409   .     A
C994   C998    1.396   .     A
C995   C996    1.403   .     A
C995   C400    1.429   1_556 S
C995   C420    1.426   1_556 S
C996   C997    1.386   .     A
C996   Br1045  1.927   .     S
C997   H1024   1.066   .     S
C998   C1015   1.382   .     A
C998   H1023   1.080   .     S
C999   C1014   1.390   .     A
C999   H1019   1.080   .     S
C999   C1015   1.390   .     A
C1000  C1016   1.422   .     A
C1000  C1002   1.500   .     S
C1001  Br1056  1.938   .     S
C1001  C1007   1.397   .     A
C1001  C607    1.382   1_565 S
C1002  O1030   1.305   .     A
C1002  O1029   1.313   .     A
C1003  C1004   1.410   .     A
C1003  Br1037  1.913   .     S
C1004  C1012   1.430   .     S
C1004  C1005   1.395   .     A
C1005  H1020   1.079   .     S
C1006  H1021   1.084   .     S
C1006  C1007   1.392   .     A
C1006  C609    1.373   1_565 S
C1008  N1026   1.367   .     A
C1008  Br1038  1.922   .     S
C1008  C1075   1.426   .     S
C1009  C1039   1.473   .     S
C1009  N1025   1.379   .     A
C1009  C1140   1.426   1_455 S
C1010  C1042   1.473   .     S
C1010  N1025   1.382   .     A
C1010  C1143   1.422   1_455 S
C1011  H1022   1.079   .     S
C1011  N1026   1.357   .     A
C1011  C1076   1.422   .     S
C1012  O1032   1.288   .     A
C1012  O1031   1.299   .     A
C1013  C1015   1.452   .     S
C1013  O1033   1.299   .     A
C1013  O1034   1.299   .     A
C1016  C1047   1.479   .     S
C1016  C423    1.414   1_556 S
C1017  C1018   1.417   .     A
C1017  C1053   1.498   .     S
C1018  C1050   1.482   .     S
N1025  Zn1035  2.029   .     S
N1026  Zn1036  2.029   .     S
O1027  Zn1035  2.008   .     S
O1028  Zn1036  1.989   .     S
O1029  Zn1035  1.973   .     S
O1030  Zn1036  1.915   .     S
O1031  Zn1035  1.989   .     S
O1032  Zn1036  2.008   .     S
O1033  Zn1035  1.915   .     S
O1034  Zn1036  1.973   .     S
C1039  H1040   1.079   .     S
C1039  O1041   1.221   .     D
C1042  H1043   1.073   .     S
C1042  O1044   1.222   .     D
Br1046 C420    1.925   1_556 S
C1047  H1048   1.085   .     S
C1047  O1049   1.221   .     D
C1050  O1052   1.222   .     D
C1050  H1051   1.079   .     S
C1053  H1186   1.082   1_455 S
C1053  O1187   1.220   1_455 S
H1054  C1119   1.082   .     S
O1055  C1119   1.220   .     S
C1057  C1073   1.412   .     S
C1057  O1093   1.287   .     A
C1057  O1094   1.290   .     A
C1058  C1059   1.407   .     A
C1058  C466    1.432   1_556 S
C1058  C490    1.430   1_556 S
C1059  C1066   1.426   .     A
C1059  C1063   1.409   .     A
C1060  C1064   1.396   .     A
C1061  C1062   1.403   .     A
C1061  C466    1.429   1_556 S
C1061  C486    1.426   1_556 S
C1062  C1063   1.386   .     A
C1062  Br1111  1.927   .     S
C1063  H1090   1.066   .     S
C1064  C1081   1.382   .     A
C1064  H1089   1.080   .     S
C1065  C1080   1.390   .     A
C1065  H1085   1.080   .     S
C1065  C1081   1.390   .     A
C1066  C1082   1.422   .     A
C1066  C1068   1.500   .     S
C1067  Br1122  1.938   .     S
C1067  C1073   1.397   .     A
C1067  C673    1.382   1_565 S
C1068  O1096   1.305   .     A
C1068  O1095   1.313   .     A
C1069  C1070   1.410   .     A
C1069  Br1103  1.913   .     S
C1070  C1078   1.430   .     S
C1070  C1071   1.395   .     A
C1071  H1086   1.079   .     S
C1072  H1087   1.084   .     S
C1072  C1073   1.392   .     A
C1072  C675    1.373   1_565 S
C1074  N1092   1.367   .     A
C1074  Br1104  1.922   .     S
C1074  C1141   1.426   .     S
C1075  C1105   1.473   .     S
C1075  N1091   1.379   .     A
C1076  C1108   1.473   .     S
C1076  N1091   1.382   .     A
C1077  H1088   1.079   .     S
C1077  N1092   1.357   .     A
C1077  C1142   1.422   .     S
C1078  O1098   1.288   .     A
C1078  O1097   1.299   .     A
C1079  C1081   1.452   .     S
C1079  O1099   1.299   .     A
C1079  O1100   1.299   .     A
C1082  C1113   1.479   .     S
C1082  C489    1.414   1_556 S
C1083  C1084   1.417   .     A
C1083  C1119   1.498   .     S
C1084  C1116   1.482   .     S
N1091  Zn1101  2.029   .     S
N1092  Zn1102  2.029   .     S
O1093  Zn1101  2.008   .     S
O1094  Zn1102  1.989   .     S
O1095  Zn1101  1.973   .     S
O1096  Zn1102  1.915   .     S
O1097  Zn1101  1.989   .     S
O1098  Zn1102  2.008   .     S
O1099  Zn1101  1.915   .     S
O1100  Zn1102  1.973   .     S
C1105  H1106   1.079   .     S
C1105  O1107   1.221   .     D
C1108  H1109   1.073   .     S
C1108  O1110   1.222   .     D
Br1112 C486    1.925   1_556 S
C1113  H1114   1.085   .     S
C1113  O1115   1.221   .     D
C1116  O1118   1.222   .     D
C1116  H1117   1.079   .     S
H1120  C1185   1.082   .     S
O1121  C1185   1.220   .     S
C1123  C1139   1.412   .     S
C1123  O1159   1.287   .     A
C1123  O1160   1.290   .     A
C1124  C1125   1.407   .     A
C1124  C532    1.432   1_556 S
C1124  C556    1.430   1_556 S
C1125  C1132   1.426   .     A
C1125  C1129   1.409   .     A
C1126  C1130   1.396   .     A
C1127  C1128   1.403   .     A
C1127  C532    1.429   1_556 S
C1127  C552    1.426   1_556 S
C1128  C1129   1.386   .     A
C1128  Br1177  1.927   .     S
C1129  H1156   1.066   .     S
C1130  C1147   1.382   .     A
C1130  H1155   1.080   .     S
C1131  C1146   1.390   .     A
C1131  H1151   1.080   .     S
C1131  C1147   1.390   .     A
C1132  C1148   1.422   .     A
C1132  C1134   1.500   .     S
C1133  Br1188  1.938   .     S
C1133  C1139   1.397   .     A
C1133  C739    1.382   1_565 S
C1134  O1162   1.305   .     A
C1134  O1161   1.313   .     A
C1135  C1136   1.410   .     A
C1135  Br1169  1.913   .     S
C1136  C1144   1.430   .     S
C1136  C1137   1.395   .     A
C1137  H1152   1.079   .     S
C1138  H1153   1.084   .     S
C1138  C1139   1.392   .     A
C1138  C741    1.373   1_565 S
C1140  N1158   1.367   .     A
C1140  Br1170  1.922   .     S
C1140  C1009   1.426   1_655 S
C1141  C1171   1.473   .     S
C1141  N1157   1.379   .     A
C1142  C1174   1.473   .     S
C1142  N1157   1.382   .     A
C1143  H1154   1.079   .     S
C1143  N1158   1.357   .     A
C1143  C1010   1.422   1_655 S
C1144  O1164   1.288   .     A
C1144  O1163   1.299   .     A
C1145  C1147   1.452   .     S
C1145  O1165   1.299   .     A
C1145  O1166   1.299   .     A
C1148  C1179   1.479   .     S
C1148  C555    1.414   1_556 S
C1149  C1150   1.417   .     A
C1149  C1185   1.498   .     S
C1150  C1182   1.482   .     S
N1157  Zn1167  2.029   .     S
N1158  Zn1168  2.029   .     S
O1159  Zn1167  2.008   .     S
O1160  Zn1168  1.989   .     S
O1161  Zn1167  1.973   .     S
O1162  Zn1168  1.915   .     S
O1163  Zn1167  1.989   .     S
O1164  Zn1168  2.008   .     S
O1165  Zn1167  1.915   .     S
O1166  Zn1168  1.973   .     S
C1171  H1172   1.079   .     S
C1171  O1173   1.221   .     D
C1174  H1175   1.073   .     S
C1174  O1176   1.222   .     D
Br1178 C552    1.925   1_556 S
C1179  H1180   1.085   .     S
C1179  O1181   1.221   .     D
C1182  O1184   1.222   .     D
C1182  H1183   1.079   .     S
H1186  C1053   1.082   1_655 S
O1187  C1053   1.220   1_655 S
