data_str_m3_o10_o17_pcu_sym.90
_audit_creation_date              2020-01-03
_audit_creation_method            'Materials Studio'
_symmetry_space_group_name_H-M    'P1'
_symmetry_Int_Tables_number       1
_symmetry_cell_setting            triclinic
loop_
_symmetry_equiv_pos_as_xyz
  x,y,z
_cell_length_a                    23.4027
_cell_length_b                    25.8208
_cell_length_c                    29.7888
_cell_angle_alpha                 90.9257
_cell_angle_beta                  86.8722
_cell_angle_gamma                 92.5181
loop_
_atom_site_label
_atom_site_type_symbol
_atom_site_fract_x
_atom_site_fract_y
_atom_site_fract_z
_atom_site_U_iso_or_equiv
_atom_site_adp_type
_atom_site_occupancy
C1     C     0.18162   0.26478   0.24894   0.00000  Uiso   1.00
C2     C     0.20516   0.20424   0.40673   0.00000  Uiso   1.00
C3     C     0.16288   0.16543   0.11621   0.00000  Uiso   1.00
C4     C     0.17161   0.16704   0.38403   0.00000  Uiso   1.00
C5     C     0.19157   0.20538   0.09305   0.00000  Uiso   1.00
C6     C     0.14109   0.12703   0.40637   0.00000  Uiso   1.00
C7     C     0.19553   0.20389   0.04674   0.00000  Uiso   1.00
C8     C     0.14223   0.12312   0.45271   0.00000  Uiso   1.00
C9     C     0.16955   0.16176   0.02347   0.00000  Uiso   1.00
C10    C     0.17357   0.16125   0.47648   0.00000  Uiso   1.00
C11    C     0.13618   0.12275   0.04714   0.00000  Uiso   1.00
C12    C     0.15177   0.06858   0.25170   0.00000  Uiso   1.00
C13    C     0.20755   0.20025   0.45331   0.00000  Uiso   1.00
C14    C     0.22583   0.24369   0.02340   0.00000  Uiso   1.00
C15    C     0.11056   0.08311   0.47564   0.00000  Uiso   1.00
C16    C     0.13825   0.04804   0.13285   0.00000  Uiso   1.00
C17    C     0.27211   0.24785   0.35976   0.00000  Uiso   1.00
C18    C     0.20926   0.32879   0.03109   0.00000  Uiso   1.00
C19    C     0.11863   0.00833   0.43427   0.00000  Uiso   1.00
C20    C     0.00141   0.23387   0.45589   0.00000  Uiso   1.00
C21    C     0.04323   0.24806   0.49266   0.00000  Uiso   1.00
C22    C     0.03217   0.21683   0.03549   0.00000  Uiso   1.00
C23    C     0.23987   0.23682   0.47795   0.00000  Uiso   1.00
C24    C     0.00979   0.06166   0.03993   0.00000  Uiso   1.00
C25    C     0.31614   0.08576   0.08310   0.00000  Uiso   1.00
C26    C     0.30756   0.04680   0.12131   0.00000  Uiso   1.00
C27    C     0.10433   0.08501   0.02291   0.00000  Uiso   1.00
C28    C     0.18968   0.31904   0.24858   0.00000  Uiso   1.00
C29    C     0.14384   0.01433   0.25321   0.00000  Uiso   1.00
C30    C     0.16825   0.16856   0.33640   0.00000  Uiso   1.00
C31    C     0.16539   0.16633   0.16373   0.00000  Uiso   1.00
C32    C     0.13499   0.12391   0.09448   0.00000  Uiso   1.00
H33    H     0.21228   0.23684   0.11157   0.00000  Uiso   1.00
H34    H     0.26255   0.25369   0.32432   0.00000  Uiso   1.00
H35    H     0.29452   0.21090   0.36286   0.00000  Uiso   1.00
H36    H     0.30191   0.28044   0.36888   0.00000  Uiso   1.00
H37    H     0.21617   0.03019   0.05251   0.00000  Uiso   1.00
H38    H     0.16268   0.31781   0.03442   0.00000  Uiso   1.00
H39    H     0.22219   0.00690   0.49605   0.00000  Uiso   1.00
H40    H     0.15603   0.02595   0.41456   0.00000  Uiso   1.00
H41    H     0.09542   0.31516   0.41120   0.00000  Uiso   1.00
H42    H     0.13434   0.31807   0.46125   0.00000  Uiso   1.00
H43    H     0.02474   0.24210   0.42321   0.00000  Uiso   1.00
H44    H     0.11520   0.09978   0.38718   0.00000  Uiso   1.00
H45    H     0.32453   0.19118   0.45498   0.00000  Uiso   1.00
H46    H     0.08715   0.23975   0.47929   0.00000  Uiso   1.00
H47    H     0.04223   0.28999   0.00098   0.00000  Uiso   1.00
H48    H     0.32565   0.22763   0.05412   0.00000  Uiso   1.00
H49    H     0.06791   0.22470   0.05799   0.00000  Uiso   1.00
H50    H     0.02984   0.17491   0.02723   0.00000  Uiso   1.00
H51    H     0.31947   0.02516   0.03187   0.00000  Uiso   1.00
H52    H     0.00352   0.08775   0.01126   0.00000  Uiso   1.00
H53    H     0.00981   0.11952   0.09403   0.00000  Uiso   1.00
H54    H     0.27390   0.10089   0.07596   0.00000  Uiso   1.00
H55    H     0.23327   0.00198   0.24418   0.00000  Uiso   1.00
H56    H     0.27457   0.01642   0.11342   0.00000  Uiso   1.00
H57    H     0.29307   0.06720   0.15271   0.00000  Uiso   1.00
H58    H     0.01448   0.02754   0.12719   0.00000  Uiso   1.00
H59    H     0.10026   0.33139   0.25758   0.00000  Uiso   1.00
H60    H     0.00448   0.12707   0.21661   0.00000  Uiso   1.00
H61    H     0.32910   0.20673   0.28286   0.00000  Uiso   1.00
H62    H     0.11782   0.02943   0.16325   0.00000  Uiso   1.00
H63    H     0.18210   0.06214   0.14117   0.00000  Uiso   1.00
H64    H     0.14031   0.01757   0.10642   0.00000  Uiso   1.00
N65    N     0.31678   0.15265   0.23783   0.00000  Uiso   1.00
N66    N     0.01656   0.18068   0.26217   0.00000  Uiso   1.00
O67    O     0.12975   0.24619   0.25299   0.00000  Uiso   1.00
O68    O     0.22088   0.25125   0.38662   0.00000  Uiso   1.00
O69    O     0.24301   0.28876   0.04536   0.00000  Uiso   1.00
O70    O     0.08030   0.04509   0.45225   0.00000  Uiso   1.00
O71    O     0.28611   0.26523   0.45879   0.00000  Uiso   1.00
O72    O     0.06752   0.04951   0.04537   0.00000  Uiso   1.00
O73    O     0.20358   0.08714   0.24702   0.00000  Uiso   1.00
O74    O     0.22613   0.23721   0.24519   0.00000  Uiso   1.00
O75    O     0.10720   0.09613   0.25482   0.00000  Uiso   1.00
O76    O     0.11847   0.17117   0.31998   0.00000  Uiso   1.00
O77    O     0.21486   0.16216   0.18003   0.00000  Uiso   1.00
O78    O     0.21485   0.16219   0.31218   0.00000  Uiso   1.00
O79    O     0.11848   0.17115   0.18783   0.00000  Uiso   1.00
O80    O     0.10309   0.08766   0.12010   0.00000  Uiso   1.00
Zn81   Zn    0.10231   0.17266   0.25521   0.00000  Uiso   1.00
Zn82   Zn    0.23102   0.16067   0.24479   0.00000  Uiso   1.00
C83    C     0.51495   0.26478   0.24894   0.00000  Uiso   1.00
C84    C     0.53849   0.20424   0.40673   0.00000  Uiso   1.00
C85    C     0.49622   0.16543   0.11621   0.00000  Uiso   1.00
C86    C     0.50494   0.16704   0.38403   0.00000  Uiso   1.00
C87    C     0.52490   0.20538   0.09305   0.00000  Uiso   1.00
C88    C     0.47442   0.12703   0.40637   0.00000  Uiso   1.00
C89    C     0.52886   0.20389   0.04674   0.00000  Uiso   1.00
C90    C     0.47556   0.12312   0.45271   0.00000  Uiso   1.00
C91    C     0.50289   0.16176   0.02347   0.00000  Uiso   1.00
C92    C     0.50690   0.16125   0.47648   0.00000  Uiso   1.00
C93    C     0.46952   0.12275   0.04714   0.00000  Uiso   1.00
C94    C     0.48510   0.06858   0.25170   0.00000  Uiso   1.00
C95    C     0.54088   0.20025   0.45331   0.00000  Uiso   1.00
C96    C     0.55916   0.24369   0.02340   0.00000  Uiso   1.00
C97    C     0.44390   0.08311   0.47564   0.00000  Uiso   1.00
C98    C     0.47158   0.04804   0.13285   0.00000  Uiso   1.00
C99    C     0.60545   0.24785   0.35976   0.00000  Uiso   1.00
C100   C     0.54260   0.32879   0.03109   0.00000  Uiso   1.00
C101   C     0.45197   0.00833   0.43427   0.00000  Uiso   1.00
C102   C     0.33474   0.23387   0.45589   0.00000  Uiso   1.00
C103   C     0.37656   0.24806   0.49266   0.00000  Uiso   1.00
C104   C     0.36550   0.21683   0.03549   0.00000  Uiso   1.00
C105   C     0.57321   0.23682   0.47795   0.00000  Uiso   1.00
C106   C     0.34312   0.06166   0.03993   0.00000  Uiso   1.00
C107   C     0.64947   0.08576   0.08310   0.00000  Uiso   1.00
C108   C     0.64089   0.04680   0.12131   0.00000  Uiso   1.00
C109   C     0.43767   0.08501   0.02291   0.00000  Uiso   1.00
C110   C     0.52301   0.31904   0.24858   0.00000  Uiso   1.00
C111   C     0.47718   0.01433   0.25321   0.00000  Uiso   1.00
C112   C     0.50159   0.16856   0.33640   0.00000  Uiso   1.00
C113   C     0.49872   0.16633   0.16373   0.00000  Uiso   1.00
C114   C     0.46832   0.12391   0.09448   0.00000  Uiso   1.00
H115   H     0.54561   0.23684   0.11157   0.00000  Uiso   1.00
H116   H     0.59588   0.25369   0.32432   0.00000  Uiso   1.00
H117   H     0.62785   0.21090   0.36286   0.00000  Uiso   1.00
H118   H     0.63524   0.28044   0.36888   0.00000  Uiso   1.00
H119   H     0.54950   0.03019   0.05251   0.00000  Uiso   1.00
H120   H     0.49602   0.31781   0.03442   0.00000  Uiso   1.00
H121   H     0.55553   0.00690   0.49605   0.00000  Uiso   1.00
H122   H     0.48936   0.02595   0.41456   0.00000  Uiso   1.00
H123   H     0.42875   0.31516   0.41120   0.00000  Uiso   1.00
H124   H     0.46767   0.31807   0.46125   0.00000  Uiso   1.00
H125   H     0.35808   0.24210   0.42321   0.00000  Uiso   1.00
H126   H     0.44853   0.09978   0.38718   0.00000  Uiso   1.00
H127   H     0.65787   0.19118   0.45498   0.00000  Uiso   1.00
H128   H     0.42048   0.23975   0.47929   0.00000  Uiso   1.00
H129   H     0.37556   0.28999   0.00098   0.00000  Uiso   1.00
H130   H     0.65898   0.22763   0.05412   0.00000  Uiso   1.00
H131   H     0.40124   0.22470   0.05799   0.00000  Uiso   1.00
H132   H     0.36317   0.17491   0.02723   0.00000  Uiso   1.00
H133   H     0.65281   0.02516   0.03187   0.00000  Uiso   1.00
H134   H     0.33685   0.08775   0.01126   0.00000  Uiso   1.00
H135   H     0.34314   0.11952   0.09403   0.00000  Uiso   1.00
H136   H     0.60723   0.10089   0.07596   0.00000  Uiso   1.00
H137   H     0.56660   0.00198   0.24418   0.00000  Uiso   1.00
H138   H     0.60790   0.01642   0.11342   0.00000  Uiso   1.00
H139   H     0.62640   0.06720   0.15271   0.00000  Uiso   1.00
H140   H     0.34782   0.02754   0.12719   0.00000  Uiso   1.00
H141   H     0.43359   0.33139   0.25758   0.00000  Uiso   1.00
H142   H     0.33782   0.12707   0.21661   0.00000  Uiso   1.00
H143   H     0.66243   0.20673   0.28286   0.00000  Uiso   1.00
H144   H     0.45116   0.02943   0.16325   0.00000  Uiso   1.00
H145   H     0.51544   0.06214   0.14117   0.00000  Uiso   1.00
H146   H     0.47364   0.01757   0.10642   0.00000  Uiso   1.00
N147   N     0.65011   0.15265   0.23783   0.00000  Uiso   1.00
N148   N     0.34989   0.18068   0.26217   0.00000  Uiso   1.00
O149   O     0.46308   0.24619   0.25299   0.00000  Uiso   1.00
O150   O     0.55422   0.25125   0.38662   0.00000  Uiso   1.00
O151   O     0.57634   0.28876   0.04536   0.00000  Uiso   1.00
O152   O     0.41363   0.04509   0.45225   0.00000  Uiso   1.00
O153   O     0.61944   0.26523   0.45879   0.00000  Uiso   1.00
O154   O     0.40086   0.04951   0.04537   0.00000  Uiso   1.00
O155   O     0.53692   0.08714   0.24702   0.00000  Uiso   1.00
O156   O     0.55946   0.23721   0.24519   0.00000  Uiso   1.00
O157   O     0.44054   0.09613   0.25482   0.00000  Uiso   1.00
O158   O     0.45181   0.17117   0.31998   0.00000  Uiso   1.00
O159   O     0.54819   0.16216   0.18003   0.00000  Uiso   1.00
O160   O     0.54819   0.16219   0.31218   0.00000  Uiso   1.00
O161   O     0.45181   0.17115   0.18783   0.00000  Uiso   1.00
O162   O     0.43643   0.08766   0.12010   0.00000  Uiso   1.00
Zn163  Zn    0.43565   0.17266   0.25521   0.00000  Uiso   1.00
Zn164  Zn    0.56435   0.16067   0.24479   0.00000  Uiso   1.00
C165   C     0.84829   0.26478   0.24894   0.00000  Uiso   1.00
C166   C     0.87183   0.20424   0.40673   0.00000  Uiso   1.00
C167   C     0.82955   0.16543   0.11621   0.00000  Uiso   1.00
C168   C     0.83827   0.16704   0.38403   0.00000  Uiso   1.00
C169   C     0.85823   0.20538   0.09305   0.00000  Uiso   1.00
C170   C     0.80775   0.12703   0.40637   0.00000  Uiso   1.00
C171   C     0.86219   0.20389   0.04674   0.00000  Uiso   1.00
C172   C     0.80890   0.12312   0.45271   0.00000  Uiso   1.00
C173   C     0.83622   0.16176   0.02347   0.00000  Uiso   1.00
C174   C     0.84023   0.16125   0.47648   0.00000  Uiso   1.00
C175   C     0.80285   0.12275   0.04714   0.00000  Uiso   1.00
C176   C     0.81844   0.06858   0.25170   0.00000  Uiso   1.00
C177   C     0.87421   0.20025   0.45331   0.00000  Uiso   1.00
C178   C     0.89250   0.24369   0.02340   0.00000  Uiso   1.00
C179   C     0.77723   0.08311   0.47564   0.00000  Uiso   1.00
C180   C     0.80492   0.04804   0.13285   0.00000  Uiso   1.00
C181   C     0.93878   0.24785   0.35976   0.00000  Uiso   1.00
C182   C     0.87593   0.32879   0.03109   0.00000  Uiso   1.00
C183   C     0.78530   0.00833   0.43427   0.00000  Uiso   1.00
C184   C     0.66807   0.23387   0.45589   0.00000  Uiso   1.00
C185   C     0.70990   0.24806   0.49266   0.00000  Uiso   1.00
C186   C     0.69883   0.21683   0.03549   0.00000  Uiso   1.00
C187   C     0.90654   0.23682   0.47795   0.00000  Uiso   1.00
C188   C     0.67646   0.06166   0.03993   0.00000  Uiso   1.00
C189   C     0.98280   0.08576   0.08310   0.00000  Uiso   1.00
C190   C     0.97423   0.04680   0.12131   0.00000  Uiso   1.00
C191   C     0.77100   0.08501   0.02291   0.00000  Uiso   1.00
C192   C     0.85635   0.31904   0.24858   0.00000  Uiso   1.00
C193   C     0.81051   0.01433   0.25321   0.00000  Uiso   1.00
C194   C     0.83492   0.16856   0.33640   0.00000  Uiso   1.00
C195   C     0.83206   0.16633   0.16373   0.00000  Uiso   1.00
C196   C     0.80165   0.12391   0.09448   0.00000  Uiso   1.00
H197   H     0.87894   0.23684   0.11157   0.00000  Uiso   1.00
H198   H     0.92922   0.25369   0.32432   0.00000  Uiso   1.00
H199   H     0.96118   0.21090   0.36286   0.00000  Uiso   1.00
H200   H     0.96857   0.28044   0.36888   0.00000  Uiso   1.00
H201   H     0.88283   0.03019   0.05251   0.00000  Uiso   1.00
H202   H     0.82935   0.31781   0.03442   0.00000  Uiso   1.00
H203   H     0.88886   0.00690   0.49605   0.00000  Uiso   1.00
H204   H     0.82270   0.02595   0.41456   0.00000  Uiso   1.00
H205   H     0.76209   0.31516   0.41120   0.00000  Uiso   1.00
H206   H     0.80101   0.31807   0.46125   0.00000  Uiso   1.00
H207   H     0.69141   0.24210   0.42321   0.00000  Uiso   1.00
H208   H     0.78186   0.09978   0.38718   0.00000  Uiso   1.00
H209   H     0.99120   0.19118   0.45498   0.00000  Uiso   1.00
H210   H     0.75381   0.23975   0.47929   0.00000  Uiso   1.00
H211   H     0.70889   0.28999   0.00098   0.00000  Uiso   1.00
H212   H     0.99231   0.22763   0.05412   0.00000  Uiso   1.00
H213   H     0.73457   0.22470   0.05799   0.00000  Uiso   1.00
H214   H     0.69651   0.17491   0.02723   0.00000  Uiso   1.00
H215   H     0.98614   0.02516   0.03187   0.00000  Uiso   1.00
H216   H     0.67018   0.08775   0.01126   0.00000  Uiso   1.00
H217   H     0.67647   0.11952   0.09403   0.00000  Uiso   1.00
H218   H     0.94056   0.10089   0.07596   0.00000  Uiso   1.00
H219   H     0.89994   0.00198   0.24418   0.00000  Uiso   1.00
H220   H     0.94124   0.01642   0.11342   0.00000  Uiso   1.00
H221   H     0.95973   0.06720   0.15271   0.00000  Uiso   1.00
H222   H     0.68115   0.02754   0.12719   0.00000  Uiso   1.00
H223   H     0.76692   0.33139   0.25758   0.00000  Uiso   1.00
H224   H     0.67115   0.12707   0.21661   0.00000  Uiso   1.00
H225   H     0.99577   0.20673   0.28286   0.00000  Uiso   1.00
H226   H     0.78449   0.02943   0.16325   0.00000  Uiso   1.00
H227   H     0.84877   0.06214   0.14117   0.00000  Uiso   1.00
H228   H     0.80698   0.01757   0.10642   0.00000  Uiso   1.00
N229   N     0.98344   0.15265   0.23783   0.00000  Uiso   1.00
N230   N     0.68322   0.18068   0.26217   0.00000  Uiso   1.00
O231   O     0.79642   0.24619   0.25299   0.00000  Uiso   1.00
O232   O     0.88755   0.25125   0.38662   0.00000  Uiso   1.00
O233   O     0.90967   0.28876   0.04536   0.00000  Uiso   1.00
O234   O     0.74697   0.04509   0.45225   0.00000  Uiso   1.00
O235   O     0.95277   0.26523   0.45879   0.00000  Uiso   1.00
O236   O     0.73419   0.04951   0.04537   0.00000  Uiso   1.00
O237   O     0.87025   0.08714   0.24702   0.00000  Uiso   1.00
O238   O     0.89280   0.23721   0.24519   0.00000  Uiso   1.00
O239   O     0.77387   0.09613   0.25482   0.00000  Uiso   1.00
O240   O     0.78514   0.17117   0.31998   0.00000  Uiso   1.00
O241   O     0.88153   0.16216   0.18003   0.00000  Uiso   1.00
O242   O     0.88152   0.16219   0.31218   0.00000  Uiso   1.00
O243   O     0.78515   0.17115   0.18783   0.00000  Uiso   1.00
O244   O     0.76976   0.08766   0.12010   0.00000  Uiso   1.00
Zn245  Zn    0.76898   0.17266   0.25521   0.00000  Uiso   1.00
Zn246  Zn    0.89769   0.16067   0.24479   0.00000  Uiso   1.00
C247   C     0.18162   0.59811   0.24894   0.00000  Uiso   1.00
C248   C     0.20516   0.53758   0.40673   0.00000  Uiso   1.00
C249   C     0.16288   0.49877   0.11621   0.00000  Uiso   1.00
C250   C     0.17161   0.50037   0.38403   0.00000  Uiso   1.00
C251   C     0.19157   0.53872   0.09305   0.00000  Uiso   1.00
C252   C     0.14109   0.46037   0.40637   0.00000  Uiso   1.00
C253   C     0.19553   0.53722   0.04674   0.00000  Uiso   1.00
C254   C     0.14223   0.45646   0.45271   0.00000  Uiso   1.00
C255   C     0.16955   0.49509   0.02347   0.00000  Uiso   1.00
C256   C     0.17357   0.49459   0.47648   0.00000  Uiso   1.00
C257   C     0.13618   0.45609   0.04714   0.00000  Uiso   1.00
C258   C     0.15177   0.40191   0.25170   0.00000  Uiso   1.00
C259   C     0.20755   0.53358   0.45331   0.00000  Uiso   1.00
C260   C     0.22583   0.57703   0.02340   0.00000  Uiso   1.00
C261   C     0.11056   0.41644   0.47564   0.00000  Uiso   1.00
C262   C     0.13825   0.38137   0.13285   0.00000  Uiso   1.00
C263   C     0.27211   0.58119   0.35976   0.00000  Uiso   1.00
C264   C     0.20926   0.66213   0.03109   0.00000  Uiso   1.00
C265   C     0.11863   0.34166   0.43427   0.00000  Uiso   1.00
C266   C     0.00141   0.56721   0.45589   0.00000  Uiso   1.00
C267   C     0.04323   0.58139   0.49266   0.00000  Uiso   1.00
C268   C     0.03217   0.55016   0.03549   0.00000  Uiso   1.00
C269   C     0.23987   0.57015   0.47795   0.00000  Uiso   1.00
C270   C     0.00979   0.39499   0.03993   0.00000  Uiso   1.00
C271   C     0.31614   0.41910   0.08310   0.00000  Uiso   1.00
C272   C     0.30756   0.38014   0.12131   0.00000  Uiso   1.00
C273   C     0.10433   0.41834   0.02291   0.00000  Uiso   1.00
C274   C     0.18968   0.65238   0.24858   0.00000  Uiso   1.00
C275   C     0.14384   0.34767   0.25321   0.00000  Uiso   1.00
C276   C     0.16825   0.50190   0.33640   0.00000  Uiso   1.00
C277   C     0.16539   0.49966   0.16373   0.00000  Uiso   1.00
C278   C     0.13499   0.45724   0.09448   0.00000  Uiso   1.00
H279   H     0.21228   0.57017   0.11157   0.00000  Uiso   1.00
H280   H     0.26255   0.58703   0.32432   0.00000  Uiso   1.00
H281   H     0.29452   0.54423   0.36286   0.00000  Uiso   1.00
H282   H     0.30191   0.61377   0.36888   0.00000  Uiso   1.00
H283   H     0.21617   0.36352   0.05251   0.00000  Uiso   1.00
H284   H     0.16268   0.65114   0.03442   0.00000  Uiso   1.00
H285   H     0.22219   0.34023   0.49605   0.00000  Uiso   1.00
H286   H     0.15603   0.35928   0.41456   0.00000  Uiso   1.00
H287   H     0.09542   0.64850   0.41120   0.00000  Uiso   1.00
H288   H     0.13434   0.65140   0.46125   0.00000  Uiso   1.00
H289   H     0.02474   0.57543   0.42321   0.00000  Uiso   1.00
H290   H     0.11520   0.43312   0.38718   0.00000  Uiso   1.00
H291   H     0.32453   0.52451   0.45498   0.00000  Uiso   1.00
H292   H     0.08715   0.57309   0.47929   0.00000  Uiso   1.00
H293   H     0.04223   0.62332   0.00098   0.00000  Uiso   1.00
H294   H     0.32565   0.56096   0.05412   0.00000  Uiso   1.00
H295   H     0.06791   0.55803   0.05799   0.00000  Uiso   1.00
H296   H     0.02984   0.50824   0.02723   0.00000  Uiso   1.00
H297   H     0.31947   0.35850   0.03187   0.00000  Uiso   1.00
H298   H     0.00352   0.42108   0.01126   0.00000  Uiso   1.00
H299   H     0.00981   0.45285   0.09403   0.00000  Uiso   1.00
H300   H     0.27390   0.43422   0.07596   0.00000  Uiso   1.00
H301   H     0.23327   0.33531   0.24418   0.00000  Uiso   1.00
H302   H     0.27457   0.34976   0.11342   0.00000  Uiso   1.00
H303   H     0.29307   0.40053   0.15271   0.00000  Uiso   1.00
H304   H     0.01448   0.36088   0.12719   0.00000  Uiso   1.00
H305   H     0.10026   0.66473   0.25758   0.00000  Uiso   1.00
H306   H     0.00448   0.46040   0.21661   0.00000  Uiso   1.00
H307   H     0.32910   0.54006   0.28286   0.00000  Uiso   1.00
H308   H     0.11782   0.36277   0.16325   0.00000  Uiso   1.00
H309   H     0.18210   0.39547   0.14117   0.00000  Uiso   1.00
H310   H     0.14031   0.35090   0.10642   0.00000  Uiso   1.00
N311   N     0.31678   0.48598   0.23783   0.00000  Uiso   1.00
N312   N     0.01656   0.51402   0.26217   0.00000  Uiso   1.00
O313   O     0.12975   0.57952   0.25299   0.00000  Uiso   1.00
O314   O     0.22088   0.58458   0.38662   0.00000  Uiso   1.00
O315   O     0.24301   0.62209   0.04536   0.00000  Uiso   1.00
O316   O     0.08030   0.37842   0.45225   0.00000  Uiso   1.00
O317   O     0.28611   0.59856   0.45879   0.00000  Uiso   1.00
O318   O     0.06752   0.38285   0.04537   0.00000  Uiso   1.00
O319   O     0.20358   0.42048   0.24702   0.00000  Uiso   1.00
O320   O     0.22613   0.57054   0.24519   0.00000  Uiso   1.00
O321   O     0.10720   0.42946   0.25482   0.00000  Uiso   1.00
O322   O     0.11847   0.50450   0.31998   0.00000  Uiso   1.00
O323   O     0.21486   0.49550   0.18003   0.00000  Uiso   1.00
O324   O     0.21485   0.49552   0.31218   0.00000  Uiso   1.00
O325   O     0.11848   0.50448   0.18783   0.00000  Uiso   1.00
O326   O     0.10309   0.42099   0.12010   0.00000  Uiso   1.00
Zn327  Zn    0.10231   0.50600   0.25521   0.00000  Uiso   1.00
Zn328  Zn    0.23102   0.49400   0.24479   0.00000  Uiso   1.00
C329   C     0.51495   0.59811   0.24894   0.00000  Uiso   1.00
C330   C     0.53849   0.53758   0.40673   0.00000  Uiso   1.00
C331   C     0.49622   0.49877   0.11621   0.00000  Uiso   1.00
C332   C     0.50494   0.50037   0.38403   0.00000  Uiso   1.00
C333   C     0.52490   0.53872   0.09305   0.00000  Uiso   1.00
C334   C     0.47442   0.46037   0.40637   0.00000  Uiso   1.00
C335   C     0.52886   0.53722   0.04674   0.00000  Uiso   1.00
C336   C     0.47556   0.45646   0.45271   0.00000  Uiso   1.00
C337   C     0.50289   0.49509   0.02347   0.00000  Uiso   1.00
C338   C     0.50690   0.49459   0.47648   0.00000  Uiso   1.00
C339   C     0.46952   0.45609   0.04714   0.00000  Uiso   1.00
C340   C     0.48510   0.40191   0.25170   0.00000  Uiso   1.00
C341   C     0.54088   0.53358   0.45331   0.00000  Uiso   1.00
C342   C     0.55916   0.57703   0.02340   0.00000  Uiso   1.00
C343   C     0.44390   0.41644   0.47564   0.00000  Uiso   1.00
C344   C     0.47158   0.38137   0.13285   0.00000  Uiso   1.00
C345   C     0.60545   0.58119   0.35976   0.00000  Uiso   1.00
C346   C     0.54260   0.66213   0.03109   0.00000  Uiso   1.00
C347   C     0.45197   0.34166   0.43427   0.00000  Uiso   1.00
C348   C     0.33474   0.56721   0.45589   0.00000  Uiso   1.00
C349   C     0.37656   0.58139   0.49266   0.00000  Uiso   1.00
C350   C     0.36550   0.55016   0.03549   0.00000  Uiso   1.00
C351   C     0.57321   0.57015   0.47795   0.00000  Uiso   1.00
C352   C     0.34312   0.39499   0.03993   0.00000  Uiso   1.00
C353   C     0.64947   0.41910   0.08310   0.00000  Uiso   1.00
C354   C     0.64089   0.38014   0.12131   0.00000  Uiso   1.00
C355   C     0.43767   0.41834   0.02291   0.00000  Uiso   1.00
C356   C     0.52301   0.65238   0.24858   0.00000  Uiso   1.00
C357   C     0.47718   0.34767   0.25321   0.00000  Uiso   1.00
C358   C     0.50159   0.50190   0.33640   0.00000  Uiso   1.00
C359   C     0.49872   0.49966   0.16373   0.00000  Uiso   1.00
C360   C     0.46832   0.45724   0.09448   0.00000  Uiso   1.00
H361   H     0.54561   0.57017   0.11157   0.00000  Uiso   1.00
H362   H     0.59588   0.58703   0.32432   0.00000  Uiso   1.00
H363   H     0.62785   0.54423   0.36286   0.00000  Uiso   1.00
H364   H     0.63524   0.61377   0.36888   0.00000  Uiso   1.00
H365   H     0.54950   0.36352   0.05251   0.00000  Uiso   1.00
H366   H     0.49602   0.65114   0.03442   0.00000  Uiso   1.00
H367   H     0.55553   0.34023   0.49605   0.00000  Uiso   1.00
H368   H     0.48936   0.35928   0.41456   0.00000  Uiso   1.00
H369   H     0.42875   0.64850   0.41120   0.00000  Uiso   1.00
H370   H     0.46767   0.65140   0.46125   0.00000  Uiso   1.00
H371   H     0.35808   0.57543   0.42321   0.00000  Uiso   1.00
H372   H     0.44853   0.43312   0.38718   0.00000  Uiso   1.00
H373   H     0.65787   0.52451   0.45498   0.00000  Uiso   1.00
H374   H     0.42048   0.57309   0.47929   0.00000  Uiso   1.00
H375   H     0.37556   0.62332   0.00098   0.00000  Uiso   1.00
H376   H     0.65898   0.56096   0.05412   0.00000  Uiso   1.00
H377   H     0.40124   0.55803   0.05799   0.00000  Uiso   1.00
H378   H     0.36317   0.50824   0.02723   0.00000  Uiso   1.00
H379   H     0.65281   0.35850   0.03187   0.00000  Uiso   1.00
H380   H     0.33685   0.42108   0.01126   0.00000  Uiso   1.00
H381   H     0.34314   0.45285   0.09403   0.00000  Uiso   1.00
H382   H     0.60723   0.43422   0.07596   0.00000  Uiso   1.00
H383   H     0.56660   0.33531   0.24418   0.00000  Uiso   1.00
H384   H     0.60790   0.34976   0.11342   0.00000  Uiso   1.00
H385   H     0.62640   0.40053   0.15271   0.00000  Uiso   1.00
H386   H     0.34782   0.36088   0.12719   0.00000  Uiso   1.00
H387   H     0.43359   0.66473   0.25758   0.00000  Uiso   1.00
H388   H     0.33782   0.46040   0.21661   0.00000  Uiso   1.00
H389   H     0.66243   0.54006   0.28286   0.00000  Uiso   1.00
H390   H     0.45116   0.36277   0.16325   0.00000  Uiso   1.00
H391   H     0.51544   0.39547   0.14117   0.00000  Uiso   1.00
H392   H     0.47364   0.35090   0.10642   0.00000  Uiso   1.00
N393   N     0.65011   0.48598   0.23783   0.00000  Uiso   1.00
N394   N     0.34989   0.51402   0.26217   0.00000  Uiso   1.00
O395   O     0.46308   0.57952   0.25299   0.00000  Uiso   1.00
O396   O     0.55422   0.58458   0.38662   0.00000  Uiso   1.00
O397   O     0.57634   0.62209   0.04536   0.00000  Uiso   1.00
O398   O     0.41363   0.37842   0.45225   0.00000  Uiso   1.00
O399   O     0.61944   0.59856   0.45879   0.00000  Uiso   1.00
O400   O     0.40086   0.38285   0.04537   0.00000  Uiso   1.00
O401   O     0.53692   0.42048   0.24702   0.00000  Uiso   1.00
O402   O     0.55946   0.57054   0.24519   0.00000  Uiso   1.00
O403   O     0.44054   0.42946   0.25482   0.00000  Uiso   1.00
O404   O     0.45181   0.50450   0.31998   0.00000  Uiso   1.00
O405   O     0.54819   0.49550   0.18003   0.00000  Uiso   1.00
O406   O     0.54819   0.49552   0.31218   0.00000  Uiso   1.00
O407   O     0.45181   0.50448   0.18783   0.00000  Uiso   1.00
O408   O     0.43643   0.42099   0.12010   0.00000  Uiso   1.00
Zn409  Zn    0.43565   0.50600   0.25521   0.00000  Uiso   1.00
Zn410  Zn    0.56435   0.49400   0.24479   0.00000  Uiso   1.00
C411   C     0.84829   0.59811   0.24894   0.00000  Uiso   1.00
C412   C     0.87183   0.53758   0.40673   0.00000  Uiso   1.00
C413   C     0.82955   0.49877   0.11621   0.00000  Uiso   1.00
C414   C     0.83827   0.50037   0.38403   0.00000  Uiso   1.00
C415   C     0.85823   0.53872   0.09305   0.00000  Uiso   1.00
C416   C     0.80775   0.46037   0.40637   0.00000  Uiso   1.00
C417   C     0.86219   0.53722   0.04674   0.00000  Uiso   1.00
C418   C     0.80890   0.45646   0.45271   0.00000  Uiso   1.00
C419   C     0.83622   0.49509   0.02347   0.00000  Uiso   1.00
C420   C     0.84023   0.49459   0.47648   0.00000  Uiso   1.00
C421   C     0.80285   0.45609   0.04714   0.00000  Uiso   1.00
C422   C     0.81844   0.40191   0.25170   0.00000  Uiso   1.00
C423   C     0.87421   0.53358   0.45331   0.00000  Uiso   1.00
C424   C     0.89250   0.57703   0.02340   0.00000  Uiso   1.00
C425   C     0.77723   0.41644   0.47564   0.00000  Uiso   1.00
C426   C     0.80492   0.38137   0.13285   0.00000  Uiso   1.00
C427   C     0.93878   0.58119   0.35976   0.00000  Uiso   1.00
C428   C     0.87593   0.66213   0.03109   0.00000  Uiso   1.00
C429   C     0.78530   0.34166   0.43427   0.00000  Uiso   1.00
C430   C     0.66807   0.56721   0.45589   0.00000  Uiso   1.00
C431   C     0.70990   0.58139   0.49266   0.00000  Uiso   1.00
C432   C     0.69883   0.55016   0.03549   0.00000  Uiso   1.00
C433   C     0.90654   0.57015   0.47795   0.00000  Uiso   1.00
C434   C     0.67646   0.39499   0.03993   0.00000  Uiso   1.00
C435   C     0.98280   0.41910   0.08310   0.00000  Uiso   1.00
C436   C     0.97423   0.38014   0.12131   0.00000  Uiso   1.00
C437   C     0.77100   0.41834   0.02291   0.00000  Uiso   1.00
C438   C     0.85635   0.65238   0.24858   0.00000  Uiso   1.00
C439   C     0.81051   0.34767   0.25321   0.00000  Uiso   1.00
C440   C     0.83492   0.50190   0.33640   0.00000  Uiso   1.00
C441   C     0.83206   0.49966   0.16373   0.00000  Uiso   1.00
C442   C     0.80165   0.45724   0.09448   0.00000  Uiso   1.00
H443   H     0.87894   0.57017   0.11157   0.00000  Uiso   1.00
H444   H     0.92922   0.58703   0.32432   0.00000  Uiso   1.00
H445   H     0.96118   0.54423   0.36286   0.00000  Uiso   1.00
H446   H     0.96857   0.61377   0.36888   0.00000  Uiso   1.00
H447   H     0.88283   0.36352   0.05251   0.00000  Uiso   1.00
H448   H     0.82935   0.65114   0.03442   0.00000  Uiso   1.00
H449   H     0.88886   0.34023   0.49605   0.00000  Uiso   1.00
H450   H     0.82270   0.35928   0.41456   0.00000  Uiso   1.00
H451   H     0.76209   0.64850   0.41120   0.00000  Uiso   1.00
H452   H     0.80101   0.65140   0.46125   0.00000  Uiso   1.00
H453   H     0.69141   0.57543   0.42321   0.00000  Uiso   1.00
H454   H     0.78186   0.43312   0.38718   0.00000  Uiso   1.00
H455   H     0.99120   0.52451   0.45498   0.00000  Uiso   1.00
H456   H     0.75381   0.57309   0.47929   0.00000  Uiso   1.00
H457   H     0.70889   0.62332   0.00098   0.00000  Uiso   1.00
H458   H     0.99231   0.56096   0.05412   0.00000  Uiso   1.00
H459   H     0.73457   0.55803   0.05799   0.00000  Uiso   1.00
H460   H     0.69651   0.50824   0.02723   0.00000  Uiso   1.00
H461   H     0.98614   0.35850   0.03187   0.00000  Uiso   1.00
H462   H     0.67018   0.42108   0.01126   0.00000  Uiso   1.00
H463   H     0.67647   0.45285   0.09403   0.00000  Uiso   1.00
H464   H     0.94056   0.43422   0.07596   0.00000  Uiso   1.00
H465   H     0.89994   0.33531   0.24418   0.00000  Uiso   1.00
H466   H     0.94124   0.34976   0.11342   0.00000  Uiso   1.00
H467   H     0.95973   0.40053   0.15271   0.00000  Uiso   1.00
H468   H     0.68115   0.36088   0.12719   0.00000  Uiso   1.00
H469   H     0.76692   0.66473   0.25758   0.00000  Uiso   1.00
H470   H     0.67115   0.46040   0.21661   0.00000  Uiso   1.00
H471   H     0.99577   0.54006   0.28286   0.00000  Uiso   1.00
H472   H     0.78449   0.36277   0.16325   0.00000  Uiso   1.00
H473   H     0.84877   0.39547   0.14117   0.00000  Uiso   1.00
H474   H     0.80698   0.35090   0.10642   0.00000  Uiso   1.00
N475   N     0.98344   0.48598   0.23783   0.00000  Uiso   1.00
N476   N     0.68322   0.51402   0.26217   0.00000  Uiso   1.00
O477   O     0.79642   0.57952   0.25299   0.00000  Uiso   1.00
O478   O     0.88755   0.58458   0.38662   0.00000  Uiso   1.00
O479   O     0.90967   0.62209   0.04536   0.00000  Uiso   1.00
O480   O     0.74697   0.37842   0.45225   0.00000  Uiso   1.00
O481   O     0.95277   0.59856   0.45879   0.00000  Uiso   1.00
O482   O     0.73419   0.38285   0.04537   0.00000  Uiso   1.00
O483   O     0.87025   0.42048   0.24702   0.00000  Uiso   1.00
O484   O     0.89280   0.57054   0.24519   0.00000  Uiso   1.00
O485   O     0.77387   0.42946   0.25482   0.00000  Uiso   1.00
O486   O     0.78514   0.50450   0.31998   0.00000  Uiso   1.00
O487   O     0.88153   0.49550   0.18003   0.00000  Uiso   1.00
O488   O     0.88152   0.49552   0.31218   0.00000  Uiso   1.00
O489   O     0.78515   0.50448   0.18783   0.00000  Uiso   1.00
O490   O     0.76976   0.42099   0.12010   0.00000  Uiso   1.00
Zn491  Zn    0.76898   0.50600   0.25521   0.00000  Uiso   1.00
Zn492  Zn    0.89769   0.49400   0.24479   0.00000  Uiso   1.00
C493   C     0.18162   0.93144   0.24894   0.00000  Uiso   1.00
C494   C     0.20516   0.87091   0.40673   0.00000  Uiso   1.00
C495   C     0.16288   0.83210   0.11621   0.00000  Uiso   1.00
C496   C     0.17161   0.83371   0.38403   0.00000  Uiso   1.00
C497   C     0.19157   0.87205   0.09305   0.00000  Uiso   1.00
C498   C     0.14109   0.79370   0.40637   0.00000  Uiso   1.00
C499   C     0.19553   0.87056   0.04674   0.00000  Uiso   1.00
C500   C     0.14223   0.78979   0.45271   0.00000  Uiso   1.00
C501   C     0.16955   0.82842   0.02347   0.00000  Uiso   1.00
C502   C     0.17357   0.82792   0.47648   0.00000  Uiso   1.00
C503   C     0.13618   0.78942   0.04714   0.00000  Uiso   1.00
C504   C     0.15177   0.73525   0.25170   0.00000  Uiso   1.00
C505   C     0.20755   0.86692   0.45331   0.00000  Uiso   1.00
C506   C     0.22583   0.91036   0.02340   0.00000  Uiso   1.00
C507   C     0.11056   0.74977   0.47564   0.00000  Uiso   1.00
C508   C     0.13825   0.71470   0.13285   0.00000  Uiso   1.00
C509   C     0.27211   0.91452   0.35976   0.00000  Uiso   1.00
C510   C     0.20926   0.99546   0.03109   0.00000  Uiso   1.00
C511   C     0.11863   0.67499   0.43427   0.00000  Uiso   1.00
C512   C     0.00141   0.90054   0.45589   0.00000  Uiso   1.00
C513   C     0.04323   0.91473   0.49266   0.00000  Uiso   1.00
C514   C     0.03217   0.88349   0.03549   0.00000  Uiso   1.00
C515   C     0.23987   0.90349   0.47795   0.00000  Uiso   1.00
C516   C     0.00979   0.72833   0.03993   0.00000  Uiso   1.00
C517   C     0.31614   0.75243   0.08310   0.00000  Uiso   1.00
C518   C     0.30756   0.71347   0.12131   0.00000  Uiso   1.00
C519   C     0.10433   0.75167   0.02291   0.00000  Uiso   1.00
C520   C     0.18968   0.98571   0.24858   0.00000  Uiso   1.00
C521   C     0.14384   0.68100   0.25321   0.00000  Uiso   1.00
C522   C     0.16825   0.83523   0.33640   0.00000  Uiso   1.00
C523   C     0.16539   0.83300   0.16373   0.00000  Uiso   1.00
C524   C     0.13499   0.79058   0.09448   0.00000  Uiso   1.00
H525   H     0.21228   0.90351   0.11157   0.00000  Uiso   1.00
H526   H     0.26255   0.92036   0.32432   0.00000  Uiso   1.00
H527   H     0.29452   0.87757   0.36286   0.00000  Uiso   1.00
H528   H     0.30191   0.94710   0.36888   0.00000  Uiso   1.00
H529   H     0.21617   0.69685   0.05251   0.00000  Uiso   1.00
H530   H     0.16268   0.98447   0.03442   0.00000  Uiso   1.00
H531   H     0.22219   0.67356   0.49605   0.00000  Uiso   1.00
H532   H     0.15603   0.69261   0.41456   0.00000  Uiso   1.00
H533   H     0.09542   0.98183   0.41120   0.00000  Uiso   1.00
H534   H     0.13434   0.98474   0.46125   0.00000  Uiso   1.00
H535   H     0.02474   0.90877   0.42321   0.00000  Uiso   1.00
H536   H     0.11520   0.76645   0.38718   0.00000  Uiso   1.00
H537   H     0.32453   0.85784   0.45498   0.00000  Uiso   1.00
H538   H     0.08715   0.90642   0.47929   0.00000  Uiso   1.00
H539   H     0.04223   0.95665   0.00098   0.00000  Uiso   1.00
H540   H     0.32565   0.89430   0.05412   0.00000  Uiso   1.00
H541   H     0.06791   0.89137   0.05799   0.00000  Uiso   1.00
H542   H     0.02984   0.84158   0.02723   0.00000  Uiso   1.00
H543   H     0.31947   0.69183   0.03187   0.00000  Uiso   1.00
H544   H     0.00352   0.75442   0.01126   0.00000  Uiso   1.00
H545   H     0.00981   0.78619   0.09403   0.00000  Uiso   1.00
H546   H     0.27390   0.76755   0.07596   0.00000  Uiso   1.00
H547   H     0.23327   0.66864   0.24418   0.00000  Uiso   1.00
H548   H     0.27457   0.68309   0.11342   0.00000  Uiso   1.00
H549   H     0.29307   0.73386   0.15271   0.00000  Uiso   1.00
H550   H     0.01448   0.69421   0.12719   0.00000  Uiso   1.00
H551   H     0.10026   0.99806   0.25758   0.00000  Uiso   1.00
H552   H     0.00448   0.79373   0.21661   0.00000  Uiso   1.00
H553   H     0.32910   0.87340   0.28286   0.00000  Uiso   1.00
H554   H     0.11782   0.69610   0.16325   0.00000  Uiso   1.00
H555   H     0.18210   0.72880   0.14117   0.00000  Uiso   1.00
H556   H     0.14031   0.68424   0.10642   0.00000  Uiso   1.00
N557   N     0.31678   0.81932   0.23783   0.00000  Uiso   1.00
N558   N     0.01656   0.84735   0.26217   0.00000  Uiso   1.00
O559   O     0.12975   0.91286   0.25299   0.00000  Uiso   1.00
O560   O     0.22088   0.91791   0.38662   0.00000  Uiso   1.00
O561   O     0.24301   0.95543   0.04536   0.00000  Uiso   1.00
O562   O     0.08030   0.71175   0.45225   0.00000  Uiso   1.00
O563   O     0.28611   0.93190   0.45879   0.00000  Uiso   1.00
O564   O     0.06752   0.71618   0.04537   0.00000  Uiso   1.00
O565   O     0.20358   0.75381   0.24702   0.00000  Uiso   1.00
O566   O     0.22613   0.90387   0.24519   0.00000  Uiso   1.00
O567   O     0.10720   0.76279   0.25482   0.00000  Uiso   1.00
O568   O     0.11847   0.83784   0.31998   0.00000  Uiso   1.00
O569   O     0.21486   0.82883   0.18003   0.00000  Uiso   1.00
O570   O     0.21485   0.82885   0.31218   0.00000  Uiso   1.00
O571   O     0.11848   0.83781   0.18783   0.00000  Uiso   1.00
O572   O     0.10309   0.75432   0.12010   0.00000  Uiso   1.00
Zn573  Zn    0.10231   0.83933   0.25521   0.00000  Uiso   1.00
Zn574  Zn    0.23102   0.82734   0.24479   0.00000  Uiso   1.00
C575   C     0.51495   0.93144   0.24894   0.00000  Uiso   1.00
C576   C     0.53849   0.87091   0.40673   0.00000  Uiso   1.00
C577   C     0.49622   0.83210   0.11621   0.00000  Uiso   1.00
C578   C     0.50494   0.83371   0.38403   0.00000  Uiso   1.00
C579   C     0.52490   0.87205   0.09305   0.00000  Uiso   1.00
C580   C     0.47442   0.79370   0.40637   0.00000  Uiso   1.00
C581   C     0.52886   0.87056   0.04674   0.00000  Uiso   1.00
C582   C     0.47556   0.78979   0.45271   0.00000  Uiso   1.00
C583   C     0.50289   0.82842   0.02347   0.00000  Uiso   1.00
C584   C     0.50690   0.82792   0.47648   0.00000  Uiso   1.00
C585   C     0.46952   0.78942   0.04714   0.00000  Uiso   1.00
C586   C     0.48510   0.73525   0.25170   0.00000  Uiso   1.00
C587   C     0.54088   0.86692   0.45331   0.00000  Uiso   1.00
C588   C     0.55916   0.91036   0.02340   0.00000  Uiso   1.00
C589   C     0.44390   0.74977   0.47564   0.00000  Uiso   1.00
C590   C     0.47158   0.71470   0.13285   0.00000  Uiso   1.00
C591   C     0.60545   0.91452   0.35976   0.00000  Uiso   1.00
C592   C     0.54260   0.99546   0.03109   0.00000  Uiso   1.00
C593   C     0.45197   0.67499   0.43427   0.00000  Uiso   1.00
C594   C     0.33474   0.90054   0.45589   0.00000  Uiso   1.00
C595   C     0.37656   0.91473   0.49266   0.00000  Uiso   1.00
C596   C     0.36550   0.88349   0.03549   0.00000  Uiso   1.00
C597   C     0.57321   0.90349   0.47795   0.00000  Uiso   1.00
C598   C     0.34312   0.72833   0.03993   0.00000  Uiso   1.00
C599   C     0.64947   0.75243   0.08310   0.00000  Uiso   1.00
C600   C     0.64089   0.71347   0.12131   0.00000  Uiso   1.00
C601   C     0.43767   0.75167   0.02291   0.00000  Uiso   1.00
C602   C     0.52301   0.98571   0.24858   0.00000  Uiso   1.00
C603   C     0.47718   0.68100   0.25321   0.00000  Uiso   1.00
C604   C     0.50159   0.83523   0.33640   0.00000  Uiso   1.00
C605   C     0.49872   0.83300   0.16373   0.00000  Uiso   1.00
C606   C     0.46832   0.79058   0.09448   0.00000  Uiso   1.00
H607   H     0.54561   0.90351   0.11157   0.00000  Uiso   1.00
H608   H     0.59588   0.92036   0.32432   0.00000  Uiso   1.00
H609   H     0.62785   0.87757   0.36286   0.00000  Uiso   1.00
H610   H     0.63524   0.94710   0.36888   0.00000  Uiso   1.00
H611   H     0.54950   0.69685   0.05251   0.00000  Uiso   1.00
H612   H     0.49602   0.98447   0.03442   0.00000  Uiso   1.00
H613   H     0.55553   0.67356   0.49605   0.00000  Uiso   1.00
H614   H     0.48936   0.69261   0.41456   0.00000  Uiso   1.00
H615   H     0.42875   0.98183   0.41120   0.00000  Uiso   1.00
H616   H     0.46767   0.98474   0.46125   0.00000  Uiso   1.00
H617   H     0.35808   0.90877   0.42321   0.00000  Uiso   1.00
H618   H     0.44853   0.76645   0.38718   0.00000  Uiso   1.00
H619   H     0.65787   0.85784   0.45498   0.00000  Uiso   1.00
H620   H     0.42048   0.90642   0.47929   0.00000  Uiso   1.00
H621   H     0.37556   0.95665   0.00098   0.00000  Uiso   1.00
H622   H     0.65898   0.89430   0.05412   0.00000  Uiso   1.00
H623   H     0.40124   0.89137   0.05799   0.00000  Uiso   1.00
H624   H     0.36317   0.84158   0.02723   0.00000  Uiso   1.00
H625   H     0.65281   0.69183   0.03187   0.00000  Uiso   1.00
H626   H     0.33685   0.75442   0.01126   0.00000  Uiso   1.00
H627   H     0.34314   0.78619   0.09403   0.00000  Uiso   1.00
H628   H     0.60723   0.76755   0.07596   0.00000  Uiso   1.00
H629   H     0.56660   0.66864   0.24418   0.00000  Uiso   1.00
H630   H     0.60790   0.68309   0.11342   0.00000  Uiso   1.00
H631   H     0.62640   0.73386   0.15271   0.00000  Uiso   1.00
H632   H     0.34782   0.69421   0.12719   0.00000  Uiso   1.00
H633   H     0.43359   0.99806   0.25758   0.00000  Uiso   1.00
H634   H     0.33782   0.79373   0.21661   0.00000  Uiso   1.00
H635   H     0.66243   0.87340   0.28286   0.00000  Uiso   1.00
H636   H     0.45116   0.69610   0.16325   0.00000  Uiso   1.00
H637   H     0.51544   0.72880   0.14117   0.00000  Uiso   1.00
H638   H     0.47364   0.68424   0.10642   0.00000  Uiso   1.00
N639   N     0.65011   0.81932   0.23783   0.00000  Uiso   1.00
N640   N     0.34989   0.84735   0.26217   0.00000  Uiso   1.00
O641   O     0.46308   0.91286   0.25299   0.00000  Uiso   1.00
O642   O     0.55422   0.91791   0.38662   0.00000  Uiso   1.00
O643   O     0.57634   0.95543   0.04536   0.00000  Uiso   1.00
O644   O     0.41363   0.71175   0.45225   0.00000  Uiso   1.00
O645   O     0.61944   0.93190   0.45879   0.00000  Uiso   1.00
O646   O     0.40086   0.71618   0.04537   0.00000  Uiso   1.00
O647   O     0.53692   0.75381   0.24702   0.00000  Uiso   1.00
O648   O     0.55946   0.90387   0.24519   0.00000  Uiso   1.00
O649   O     0.44054   0.76279   0.25482   0.00000  Uiso   1.00
O650   O     0.45181   0.83784   0.31998   0.00000  Uiso   1.00
O651   O     0.54819   0.82883   0.18003   0.00000  Uiso   1.00
O652   O     0.54819   0.82885   0.31218   0.00000  Uiso   1.00
O653   O     0.45181   0.83781   0.18783   0.00000  Uiso   1.00
O654   O     0.43643   0.75432   0.12010   0.00000  Uiso   1.00
Zn655  Zn    0.43565   0.83933   0.25521   0.00000  Uiso   1.00
Zn656  Zn    0.56435   0.82734   0.24479   0.00000  Uiso   1.00
C657   C     0.84829   0.93144   0.24894   0.00000  Uiso   1.00
C658   C     0.87183   0.87091   0.40673   0.00000  Uiso   1.00
C659   C     0.82955   0.83210   0.11621   0.00000  Uiso   1.00
C660   C     0.83827   0.83371   0.38403   0.00000  Uiso   1.00
C661   C     0.85823   0.87205   0.09305   0.00000  Uiso   1.00
C662   C     0.80775   0.79370   0.40637   0.00000  Uiso   1.00
C663   C     0.86219   0.87056   0.04674   0.00000  Uiso   1.00
C664   C     0.80890   0.78979   0.45271   0.00000  Uiso   1.00
C665   C     0.83622   0.82842   0.02347   0.00000  Uiso   1.00
C666   C     0.84023   0.82792   0.47648   0.00000  Uiso   1.00
C667   C     0.80285   0.78942   0.04714   0.00000  Uiso   1.00
C668   C     0.81844   0.73525   0.25170   0.00000  Uiso   1.00
C669   C     0.87421   0.86692   0.45331   0.00000  Uiso   1.00
C670   C     0.89250   0.91036   0.02340   0.00000  Uiso   1.00
C671   C     0.77723   0.74977   0.47564   0.00000  Uiso   1.00
C672   C     0.80492   0.71470   0.13285   0.00000  Uiso   1.00
C673   C     0.93878   0.91452   0.35976   0.00000  Uiso   1.00
C674   C     0.87593   0.99546   0.03109   0.00000  Uiso   1.00
C675   C     0.78530   0.67499   0.43427   0.00000  Uiso   1.00
C676   C     0.66807   0.90054   0.45589   0.00000  Uiso   1.00
C677   C     0.70990   0.91473   0.49266   0.00000  Uiso   1.00
C678   C     0.69883   0.88349   0.03549   0.00000  Uiso   1.00
C679   C     0.90654   0.90349   0.47795   0.00000  Uiso   1.00
C680   C     0.67646   0.72833   0.03993   0.00000  Uiso   1.00
C681   C     0.98280   0.75243   0.08310   0.00000  Uiso   1.00
C682   C     0.97423   0.71347   0.12131   0.00000  Uiso   1.00
C683   C     0.77100   0.75167   0.02291   0.00000  Uiso   1.00
C684   C     0.85635   0.98571   0.24858   0.00000  Uiso   1.00
C685   C     0.81051   0.68100   0.25321   0.00000  Uiso   1.00
C686   C     0.83492   0.83523   0.33640   0.00000  Uiso   1.00
C687   C     0.83206   0.83300   0.16373   0.00000  Uiso   1.00
C688   C     0.80165   0.79058   0.09448   0.00000  Uiso   1.00
H689   H     0.87894   0.90351   0.11157   0.00000  Uiso   1.00
H690   H     0.92922   0.92036   0.32432   0.00000  Uiso   1.00
H691   H     0.96118   0.87757   0.36286   0.00000  Uiso   1.00
H692   H     0.96857   0.94710   0.36888   0.00000  Uiso   1.00
H693   H     0.88283   0.69685   0.05251   0.00000  Uiso   1.00
H694   H     0.82935   0.98447   0.03442   0.00000  Uiso   1.00
H695   H     0.88886   0.67356   0.49605   0.00000  Uiso   1.00
H696   H     0.82270   0.69261   0.41456   0.00000  Uiso   1.00
H697   H     0.76209   0.98183   0.41120   0.00000  Uiso   1.00
H698   H     0.80101   0.98474   0.46125   0.00000  Uiso   1.00
H699   H     0.69141   0.90877   0.42321   0.00000  Uiso   1.00
H700   H     0.78186   0.76645   0.38718   0.00000  Uiso   1.00
H701   H     0.99120   0.85784   0.45498   0.00000  Uiso   1.00
H702   H     0.75381   0.90642   0.47929   0.00000  Uiso   1.00
H703   H     0.70889   0.95665   0.00098   0.00000  Uiso   1.00
H704   H     0.99231   0.89430   0.05412   0.00000  Uiso   1.00
H705   H     0.73457   0.89137   0.05799   0.00000  Uiso   1.00
H706   H     0.69651   0.84158   0.02723   0.00000  Uiso   1.00
H707   H     0.98614   0.69183   0.03187   0.00000  Uiso   1.00
H708   H     0.67018   0.75442   0.01126   0.00000  Uiso   1.00
H709   H     0.67647   0.78619   0.09403   0.00000  Uiso   1.00
H710   H     0.94056   0.76755   0.07596   0.00000  Uiso   1.00
H711   H     0.89994   0.66864   0.24418   0.00000  Uiso   1.00
H712   H     0.94124   0.68309   0.11342   0.00000  Uiso   1.00
H713   H     0.95973   0.73386   0.15271   0.00000  Uiso   1.00
H714   H     0.68115   0.69421   0.12719   0.00000  Uiso   1.00
H715   H     0.76692   0.99806   0.25758   0.00000  Uiso   1.00
H716   H     0.67115   0.79373   0.21661   0.00000  Uiso   1.00
H717   H     0.99577   0.87340   0.28286   0.00000  Uiso   1.00
H718   H     0.78449   0.69610   0.16325   0.00000  Uiso   1.00
H719   H     0.84877   0.72880   0.14117   0.00000  Uiso   1.00
H720   H     0.80698   0.68424   0.10642   0.00000  Uiso   1.00
N721   N     0.98344   0.81932   0.23783   0.00000  Uiso   1.00
N722   N     0.68322   0.84735   0.26217   0.00000  Uiso   1.00
O723   O     0.79642   0.91286   0.25299   0.00000  Uiso   1.00
O724   O     0.88755   0.91791   0.38662   0.00000  Uiso   1.00
O725   O     0.90967   0.95543   0.04536   0.00000  Uiso   1.00
O726   O     0.74697   0.71175   0.45225   0.00000  Uiso   1.00
O727   O     0.95277   0.93190   0.45879   0.00000  Uiso   1.00
O728   O     0.73419   0.71618   0.04537   0.00000  Uiso   1.00
O729   O     0.87025   0.75381   0.24702   0.00000  Uiso   1.00
O730   O     0.89280   0.90387   0.24519   0.00000  Uiso   1.00
O731   O     0.77387   0.76279   0.25482   0.00000  Uiso   1.00
O732   O     0.78514   0.83784   0.31998   0.00000  Uiso   1.00
O733   O     0.88153   0.82883   0.18003   0.00000  Uiso   1.00
O734   O     0.88152   0.82885   0.31218   0.00000  Uiso   1.00
O735   O     0.78515   0.83781   0.18783   0.00000  Uiso   1.00
O736   O     0.76976   0.75432   0.12010   0.00000  Uiso   1.00
Zn737  Zn    0.76898   0.83933   0.25521   0.00000  Uiso   1.00
Zn738  Zn    0.89769   0.82734   0.24479   0.00000  Uiso   1.00
C739   C     0.18162   0.26478   0.74894   0.00000  Uiso   1.00
C740   C     0.20516   0.20424   0.90673   0.00000  Uiso   1.00
C741   C     0.16288   0.16543   0.61621   0.00000  Uiso   1.00
C742   C     0.17161   0.16704   0.88403   0.00000  Uiso   1.00
C743   C     0.19157   0.20538   0.59305   0.00000  Uiso   1.00
C744   C     0.14109   0.12703   0.90637   0.00000  Uiso   1.00
C745   C     0.19553   0.20389   0.54674   0.00000  Uiso   1.00
C746   C     0.14223   0.12312   0.95271   0.00000  Uiso   1.00
C747   C     0.16955   0.16176   0.52347   0.00000  Uiso   1.00
C748   C     0.17357   0.16125   0.97648   0.00000  Uiso   1.00
C749   C     0.13618   0.12275   0.54714   0.00000  Uiso   1.00
C750   C     0.15177   0.06858   0.75170   0.00000  Uiso   1.00
C751   C     0.20755   0.20025   0.95331   0.00000  Uiso   1.00
C752   C     0.22583   0.24369   0.52340   0.00000  Uiso   1.00
C753   C     0.11056   0.08311   0.97564   0.00000  Uiso   1.00
C754   C     0.13825   0.04804   0.63285   0.00000  Uiso   1.00
C755   C     0.27211   0.24785   0.85976   0.00000  Uiso   1.00
C756   C     0.20926   0.32879   0.53109   0.00000  Uiso   1.00
C757   C     0.11863   0.00833   0.93427   0.00000  Uiso   1.00
C758   C     0.00141   0.23387   0.95589   0.00000  Uiso   1.00
C759   C     0.04323   0.24806   0.99266   0.00000  Uiso   1.00
C760   C     0.03217   0.21683   0.53549   0.00000  Uiso   1.00
C761   C     0.23987   0.23682   0.97795   0.00000  Uiso   1.00
C762   C     0.00979   0.06166   0.53993   0.00000  Uiso   1.00
C763   C     0.31614   0.08576   0.58310   0.00000  Uiso   1.00
C764   C     0.30756   0.04680   0.62131   0.00000  Uiso   1.00
C765   C     0.10433   0.08501   0.52291   0.00000  Uiso   1.00
C766   C     0.18968   0.31904   0.74858   0.00000  Uiso   1.00
C767   C     0.14384   0.01433   0.75321   0.00000  Uiso   1.00
C768   C     0.16825   0.16856   0.83640   0.00000  Uiso   1.00
C769   C     0.16539   0.16633   0.66373   0.00000  Uiso   1.00
C770   C     0.13499   0.12391   0.59448   0.00000  Uiso   1.00
H771   H     0.21228   0.23684   0.61157   0.00000  Uiso   1.00
H772   H     0.26255   0.25369   0.82432   0.00000  Uiso   1.00
H773   H     0.29452   0.21090   0.86286   0.00000  Uiso   1.00
H774   H     0.30191   0.28044   0.86888   0.00000  Uiso   1.00
H775   H     0.21617   0.03019   0.55251   0.00000  Uiso   1.00
H776   H     0.16268   0.31781   0.53442   0.00000  Uiso   1.00
H777   H     0.22219   0.00690   0.99605   0.00000  Uiso   1.00
H778   H     0.15603   0.02595   0.91456   0.00000  Uiso   1.00
H779   H     0.09542   0.31516   0.91120   0.00000  Uiso   1.00
H780   H     0.13434   0.31807   0.96125   0.00000  Uiso   1.00
H781   H     0.02474   0.24210   0.92321   0.00000  Uiso   1.00
H782   H     0.11520   0.09978   0.88718   0.00000  Uiso   1.00
H783   H     0.32453   0.19118   0.95498   0.00000  Uiso   1.00
H784   H     0.08715   0.23975   0.97929   0.00000  Uiso   1.00
H785   H     0.04223   0.28999   0.50098   0.00000  Uiso   1.00
H786   H     0.32565   0.22763   0.55412   0.00000  Uiso   1.00
H787   H     0.06791   0.22470   0.55799   0.00000  Uiso   1.00
H788   H     0.02984   0.17491   0.52723   0.00000  Uiso   1.00
H789   H     0.31947   0.02516   0.53187   0.00000  Uiso   1.00
H790   H     0.00352   0.08775   0.51126   0.00000  Uiso   1.00
H791   H     0.00981   0.11952   0.59403   0.00000  Uiso   1.00
H792   H     0.27390   0.10089   0.57596   0.00000  Uiso   1.00
H793   H     0.23327   0.00198   0.74418   0.00000  Uiso   1.00
H794   H     0.27457   0.01642   0.61342   0.00000  Uiso   1.00
H795   H     0.29307   0.06720   0.65271   0.00000  Uiso   1.00
H796   H     0.01448   0.02754   0.62719   0.00000  Uiso   1.00
H797   H     0.10026   0.33139   0.75758   0.00000  Uiso   1.00
H798   H     0.00448   0.12707   0.71661   0.00000  Uiso   1.00
H799   H     0.32910   0.20673   0.78286   0.00000  Uiso   1.00
H800   H     0.11782   0.02943   0.66325   0.00000  Uiso   1.00
H801   H     0.18210   0.06214   0.64117   0.00000  Uiso   1.00
H802   H     0.14031   0.01757   0.60642   0.00000  Uiso   1.00
N803   N     0.31678   0.15265   0.73783   0.00000  Uiso   1.00
N804   N     0.01656   0.18068   0.76217   0.00000  Uiso   1.00
O805   O     0.12975   0.24619   0.75299   0.00000  Uiso   1.00
O806   O     0.22088   0.25125   0.88662   0.00000  Uiso   1.00
O807   O     0.24301   0.28876   0.54536   0.00000  Uiso   1.00
O808   O     0.08030   0.04509   0.95225   0.00000  Uiso   1.00
O809   O     0.28611   0.26523   0.95879   0.00000  Uiso   1.00
O810   O     0.06752   0.04951   0.54537   0.00000  Uiso   1.00
O811   O     0.20358   0.08714   0.74702   0.00000  Uiso   1.00
O812   O     0.22613   0.23721   0.74519   0.00000  Uiso   1.00
O813   O     0.10720   0.09613   0.75482   0.00000  Uiso   1.00
O814   O     0.11847   0.17117   0.81998   0.00000  Uiso   1.00
O815   O     0.21486   0.16216   0.68003   0.00000  Uiso   1.00
O816   O     0.21485   0.16219   0.81218   0.00000  Uiso   1.00
O817   O     0.11848   0.17115   0.68783   0.00000  Uiso   1.00
O818   O     0.10309   0.08766   0.62010   0.00000  Uiso   1.00
Zn819  Zn    0.10231   0.17266   0.75521   0.00000  Uiso   1.00
Zn820  Zn    0.23102   0.16067   0.74479   0.00000  Uiso   1.00
C821   C     0.51495   0.26478   0.74894   0.00000  Uiso   1.00
C822   C     0.53849   0.20424   0.90673   0.00000  Uiso   1.00
C823   C     0.49622   0.16543   0.61621   0.00000  Uiso   1.00
C824   C     0.50494   0.16704   0.88403   0.00000  Uiso   1.00
C825   C     0.52490   0.20538   0.59305   0.00000  Uiso   1.00
C826   C     0.47442   0.12703   0.90637   0.00000  Uiso   1.00
C827   C     0.52886   0.20389   0.54674   0.00000  Uiso   1.00
C828   C     0.47556   0.12312   0.95271   0.00000  Uiso   1.00
C829   C     0.50289   0.16176   0.52347   0.00000  Uiso   1.00
C830   C     0.50690   0.16125   0.97648   0.00000  Uiso   1.00
C831   C     0.46952   0.12275   0.54714   0.00000  Uiso   1.00
C832   C     0.48510   0.06858   0.75170   0.00000  Uiso   1.00
C833   C     0.54088   0.20025   0.95331   0.00000  Uiso   1.00
C834   C     0.55916   0.24369   0.52340   0.00000  Uiso   1.00
C835   C     0.44390   0.08311   0.97564   0.00000  Uiso   1.00
C836   C     0.47158   0.04804   0.63285   0.00000  Uiso   1.00
C837   C     0.60545   0.24785   0.85976   0.00000  Uiso   1.00
C838   C     0.54260   0.32879   0.53109   0.00000  Uiso   1.00
C839   C     0.45197   0.00833   0.93427   0.00000  Uiso   1.00
C840   C     0.33474   0.23387   0.95589   0.00000  Uiso   1.00
C841   C     0.37656   0.24806   0.99266   0.00000  Uiso   1.00
C842   C     0.36550   0.21683   0.53549   0.00000  Uiso   1.00
C843   C     0.57321   0.23682   0.97795   0.00000  Uiso   1.00
C844   C     0.34312   0.06166   0.53993   0.00000  Uiso   1.00
C845   C     0.64947   0.08576   0.58310   0.00000  Uiso   1.00
C846   C     0.64089   0.04680   0.62131   0.00000  Uiso   1.00
C847   C     0.43767   0.08501   0.52291   0.00000  Uiso   1.00
C848   C     0.52301   0.31904   0.74858   0.00000  Uiso   1.00
C849   C     0.47718   0.01433   0.75321   0.00000  Uiso   1.00
C850   C     0.50159   0.16856   0.83640   0.00000  Uiso   1.00
C851   C     0.49872   0.16633   0.66373   0.00000  Uiso   1.00
C852   C     0.46832   0.12391   0.59448   0.00000  Uiso   1.00
H853   H     0.54561   0.23684   0.61157   0.00000  Uiso   1.00
H854   H     0.59588   0.25369   0.82432   0.00000  Uiso   1.00
H855   H     0.62785   0.21090   0.86286   0.00000  Uiso   1.00
H856   H     0.63524   0.28044   0.86888   0.00000  Uiso   1.00
H857   H     0.54950   0.03019   0.55251   0.00000  Uiso   1.00
H858   H     0.49602   0.31781   0.53442   0.00000  Uiso   1.00
H859   H     0.55553   0.00690   0.99605   0.00000  Uiso   1.00
H860   H     0.48936   0.02595   0.91456   0.00000  Uiso   1.00
H861   H     0.42875   0.31516   0.91120   0.00000  Uiso   1.00
H862   H     0.46767   0.31807   0.96125   0.00000  Uiso   1.00
H863   H     0.35808   0.24210   0.92321   0.00000  Uiso   1.00
H864   H     0.44853   0.09978   0.88718   0.00000  Uiso   1.00
H865   H     0.65787   0.19118   0.95498   0.00000  Uiso   1.00
H866   H     0.42048   0.23975   0.97929   0.00000  Uiso   1.00
H867   H     0.37556   0.28999   0.50098   0.00000  Uiso   1.00
H868   H     0.65898   0.22763   0.55412   0.00000  Uiso   1.00
H869   H     0.40124   0.22470   0.55799   0.00000  Uiso   1.00
H870   H     0.36317   0.17491   0.52723   0.00000  Uiso   1.00
H871   H     0.65281   0.02516   0.53187   0.00000  Uiso   1.00
H872   H     0.33685   0.08775   0.51126   0.00000  Uiso   1.00
H873   H     0.34314   0.11952   0.59403   0.00000  Uiso   1.00
H874   H     0.60723   0.10089   0.57596   0.00000  Uiso   1.00
H875   H     0.56660   0.00198   0.74418   0.00000  Uiso   1.00
H876   H     0.60790   0.01642   0.61342   0.00000  Uiso   1.00
H877   H     0.62640   0.06720   0.65271   0.00000  Uiso   1.00
H878   H     0.34782   0.02754   0.62719   0.00000  Uiso   1.00
H879   H     0.43359   0.33139   0.75758   0.00000  Uiso   1.00
H880   H     0.33782   0.12707   0.71661   0.00000  Uiso   1.00
H881   H     0.66243   0.20673   0.78286   0.00000  Uiso   1.00
H882   H     0.45116   0.02943   0.66325   0.00000  Uiso   1.00
H883   H     0.51544   0.06214   0.64117   0.00000  Uiso   1.00
H884   H     0.47364   0.01757   0.60642   0.00000  Uiso   1.00
N885   N     0.65011   0.15265   0.73783   0.00000  Uiso   1.00
N886   N     0.34989   0.18068   0.76217   0.00000  Uiso   1.00
O887   O     0.46308   0.24619   0.75299   0.00000  Uiso   1.00
O888   O     0.55422   0.25125   0.88662   0.00000  Uiso   1.00
O889   O     0.57634   0.28876   0.54536   0.00000  Uiso   1.00
O890   O     0.41363   0.04509   0.95225   0.00000  Uiso   1.00
O891   O     0.61944   0.26523   0.95879   0.00000  Uiso   1.00
O892   O     0.40086   0.04951   0.54537   0.00000  Uiso   1.00
O893   O     0.53692   0.08714   0.74702   0.00000  Uiso   1.00
O894   O     0.55946   0.23721   0.74519   0.00000  Uiso   1.00
O895   O     0.44054   0.09613   0.75482   0.00000  Uiso   1.00
O896   O     0.45181   0.17117   0.81998   0.00000  Uiso   1.00
O897   O     0.54819   0.16216   0.68003   0.00000  Uiso   1.00
O898   O     0.54819   0.16219   0.81218   0.00000  Uiso   1.00
O899   O     0.45181   0.17115   0.68783   0.00000  Uiso   1.00
O900   O     0.43643   0.08766   0.62010   0.00000  Uiso   1.00
Zn901  Zn    0.43565   0.17266   0.75521   0.00000  Uiso   1.00
Zn902  Zn    0.56435   0.16067   0.74479   0.00000  Uiso   1.00
C903   C     0.84829   0.26478   0.74894   0.00000  Uiso   1.00
C904   C     0.87183   0.20424   0.90673   0.00000  Uiso   1.00
C905   C     0.82955   0.16543   0.61621   0.00000  Uiso   1.00
C906   C     0.83827   0.16704   0.88403   0.00000  Uiso   1.00
C907   C     0.85823   0.20538   0.59305   0.00000  Uiso   1.00
C908   C     0.80775   0.12703   0.90637   0.00000  Uiso   1.00
C909   C     0.86219   0.20389   0.54674   0.00000  Uiso   1.00
C910   C     0.80890   0.12312   0.95271   0.00000  Uiso   1.00
C911   C     0.83622   0.16176   0.52347   0.00000  Uiso   1.00
C912   C     0.84023   0.16125   0.97648   0.00000  Uiso   1.00
C913   C     0.80285   0.12275   0.54714   0.00000  Uiso   1.00
C914   C     0.81844   0.06858   0.75170   0.00000  Uiso   1.00
C915   C     0.87421   0.20025   0.95331   0.00000  Uiso   1.00
C916   C     0.89250   0.24369   0.52340   0.00000  Uiso   1.00
C917   C     0.77723   0.08311   0.97564   0.00000  Uiso   1.00
C918   C     0.80492   0.04804   0.63285   0.00000  Uiso   1.00
C919   C     0.93878   0.24785   0.85976   0.00000  Uiso   1.00
C920   C     0.87593   0.32879   0.53109   0.00000  Uiso   1.00
C921   C     0.78530   0.00833   0.93427   0.00000  Uiso   1.00
C922   C     0.66807   0.23387   0.95589   0.00000  Uiso   1.00
C923   C     0.70990   0.24806   0.99266   0.00000  Uiso   1.00
C924   C     0.69883   0.21683   0.53549   0.00000  Uiso   1.00
C925   C     0.90654   0.23682   0.97795   0.00000  Uiso   1.00
C926   C     0.67646   0.06166   0.53993   0.00000  Uiso   1.00
C927   C     0.98280   0.08576   0.58310   0.00000  Uiso   1.00
C928   C     0.97423   0.04680   0.62131   0.00000  Uiso   1.00
C929   C     0.77100   0.08501   0.52291   0.00000  Uiso   1.00
C930   C     0.85635   0.31904   0.74858   0.00000  Uiso   1.00
C931   C     0.81051   0.01433   0.75321   0.00000  Uiso   1.00
C932   C     0.83492   0.16856   0.83640   0.00000  Uiso   1.00
C933   C     0.83206   0.16633   0.66373   0.00000  Uiso   1.00
C934   C     0.80165   0.12391   0.59448   0.00000  Uiso   1.00
H935   H     0.87894   0.23684   0.61157   0.00000  Uiso   1.00
H936   H     0.92922   0.25369   0.82432   0.00000  Uiso   1.00
H937   H     0.96118   0.21090   0.86286   0.00000  Uiso   1.00
H938   H     0.96857   0.28044   0.86888   0.00000  Uiso   1.00
H939   H     0.88283   0.03019   0.55251   0.00000  Uiso   1.00
H940   H     0.82935   0.31781   0.53442   0.00000  Uiso   1.00
H941   H     0.88886   0.00690   0.99605   0.00000  Uiso   1.00
H942   H     0.82270   0.02595   0.91456   0.00000  Uiso   1.00
H943   H     0.76209   0.31516   0.91120   0.00000  Uiso   1.00
H944   H     0.80101   0.31807   0.96125   0.00000  Uiso   1.00
H945   H     0.69141   0.24210   0.92321   0.00000  Uiso   1.00
H946   H     0.78186   0.09978   0.88718   0.00000  Uiso   1.00
H947   H     0.99120   0.19118   0.95498   0.00000  Uiso   1.00
H948   H     0.75381   0.23975   0.97929   0.00000  Uiso   1.00
H949   H     0.70889   0.28999   0.50098   0.00000  Uiso   1.00
H950   H     0.99231   0.22763   0.55412   0.00000  Uiso   1.00
H951   H     0.73457   0.22470   0.55799   0.00000  Uiso   1.00
H952   H     0.69651   0.17491   0.52723   0.00000  Uiso   1.00
H953   H     0.98614   0.02516   0.53187   0.00000  Uiso   1.00
H954   H     0.67018   0.08775   0.51126   0.00000  Uiso   1.00
H955   H     0.67647   0.11952   0.59403   0.00000  Uiso   1.00
H956   H     0.94056   0.10089   0.57596   0.00000  Uiso   1.00
H957   H     0.89994   0.00198   0.74418   0.00000  Uiso   1.00
H958   H     0.94124   0.01642   0.61342   0.00000  Uiso   1.00
H959   H     0.95973   0.06720   0.65271   0.00000  Uiso   1.00
H960   H     0.68115   0.02754   0.62719   0.00000  Uiso   1.00
H961   H     0.76692   0.33139   0.75758   0.00000  Uiso   1.00
H962   H     0.67115   0.12707   0.71661   0.00000  Uiso   1.00
H963   H     0.99577   0.20673   0.78286   0.00000  Uiso   1.00
H964   H     0.78449   0.02943   0.66325   0.00000  Uiso   1.00
H965   H     0.84877   0.06214   0.64117   0.00000  Uiso   1.00
H966   H     0.80698   0.01757   0.60642   0.00000  Uiso   1.00
N967   N     0.98344   0.15265   0.73783   0.00000  Uiso   1.00
N968   N     0.68322   0.18068   0.76217   0.00000  Uiso   1.00
O969   O     0.79642   0.24619   0.75299   0.00000  Uiso   1.00
O970   O     0.88755   0.25125   0.88662   0.00000  Uiso   1.00
O971   O     0.90967   0.28876   0.54536   0.00000  Uiso   1.00
O972   O     0.74697   0.04509   0.95225   0.00000  Uiso   1.00
O973   O     0.95277   0.26523   0.95879   0.00000  Uiso   1.00
O974   O     0.73419   0.04951   0.54537   0.00000  Uiso   1.00
O975   O     0.87025   0.08714   0.74702   0.00000  Uiso   1.00
O976   O     0.89280   0.23721   0.74519   0.00000  Uiso   1.00
O977   O     0.77387   0.09613   0.75482   0.00000  Uiso   1.00
O978   O     0.78514   0.17117   0.81998   0.00000  Uiso   1.00
O979   O     0.88153   0.16216   0.68003   0.00000  Uiso   1.00
O980   O     0.88152   0.16219   0.81218   0.00000  Uiso   1.00
O981   O     0.78515   0.17115   0.68783   0.00000  Uiso   1.00
O982   O     0.76976   0.08766   0.62010   0.00000  Uiso   1.00
Zn983  Zn    0.76898   0.17266   0.75521   0.00000  Uiso   1.00
Zn984  Zn    0.89769   0.16067   0.74479   0.00000  Uiso   1.00
C985   C     0.18162   0.59811   0.74894   0.00000  Uiso   1.00
C986   C     0.20516   0.53758   0.90673   0.00000  Uiso   1.00
C987   C     0.16288   0.49877   0.61621   0.00000  Uiso   1.00
C988   C     0.17161   0.50037   0.88403   0.00000  Uiso   1.00
C989   C     0.19157   0.53872   0.59305   0.00000  Uiso   1.00
C990   C     0.14109   0.46037   0.90637   0.00000  Uiso   1.00
C991   C     0.19553   0.53722   0.54674   0.00000  Uiso   1.00
C992   C     0.14223   0.45646   0.95271   0.00000  Uiso   1.00
C993   C     0.16955   0.49509   0.52347   0.00000  Uiso   1.00
C994   C     0.17357   0.49459   0.97648   0.00000  Uiso   1.00
C995   C     0.13618   0.45609   0.54714   0.00000  Uiso   1.00
C996   C     0.15177   0.40191   0.75170   0.00000  Uiso   1.00
C997   C     0.20755   0.53358   0.95331   0.00000  Uiso   1.00
C998   C     0.22583   0.57703   0.52340   0.00000  Uiso   1.00
C999   C     0.11056   0.41644   0.97564   0.00000  Uiso   1.00
C1000  C     0.13825   0.38137   0.63285   0.00000  Uiso   1.00
C1001  C     0.27211   0.58119   0.85976   0.00000  Uiso   1.00
C1002  C     0.20926   0.66213   0.53109   0.00000  Uiso   1.00
C1003  C     0.11863   0.34166   0.93427   0.00000  Uiso   1.00
C1004  C     0.00141   0.56721   0.95589   0.00000  Uiso   1.00
C1005  C     0.04323   0.58139   0.99266   0.00000  Uiso   1.00
C1006  C     0.03217   0.55016   0.53549   0.00000  Uiso   1.00
C1007  C     0.23987   0.57015   0.97795   0.00000  Uiso   1.00
C1008  C     0.00979   0.39499   0.53993   0.00000  Uiso   1.00
C1009  C     0.31614   0.41910   0.58310   0.00000  Uiso   1.00
C1010  C     0.30756   0.38014   0.62131   0.00000  Uiso   1.00
C1011  C     0.10433   0.41834   0.52291   0.00000  Uiso   1.00
C1012  C     0.18968   0.65238   0.74858   0.00000  Uiso   1.00
C1013  C     0.14384   0.34767   0.75321   0.00000  Uiso   1.00
C1014  C     0.16825   0.50190   0.83640   0.00000  Uiso   1.00
C1015  C     0.16539   0.49966   0.66373   0.00000  Uiso   1.00
C1016  C     0.13499   0.45724   0.59448   0.00000  Uiso   1.00
H1017  H     0.21228   0.57017   0.61157   0.00000  Uiso   1.00
H1018  H     0.26255   0.58703   0.82432   0.00000  Uiso   1.00
H1019  H     0.29452   0.54423   0.86286   0.00000  Uiso   1.00
H1020  H     0.30191   0.61377   0.86888   0.00000  Uiso   1.00
H1021  H     0.21617   0.36352   0.55251   0.00000  Uiso   1.00
H1022  H     0.16268   0.65114   0.53442   0.00000  Uiso   1.00
H1023  H     0.22219   0.34023   0.99605   0.00000  Uiso   1.00
H1024  H     0.15603   0.35928   0.91456   0.00000  Uiso   1.00
H1025  H     0.09542   0.64850   0.91120   0.00000  Uiso   1.00
H1026  H     0.13434   0.65140   0.96125   0.00000  Uiso   1.00
H1027  H     0.02474   0.57543   0.92321   0.00000  Uiso   1.00
H1028  H     0.11520   0.43312   0.88718   0.00000  Uiso   1.00
H1029  H     0.32453   0.52451   0.95498   0.00000  Uiso   1.00
H1030  H     0.08715   0.57309   0.97929   0.00000  Uiso   1.00
H1031  H     0.04223   0.62332   0.50098   0.00000  Uiso   1.00
H1032  H     0.32565   0.56096   0.55412   0.00000  Uiso   1.00
H1033  H     0.06791   0.55803   0.55799   0.00000  Uiso   1.00
H1034  H     0.02984   0.50824   0.52723   0.00000  Uiso   1.00
H1035  H     0.31947   0.35850   0.53187   0.00000  Uiso   1.00
H1036  H     0.00352   0.42108   0.51126   0.00000  Uiso   1.00
H1037  H     0.00981   0.45285   0.59403   0.00000  Uiso   1.00
H1038  H     0.27390   0.43422   0.57596   0.00000  Uiso   1.00
H1039  H     0.23327   0.33531   0.74418   0.00000  Uiso   1.00
H1040  H     0.27457   0.34976   0.61342   0.00000  Uiso   1.00
H1041  H     0.29307   0.40053   0.65271   0.00000  Uiso   1.00
H1042  H     0.01448   0.36088   0.62719   0.00000  Uiso   1.00
H1043  H     0.10026   0.66473   0.75758   0.00000  Uiso   1.00
H1044  H     0.00448   0.46040   0.71661   0.00000  Uiso   1.00
H1045  H     0.32910   0.54006   0.78286   0.00000  Uiso   1.00
H1046  H     0.11782   0.36277   0.66325   0.00000  Uiso   1.00
H1047  H     0.18210   0.39547   0.64117   0.00000  Uiso   1.00
H1048  H     0.14031   0.35090   0.60642   0.00000  Uiso   1.00
N1049  N     0.31678   0.48598   0.73783   0.00000  Uiso   1.00
N1050  N     0.01656   0.51402   0.76217   0.00000  Uiso   1.00
O1051  O     0.12975   0.57952   0.75299   0.00000  Uiso   1.00
O1052  O     0.22088   0.58458   0.88662   0.00000  Uiso   1.00
O1053  O     0.24301   0.62209   0.54536   0.00000  Uiso   1.00
O1054  O     0.08030   0.37842   0.95225   0.00000  Uiso   1.00
O1055  O     0.28611   0.59856   0.95879   0.00000  Uiso   1.00
O1056  O     0.06752   0.38285   0.54537   0.00000  Uiso   1.00
O1057  O     0.20358   0.42048   0.74702   0.00000  Uiso   1.00
O1058  O     0.22613   0.57054   0.74519   0.00000  Uiso   1.00
O1059  O     0.10720   0.42946   0.75482   0.00000  Uiso   1.00
O1060  O     0.11847   0.50450   0.81998   0.00000  Uiso   1.00
O1061  O     0.21486   0.49550   0.68003   0.00000  Uiso   1.00
O1062  O     0.21485   0.49552   0.81218   0.00000  Uiso   1.00
O1063  O     0.11848   0.50448   0.68783   0.00000  Uiso   1.00
O1064  O     0.10309   0.42099   0.62010   0.00000  Uiso   1.00
Zn1065 Zn    0.10231   0.50600   0.75521   0.00000  Uiso   1.00
Zn1066 Zn    0.23102   0.49400   0.74479   0.00000  Uiso   1.00
C1067  C     0.51495   0.59811   0.74894   0.00000  Uiso   1.00
C1068  C     0.53849   0.53758   0.90673   0.00000  Uiso   1.00
C1069  C     0.49622   0.49877   0.61621   0.00000  Uiso   1.00
C1070  C     0.50494   0.50037   0.88403   0.00000  Uiso   1.00
C1071  C     0.52490   0.53872   0.59305   0.00000  Uiso   1.00
C1072  C     0.47442   0.46037   0.90637   0.00000  Uiso   1.00
C1073  C     0.52886   0.53722   0.54674   0.00000  Uiso   1.00
C1074  C     0.47556   0.45646   0.95271   0.00000  Uiso   1.00
C1075  C     0.50289   0.49509   0.52347   0.00000  Uiso   1.00
C1076  C     0.50690   0.49459   0.97648   0.00000  Uiso   1.00
C1077  C     0.46952   0.45609   0.54714   0.00000  Uiso   1.00
C1078  C     0.48510   0.40191   0.75170   0.00000  Uiso   1.00
C1079  C     0.54088   0.53358   0.95331   0.00000  Uiso   1.00
C1080  C     0.55916   0.57703   0.52340   0.00000  Uiso   1.00
C1081  C     0.44390   0.41644   0.97564   0.00000  Uiso   1.00
C1082  C     0.47158   0.38137   0.63285   0.00000  Uiso   1.00
C1083  C     0.60545   0.58119   0.85976   0.00000  Uiso   1.00
C1084  C     0.54260   0.66213   0.53109   0.00000  Uiso   1.00
C1085  C     0.45197   0.34166   0.93427   0.00000  Uiso   1.00
C1086  C     0.33474   0.56721   0.95589   0.00000  Uiso   1.00
C1087  C     0.37656   0.58139   0.99266   0.00000  Uiso   1.00
C1088  C     0.36550   0.55016   0.53549   0.00000  Uiso   1.00
C1089  C     0.57321   0.57015   0.97795   0.00000  Uiso   1.00
C1090  C     0.34312   0.39499   0.53993   0.00000  Uiso   1.00
C1091  C     0.64947   0.41910   0.58310   0.00000  Uiso   1.00
C1092  C     0.64089   0.38014   0.62131   0.00000  Uiso   1.00
C1093  C     0.43767   0.41834   0.52291   0.00000  Uiso   1.00
C1094  C     0.52301   0.65238   0.74858   0.00000  Uiso   1.00
C1095  C     0.47718   0.34767   0.75321   0.00000  Uiso   1.00
C1096  C     0.50159   0.50190   0.83640   0.00000  Uiso   1.00
C1097  C     0.49872   0.49966   0.66373   0.00000  Uiso   1.00
C1098  C     0.46832   0.45724   0.59448   0.00000  Uiso   1.00
H1099  H     0.54561   0.57017   0.61157   0.00000  Uiso   1.00
H1100  H     0.59588   0.58703   0.82432   0.00000  Uiso   1.00
H1101  H     0.62785   0.54423   0.86286   0.00000  Uiso   1.00
H1102  H     0.63524   0.61377   0.86888   0.00000  Uiso   1.00
H1103  H     0.54950   0.36352   0.55251   0.00000  Uiso   1.00
H1104  H     0.49602   0.65114   0.53442   0.00000  Uiso   1.00
H1105  H     0.55553   0.34023   0.99605   0.00000  Uiso   1.00
H1106  H     0.48936   0.35928   0.91456   0.00000  Uiso   1.00
H1107  H     0.42875   0.64850   0.91120   0.00000  Uiso   1.00
H1108  H     0.46767   0.65140   0.96125   0.00000  Uiso   1.00
H1109  H     0.35808   0.57543   0.92321   0.00000  Uiso   1.00
H1110  H     0.44853   0.43312   0.88718   0.00000  Uiso   1.00
H1111  H     0.65787   0.52451   0.95498   0.00000  Uiso   1.00
H1112  H     0.42048   0.57309   0.97929   0.00000  Uiso   1.00
H1113  H     0.37556   0.62332   0.50098   0.00000  Uiso   1.00
H1114  H     0.65898   0.56096   0.55412   0.00000  Uiso   1.00
H1115  H     0.40124   0.55803   0.55799   0.00000  Uiso   1.00
H1116  H     0.36317   0.50824   0.52723   0.00000  Uiso   1.00
H1117  H     0.65281   0.35850   0.53187   0.00000  Uiso   1.00
H1118  H     0.33685   0.42108   0.51126   0.00000  Uiso   1.00
H1119  H     0.34314   0.45285   0.59403   0.00000  Uiso   1.00
H1120  H     0.60723   0.43422   0.57596   0.00000  Uiso   1.00
H1121  H     0.56660   0.33531   0.74418   0.00000  Uiso   1.00
H1122  H     0.60790   0.34976   0.61342   0.00000  Uiso   1.00
H1123  H     0.62640   0.40053   0.65271   0.00000  Uiso   1.00
H1124  H     0.34782   0.36088   0.62719   0.00000  Uiso   1.00
H1125  H     0.43359   0.66473   0.75758   0.00000  Uiso   1.00
H1126  H     0.33782   0.46040   0.71661   0.00000  Uiso   1.00
H1127  H     0.66243   0.54006   0.78286   0.00000  Uiso   1.00
H1128  H     0.45116   0.36277   0.66325   0.00000  Uiso   1.00
H1129  H     0.51544   0.39547   0.64117   0.00000  Uiso   1.00
H1130  H     0.47364   0.35090   0.60642   0.00000  Uiso   1.00
N1131  N     0.65011   0.48598   0.73783   0.00000  Uiso   1.00
N1132  N     0.34989   0.51402   0.76217   0.00000  Uiso   1.00
O1133  O     0.46308   0.57952   0.75299   0.00000  Uiso   1.00
O1134  O     0.55422   0.58458   0.88662   0.00000  Uiso   1.00
O1135  O     0.57634   0.62209   0.54536   0.00000  Uiso   1.00
O1136  O     0.41363   0.37842   0.95225   0.00000  Uiso   1.00
O1137  O     0.61944   0.59856   0.95879   0.00000  Uiso   1.00
O1138  O     0.40086   0.38285   0.54537   0.00000  Uiso   1.00
O1139  O     0.53692   0.42048   0.74702   0.00000  Uiso   1.00
O1140  O     0.55946   0.57054   0.74519   0.00000  Uiso   1.00
O1141  O     0.44054   0.42946   0.75482   0.00000  Uiso   1.00
O1142  O     0.45181   0.50450   0.81998   0.00000  Uiso   1.00
O1143  O     0.54819   0.49550   0.68003   0.00000  Uiso   1.00
O1144  O     0.54819   0.49552   0.81218   0.00000  Uiso   1.00
O1145  O     0.45181   0.50448   0.68783   0.00000  Uiso   1.00
O1146  O     0.43643   0.42099   0.62010   0.00000  Uiso   1.00
Zn1147 Zn    0.43565   0.50600   0.75521   0.00000  Uiso   1.00
Zn1148 Zn    0.56435   0.49400   0.74479   0.00000  Uiso   1.00
C1149  C     0.84829   0.59811   0.74894   0.00000  Uiso   1.00
C1150  C     0.87183   0.53758   0.90673   0.00000  Uiso   1.00
C1151  C     0.82955   0.49877   0.61621   0.00000  Uiso   1.00
C1152  C     0.83827   0.50037   0.88403   0.00000  Uiso   1.00
C1153  C     0.85823   0.53872   0.59305   0.00000  Uiso   1.00
C1154  C     0.80775   0.46037   0.90637   0.00000  Uiso   1.00
C1155  C     0.86219   0.53722   0.54674   0.00000  Uiso   1.00
C1156  C     0.80890   0.45646   0.95271   0.00000  Uiso   1.00
C1157  C     0.83622   0.49509   0.52347   0.00000  Uiso   1.00
C1158  C     0.84023   0.49459   0.97648   0.00000  Uiso   1.00
C1159  C     0.80285   0.45609   0.54714   0.00000  Uiso   1.00
C1160  C     0.81844   0.40191   0.75170   0.00000  Uiso   1.00
C1161  C     0.87421   0.53358   0.95331   0.00000  Uiso   1.00
C1162  C     0.89250   0.57703   0.52340   0.00000  Uiso   1.00
C1163  C     0.77723   0.41644   0.97564   0.00000  Uiso   1.00
C1164  C     0.80492   0.38137   0.63285   0.00000  Uiso   1.00
C1165  C     0.93878   0.58119   0.85976   0.00000  Uiso   1.00
C1166  C     0.87593   0.66213   0.53109   0.00000  Uiso   1.00
C1167  C     0.78530   0.34166   0.93427   0.00000  Uiso   1.00
C1168  C     0.66807   0.56721   0.95589   0.00000  Uiso   1.00
C1169  C     0.70990   0.58139   0.99266   0.00000  Uiso   1.00
C1170  C     0.69883   0.55016   0.53549   0.00000  Uiso   1.00
C1171  C     0.90654   0.57015   0.97795   0.00000  Uiso   1.00
C1172  C     0.67646   0.39499   0.53993   0.00000  Uiso   1.00
C1173  C     0.98280   0.41910   0.58310   0.00000  Uiso   1.00
C1174  C     0.97423   0.38014   0.62131   0.00000  Uiso   1.00
C1175  C     0.77100   0.41834   0.52291   0.00000  Uiso   1.00
C1176  C     0.85635   0.65238   0.74858   0.00000  Uiso   1.00
C1177  C     0.81051   0.34767   0.75321   0.00000  Uiso   1.00
C1178  C     0.83492   0.50190   0.83640   0.00000  Uiso   1.00
C1179  C     0.83206   0.49966   0.66373   0.00000  Uiso   1.00
C1180  C     0.80165   0.45724   0.59448   0.00000  Uiso   1.00
H1181  H     0.87894   0.57017   0.61157   0.00000  Uiso   1.00
H1182  H     0.92922   0.58703   0.82432   0.00000  Uiso   1.00
H1183  H     0.96118   0.54423   0.86286   0.00000  Uiso   1.00
H1184  H     0.96857   0.61377   0.86888   0.00000  Uiso   1.00
H1185  H     0.88283   0.36352   0.55251   0.00000  Uiso   1.00
H1186  H     0.82935   0.65114   0.53442   0.00000  Uiso   1.00
H1187  H     0.88886   0.34023   0.99605   0.00000  Uiso   1.00
H1188  H     0.82270   0.35928   0.91456   0.00000  Uiso   1.00
H1189  H     0.76209   0.64850   0.91120   0.00000  Uiso   1.00
H1190  H     0.80101   0.65140   0.96125   0.00000  Uiso   1.00
H1191  H     0.69141   0.57543   0.92321   0.00000  Uiso   1.00
H1192  H     0.78186   0.43312   0.88718   0.00000  Uiso   1.00
H1193  H     0.99120   0.52451   0.95498   0.00000  Uiso   1.00
H1194  H     0.75381   0.57309   0.97929   0.00000  Uiso   1.00
H1195  H     0.70889   0.62332   0.50098   0.00000  Uiso   1.00
H1196  H     0.99231   0.56096   0.55412   0.00000  Uiso   1.00
H1197  H     0.73457   0.55803   0.55799   0.00000  Uiso   1.00
H1198  H     0.69651   0.50824   0.52723   0.00000  Uiso   1.00
H1199  H     0.98614   0.35850   0.53187   0.00000  Uiso   1.00
H1200  H     0.67018   0.42108   0.51126   0.00000  Uiso   1.00
H1201  H     0.67647   0.45285   0.59403   0.00000  Uiso   1.00
H1202  H     0.94056   0.43422   0.57596   0.00000  Uiso   1.00
H1203  H     0.89994   0.33531   0.74418   0.00000  Uiso   1.00
H1204  H     0.94124   0.34976   0.61342   0.00000  Uiso   1.00
H1205  H     0.95973   0.40053   0.65271   0.00000  Uiso   1.00
H1206  H     0.68115   0.36088   0.62719   0.00000  Uiso   1.00
H1207  H     0.76692   0.66473   0.75758   0.00000  Uiso   1.00
H1208  H     0.67115   0.46040   0.71661   0.00000  Uiso   1.00
H1209  H     0.99577   0.54006   0.78286   0.00000  Uiso   1.00
H1210  H     0.78449   0.36277   0.66325   0.00000  Uiso   1.00
H1211  H     0.84877   0.39547   0.64117   0.00000  Uiso   1.00
H1212  H     0.80698   0.35090   0.60642   0.00000  Uiso   1.00
N1213  N     0.98344   0.48598   0.73783   0.00000  Uiso   1.00
N1214  N     0.68322   0.51402   0.76217   0.00000  Uiso   1.00
O1215  O     0.79642   0.57952   0.75299   0.00000  Uiso   1.00
O1216  O     0.88755   0.58458   0.88662   0.00000  Uiso   1.00
O1217  O     0.90967   0.62209   0.54536   0.00000  Uiso   1.00
O1218  O     0.74697   0.37842   0.95225   0.00000  Uiso   1.00
O1219  O     0.95277   0.59856   0.95879   0.00000  Uiso   1.00
O1220  O     0.73419   0.38285   0.54537   0.00000  Uiso   1.00
O1221  O     0.87025   0.42048   0.74702   0.00000  Uiso   1.00
O1222  O     0.89280   0.57054   0.74519   0.00000  Uiso   1.00
O1223  O     0.77387   0.42946   0.75482   0.00000  Uiso   1.00
O1224  O     0.78514   0.50450   0.81998   0.00000  Uiso   1.00
O1225  O     0.88153   0.49550   0.68003   0.00000  Uiso   1.00
O1226  O     0.88152   0.49552   0.81218   0.00000  Uiso   1.00
O1227  O     0.78515   0.50448   0.68783   0.00000  Uiso   1.00
O1228  O     0.76976   0.42099   0.62010   0.00000  Uiso   1.00
Zn1229 Zn    0.76898   0.50600   0.75521   0.00000  Uiso   1.00
Zn1230 Zn    0.89769   0.49400   0.74479   0.00000  Uiso   1.00
C1231  C     0.18162   0.93144   0.74894   0.00000  Uiso   1.00
C1232  C     0.20516   0.87091   0.90673   0.00000  Uiso   1.00
C1233  C     0.16288   0.83210   0.61621   0.00000  Uiso   1.00
C1234  C     0.17161   0.83371   0.88403   0.00000  Uiso   1.00
C1235  C     0.19157   0.87205   0.59305   0.00000  Uiso   1.00
C1236  C     0.14109   0.79370   0.90637   0.00000  Uiso   1.00
C1237  C     0.19553   0.87056   0.54674   0.00000  Uiso   1.00
C1238  C     0.14223   0.78979   0.95271   0.00000  Uiso   1.00
C1239  C     0.16955   0.82842   0.52347   0.00000  Uiso   1.00
C1240  C     0.17357   0.82792   0.97648   0.00000  Uiso   1.00
C1241  C     0.13618   0.78942   0.54714   0.00000  Uiso   1.00
C1242  C     0.15177   0.73525   0.75170   0.00000  Uiso   1.00
C1243  C     0.20755   0.86692   0.95331   0.00000  Uiso   1.00
C1244  C     0.22583   0.91036   0.52340   0.00000  Uiso   1.00
C1245  C     0.11056   0.74977   0.97564   0.00000  Uiso   1.00
C1246  C     0.13825   0.71470   0.63285   0.00000  Uiso   1.00
C1247  C     0.27211   0.91452   0.85976   0.00000  Uiso   1.00
C1248  C     0.20926   0.99546   0.53109   0.00000  Uiso   1.00
C1249  C     0.11863   0.67499   0.93427   0.00000  Uiso   1.00
C1250  C     0.00141   0.90054   0.95589   0.00000  Uiso   1.00
C1251  C     0.04323   0.91473   0.99266   0.00000  Uiso   1.00
C1252  C     0.03217   0.88349   0.53549   0.00000  Uiso   1.00
C1253  C     0.23987   0.90349   0.97795   0.00000  Uiso   1.00
C1254  C     0.00979   0.72833   0.53993   0.00000  Uiso   1.00
C1255  C     0.31614   0.75243   0.58310   0.00000  Uiso   1.00
C1256  C     0.30756   0.71347   0.62131   0.00000  Uiso   1.00
C1257  C     0.10433   0.75167   0.52291   0.00000  Uiso   1.00
C1258  C     0.18968   0.98571   0.74858   0.00000  Uiso   1.00
C1259  C     0.14384   0.68100   0.75321   0.00000  Uiso   1.00
C1260  C     0.16825   0.83523   0.83640   0.00000  Uiso   1.00
C1261  C     0.16539   0.83300   0.66373   0.00000  Uiso   1.00
C1262  C     0.13499   0.79058   0.59448   0.00000  Uiso   1.00
H1263  H     0.21228   0.90351   0.61157   0.00000  Uiso   1.00
H1264  H     0.26255   0.92036   0.82432   0.00000  Uiso   1.00
H1265  H     0.29452   0.87757   0.86286   0.00000  Uiso   1.00
H1266  H     0.30191   0.94710   0.86888   0.00000  Uiso   1.00
H1267  H     0.21617   0.69685   0.55251   0.00000  Uiso   1.00
H1268  H     0.16268   0.98447   0.53442   0.00000  Uiso   1.00
H1269  H     0.22219   0.67356   0.99605   0.00000  Uiso   1.00
H1270  H     0.15603   0.69261   0.91456   0.00000  Uiso   1.00
H1271  H     0.09542   0.98183   0.91120   0.00000  Uiso   1.00
H1272  H     0.13434   0.98474   0.96125   0.00000  Uiso   1.00
H1273  H     0.02474   0.90877   0.92321   0.00000  Uiso   1.00
H1274  H     0.11520   0.76645   0.88718   0.00000  Uiso   1.00
H1275  H     0.32453   0.85784   0.95498   0.00000  Uiso   1.00
H1276  H     0.08715   0.90642   0.97929   0.00000  Uiso   1.00
H1277  H     0.04223   0.95665   0.50098   0.00000  Uiso   1.00
H1278  H     0.32565   0.89430   0.55412   0.00000  Uiso   1.00
H1279  H     0.06791   0.89137   0.55799   0.00000  Uiso   1.00
H1280  H     0.02984   0.84158   0.52723   0.00000  Uiso   1.00
H1281  H     0.31947   0.69183   0.53187   0.00000  Uiso   1.00
H1282  H     0.00352   0.75442   0.51126   0.00000  Uiso   1.00
H1283  H     0.00981   0.78619   0.59403   0.00000  Uiso   1.00
H1284  H     0.27390   0.76755   0.57596   0.00000  Uiso   1.00
H1285  H     0.23327   0.66864   0.74418   0.00000  Uiso   1.00
H1286  H     0.27457   0.68309   0.61342   0.00000  Uiso   1.00
H1287  H     0.29307   0.73386   0.65271   0.00000  Uiso   1.00
H1288  H     0.01448   0.69421   0.62719   0.00000  Uiso   1.00
H1289  H     0.10026   0.99806   0.75758   0.00000  Uiso   1.00
H1290  H     0.00448   0.79373   0.71661   0.00000  Uiso   1.00
H1291  H     0.32910   0.87340   0.78286   0.00000  Uiso   1.00
H1292  H     0.11782   0.69610   0.66325   0.00000  Uiso   1.00
H1293  H     0.18210   0.72880   0.64117   0.00000  Uiso   1.00
H1294  H     0.14031   0.68424   0.60642   0.00000  Uiso   1.00
N1295  N     0.31678   0.81932   0.73783   0.00000  Uiso   1.00
N1296  N     0.01656   0.84735   0.76217   0.00000  Uiso   1.00
O1297  O     0.12975   0.91286   0.75299   0.00000  Uiso   1.00
O1298  O     0.22088   0.91791   0.88662   0.00000  Uiso   1.00
O1299  O     0.24301   0.95543   0.54536   0.00000  Uiso   1.00
O1300  O     0.08030   0.71175   0.95225   0.00000  Uiso   1.00
O1301  O     0.28611   0.93190   0.95879   0.00000  Uiso   1.00
O1302  O     0.06752   0.71618   0.54537   0.00000  Uiso   1.00
O1303  O     0.20358   0.75381   0.74702   0.00000  Uiso   1.00
O1304  O     0.22613   0.90387   0.74519   0.00000  Uiso   1.00
O1305  O     0.10720   0.76279   0.75482   0.00000  Uiso   1.00
O1306  O     0.11847   0.83784   0.81998   0.00000  Uiso   1.00
O1307  O     0.21486   0.82883   0.68003   0.00000  Uiso   1.00
O1308  O     0.21485   0.82885   0.81218   0.00000  Uiso   1.00
O1309  O     0.11848   0.83781   0.68783   0.00000  Uiso   1.00
O1310  O     0.10309   0.75432   0.62010   0.00000  Uiso   1.00
Zn1311 Zn    0.10231   0.83933   0.75521   0.00000  Uiso   1.00
Zn1312 Zn    0.23102   0.82734   0.74479   0.00000  Uiso   1.00
C1313  C     0.51495   0.93144   0.74894   0.00000  Uiso   1.00
C1314  C     0.53849   0.87091   0.90673   0.00000  Uiso   1.00
C1315  C     0.49622   0.83210   0.61621   0.00000  Uiso   1.00
C1316  C     0.50494   0.83371   0.88403   0.00000  Uiso   1.00
C1317  C     0.52490   0.87205   0.59305   0.00000  Uiso   1.00
C1318  C     0.47442   0.79370   0.90637   0.00000  Uiso   1.00
C1319  C     0.52886   0.87056   0.54674   0.00000  Uiso   1.00
C1320  C     0.47556   0.78979   0.95271   0.00000  Uiso   1.00
C1321  C     0.50289   0.82842   0.52347   0.00000  Uiso   1.00
C1322  C     0.50690   0.82792   0.97648   0.00000  Uiso   1.00
C1323  C     0.46952   0.78942   0.54714   0.00000  Uiso   1.00
C1324  C     0.48510   0.73525   0.75170   0.00000  Uiso   1.00
C1325  C     0.54088   0.86692   0.95331   0.00000  Uiso   1.00
C1326  C     0.55916   0.91036   0.52340   0.00000  Uiso   1.00
C1327  C     0.44390   0.74977   0.97564   0.00000  Uiso   1.00
C1328  C     0.47158   0.71470   0.63285   0.00000  Uiso   1.00
C1329  C     0.60545   0.91452   0.85976   0.00000  Uiso   1.00
C1330  C     0.54260   0.99546   0.53109   0.00000  Uiso   1.00
C1331  C     0.45197   0.67499   0.93427   0.00000  Uiso   1.00
C1332  C     0.33474   0.90054   0.95589   0.00000  Uiso   1.00
C1333  C     0.37656   0.91473   0.99266   0.00000  Uiso   1.00
C1334  C     0.36550   0.88349   0.53549   0.00000  Uiso   1.00
C1335  C     0.57321   0.90349   0.97795   0.00000  Uiso   1.00
C1336  C     0.34312   0.72833   0.53993   0.00000  Uiso   1.00
C1337  C     0.64947   0.75243   0.58310   0.00000  Uiso   1.00
C1338  C     0.64089   0.71347   0.62131   0.00000  Uiso   1.00
C1339  C     0.43767   0.75167   0.52291   0.00000  Uiso   1.00
C1340  C     0.52301   0.98571   0.74858   0.00000  Uiso   1.00
C1341  C     0.47718   0.68100   0.75321   0.00000  Uiso   1.00
C1342  C     0.50159   0.83523   0.83640   0.00000  Uiso   1.00
C1343  C     0.49872   0.83300   0.66373   0.00000  Uiso   1.00
C1344  C     0.46832   0.79058   0.59448   0.00000  Uiso   1.00
H1345  H     0.54561   0.90351   0.61157   0.00000  Uiso   1.00
H1346  H     0.59588   0.92036   0.82432   0.00000  Uiso   1.00
H1347  H     0.62785   0.87757   0.86286   0.00000  Uiso   1.00
H1348  H     0.63524   0.94710   0.86888   0.00000  Uiso   1.00
H1349  H     0.54950   0.69685   0.55251   0.00000  Uiso   1.00
H1350  H     0.49602   0.98447   0.53442   0.00000  Uiso   1.00
H1351  H     0.55553   0.67356   0.99605   0.00000  Uiso   1.00
H1352  H     0.48936   0.69261   0.91456   0.00000  Uiso   1.00
H1353  H     0.42875   0.98183   0.91120   0.00000  Uiso   1.00
H1354  H     0.46767   0.98474   0.96125   0.00000  Uiso   1.00
H1355  H     0.35808   0.90877   0.92321   0.00000  Uiso   1.00
H1356  H     0.44853   0.76645   0.88718   0.00000  Uiso   1.00
H1357  H     0.65787   0.85784   0.95498   0.00000  Uiso   1.00
H1358  H     0.42048   0.90642   0.97929   0.00000  Uiso   1.00
H1359  H     0.37556   0.95665   0.50098   0.00000  Uiso   1.00
H1360  H     0.65898   0.89430   0.55412   0.00000  Uiso   1.00
H1361  H     0.40124   0.89137   0.55799   0.00000  Uiso   1.00
H1362  H     0.36317   0.84158   0.52723   0.00000  Uiso   1.00
H1363  H     0.65281   0.69183   0.53187   0.00000  Uiso   1.00
H1364  H     0.33685   0.75442   0.51126   0.00000  Uiso   1.00
H1365  H     0.34314   0.78619   0.59403   0.00000  Uiso   1.00
H1366  H     0.60723   0.76755   0.57596   0.00000  Uiso   1.00
H1367  H     0.56660   0.66864   0.74418   0.00000  Uiso   1.00
H1368  H     0.60790   0.68309   0.61342   0.00000  Uiso   1.00
H1369  H     0.62640   0.73386   0.65271   0.00000  Uiso   1.00
H1370  H     0.34782   0.69421   0.62719   0.00000  Uiso   1.00
H1371  H     0.43359   0.99806   0.75758   0.00000  Uiso   1.00
H1372  H     0.33782   0.79373   0.71661   0.00000  Uiso   1.00
H1373  H     0.66243   0.87340   0.78286   0.00000  Uiso   1.00
H1374  H     0.45116   0.69610   0.66325   0.00000  Uiso   1.00
H1375  H     0.51544   0.72880   0.64117   0.00000  Uiso   1.00
H1376  H     0.47364   0.68424   0.60642   0.00000  Uiso   1.00
N1377  N     0.65011   0.81932   0.73783   0.00000  Uiso   1.00
N1378  N     0.34989   0.84735   0.76217   0.00000  Uiso   1.00
O1379  O     0.46308   0.91286   0.75299   0.00000  Uiso   1.00
O1380  O     0.55422   0.91791   0.88662   0.00000  Uiso   1.00
O1381  O     0.57634   0.95543   0.54536   0.00000  Uiso   1.00
O1382  O     0.41363   0.71175   0.95225   0.00000  Uiso   1.00
O1383  O     0.61944   0.93190   0.95879   0.00000  Uiso   1.00
O1384  O     0.40086   0.71618   0.54537   0.00000  Uiso   1.00
O1385  O     0.53692   0.75381   0.74702   0.00000  Uiso   1.00
O1386  O     0.55946   0.90387   0.74519   0.00000  Uiso   1.00
O1387  O     0.44054   0.76279   0.75482   0.00000  Uiso   1.00
O1388  O     0.45181   0.83784   0.81998   0.00000  Uiso   1.00
O1389  O     0.54819   0.82883   0.68003   0.00000  Uiso   1.00
O1390  O     0.54819   0.82885   0.81218   0.00000  Uiso   1.00
O1391  O     0.45181   0.83781   0.68783   0.00000  Uiso   1.00
O1392  O     0.43643   0.75432   0.62010   0.00000  Uiso   1.00
Zn1393 Zn    0.43565   0.83933   0.75521   0.00000  Uiso   1.00
Zn1394 Zn    0.56435   0.82734   0.74479   0.00000  Uiso   1.00
C1395  C     0.84829   0.93144   0.74894   0.00000  Uiso   1.00
C1396  C     0.87183   0.87091   0.90673   0.00000  Uiso   1.00
C1397  C     0.82955   0.83210   0.61621   0.00000  Uiso   1.00
C1398  C     0.83827   0.83371   0.88403   0.00000  Uiso   1.00
C1399  C     0.85823   0.87205   0.59305   0.00000  Uiso   1.00
C1400  C     0.80775   0.79370   0.90637   0.00000  Uiso   1.00
C1401  C     0.86219   0.87056   0.54674   0.00000  Uiso   1.00
C1402  C     0.80890   0.78979   0.95271   0.00000  Uiso   1.00
C1403  C     0.83622   0.82842   0.52347   0.00000  Uiso   1.00
C1404  C     0.84023   0.82792   0.97648   0.00000  Uiso   1.00
C1405  C     0.80285   0.78942   0.54714   0.00000  Uiso   1.00
C1406  C     0.81844   0.73525   0.75170   0.00000  Uiso   1.00
C1407  C     0.87421   0.86692   0.95331   0.00000  Uiso   1.00
C1408  C     0.89250   0.91036   0.52340   0.00000  Uiso   1.00
C1409  C     0.77723   0.74977   0.97564   0.00000  Uiso   1.00
C1410  C     0.80492   0.71470   0.63285   0.00000  Uiso   1.00
C1411  C     0.93878   0.91452   0.85976   0.00000  Uiso   1.00
C1412  C     0.87593   0.99546   0.53109   0.00000  Uiso   1.00
C1413  C     0.78530   0.67499   0.93427   0.00000  Uiso   1.00
C1414  C     0.66807   0.90054   0.95589   0.00000  Uiso   1.00
C1415  C     0.70990   0.91473   0.99266   0.00000  Uiso   1.00
C1416  C     0.69883   0.88349   0.53549   0.00000  Uiso   1.00
C1417  C     0.90654   0.90349   0.97795   0.00000  Uiso   1.00
C1418  C     0.67646   0.72833   0.53993   0.00000  Uiso   1.00
C1419  C     0.98280   0.75243   0.58310   0.00000  Uiso   1.00
C1420  C     0.97423   0.71347   0.62131   0.00000  Uiso   1.00
C1421  C     0.77100   0.75167   0.52291   0.00000  Uiso   1.00
C1422  C     0.85635   0.98571   0.74858   0.00000  Uiso   1.00
C1423  C     0.81051   0.68100   0.75321   0.00000  Uiso   1.00
C1424  C     0.83492   0.83523   0.83640   0.00000  Uiso   1.00
C1425  C     0.83206   0.83300   0.66373   0.00000  Uiso   1.00
C1426  C     0.80165   0.79058   0.59448   0.00000  Uiso   1.00
H1427  H     0.87894   0.90351   0.61157   0.00000  Uiso   1.00
H1428  H     0.92922   0.92036   0.82432   0.00000  Uiso   1.00
H1429  H     0.96118   0.87757   0.86286   0.00000  Uiso   1.00
H1430  H     0.96857   0.94710   0.86888   0.00000  Uiso   1.00
H1431  H     0.88283   0.69685   0.55251   0.00000  Uiso   1.00
H1432  H     0.82935   0.98447   0.53442   0.00000  Uiso   1.00
H1433  H     0.88886   0.67356   0.99605   0.00000  Uiso   1.00
H1434  H     0.82270   0.69261   0.91456   0.00000  Uiso   1.00
H1435  H     0.76209   0.98183   0.91120   0.00000  Uiso   1.00
H1436  H     0.80101   0.98474   0.96125   0.00000  Uiso   1.00
H1437  H     0.69141   0.90877   0.92321   0.00000  Uiso   1.00
H1438  H     0.78186   0.76645   0.88718   0.00000  Uiso   1.00
H1439  H     0.99120   0.85784   0.95498   0.00000  Uiso   1.00
H1440  H     0.75381   0.90642   0.97929   0.00000  Uiso   1.00
H1441  H     0.70889   0.95665   0.50098   0.00000  Uiso   1.00
H1442  H     0.99231   0.89430   0.55412   0.00000  Uiso   1.00
H1443  H     0.73457   0.89137   0.55799   0.00000  Uiso   1.00
H1444  H     0.69651   0.84158   0.52723   0.00000  Uiso   1.00
H1445  H     0.98614   0.69183   0.53187   0.00000  Uiso   1.00
H1446  H     0.67018   0.75442   0.51126   0.00000  Uiso   1.00
H1447  H     0.67647   0.78619   0.59403   0.00000  Uiso   1.00
H1448  H     0.94056   0.76755   0.57596   0.00000  Uiso   1.00
H1449  H     0.89994   0.66864   0.74418   0.00000  Uiso   1.00
H1450  H     0.94124   0.68309   0.61342   0.00000  Uiso   1.00
H1451  H     0.95973   0.73386   0.65271   0.00000  Uiso   1.00
H1452  H     0.68115   0.69421   0.62719   0.00000  Uiso   1.00
H1453  H     0.76692   0.99806   0.75758   0.00000  Uiso   1.00
H1454  H     0.67115   0.79373   0.71661   0.00000  Uiso   1.00
H1455  H     0.99577   0.87340   0.78286   0.00000  Uiso   1.00
H1456  H     0.78449   0.69610   0.66325   0.00000  Uiso   1.00
H1457  H     0.84877   0.72880   0.64117   0.00000  Uiso   1.00
H1458  H     0.80698   0.68424   0.60642   0.00000  Uiso   1.00
N1459  N     0.98344   0.81932   0.73783   0.00000  Uiso   1.00
N1460  N     0.68322   0.84735   0.76217   0.00000  Uiso   1.00
O1461  O     0.79642   0.91286   0.75299   0.00000  Uiso   1.00
O1462  O     0.88755   0.91791   0.88662   0.00000  Uiso   1.00
O1463  O     0.90967   0.95543   0.54536   0.00000  Uiso   1.00
O1464  O     0.74697   0.71175   0.95225   0.00000  Uiso   1.00
O1465  O     0.95277   0.93190   0.95879   0.00000  Uiso   1.00
O1466  O     0.73419   0.71618   0.54537   0.00000  Uiso   1.00
O1467  O     0.87025   0.75381   0.74702   0.00000  Uiso   1.00
O1468  O     0.89280   0.90387   0.74519   0.00000  Uiso   1.00
O1469  O     0.77387   0.76279   0.75482   0.00000  Uiso   1.00
O1470  O     0.78514   0.83784   0.81998   0.00000  Uiso   1.00
O1471  O     0.88153   0.82883   0.68003   0.00000  Uiso   1.00
O1472  O     0.88152   0.82885   0.81218   0.00000  Uiso   1.00
O1473  O     0.78515   0.83781   0.68783   0.00000  Uiso   1.00
O1474  O     0.76976   0.75432   0.62010   0.00000  Uiso   1.00
Zn1475 Zn    0.76898   0.83933   0.75521   0.00000  Uiso   1.00
Zn1476 Zn    0.89769   0.82734   0.74479   0.00000  Uiso   1.00
loop_
_geom_bond_atom_site_label_1
_geom_bond_atom_site_label_2
_geom_bond_distance
_geom_bond_site_symmetry_2
_ccdc_geom_bond_type
C1     O74     1.286   .     A
C1     C28     1.406   .     S
C1     O67     1.286   .     A
C2     O68     1.388   .     S
C2     C13     1.398   .     A
C2     C4      1.403   .     A
C3     C31     1.420   .     S
C3     C5      1.379   .     A
C3     C32     1.399   .     A
C4     C6      1.388   .     A
C4     C30     1.427   .     S
C5     H33     1.086   .     S
C5     C7      1.377   .     A
C6     H44     1.085   .     S
C6     C8      1.388   .     A
C7     C14     1.396   .     A
C7     C9      1.413   .     A
C8     C15     1.408   .     A
C8     C10     1.407   .     A
C9     C11     1.420   .     A
C9     C748    1.398   1_554 S
C10    C13     1.419   .     A
C10    C747    1.398   .     S
C11    C27     1.414   .     A
C11    C32     1.409   .     A
C12    C29     1.406   .     S
C12    O73     1.285   .     A
C12    O75     1.286   .     A
C13    C23     1.406   .     A
C14    O69     1.381   .     S
C14    C761    1.386   1_554 S
C15    O70     1.386   .     S
C15    C765    1.408   .     S
C16    H63     1.113   .     S
C16    H62     1.107   .     S
C16    O80     1.410   .     S
C16    H64     1.105   .     S
C17    H36     1.109   .     S
C17    H34     1.105   .     S
C17    O68     1.410   .     S
C17    H35     1.116   .     S
C18    O69     1.413   .     S
C18    H38     1.114   .     S
C18    H283    1.103   .     S
C18    H1023   1.112   1_554 S
C19    H40     1.111   .     S
C19    O70     1.414   .     S
C19    H533    1.108   1_545 S
C19    H534    1.104   1_545 S
C20    H43     1.109   .     S
C20    C21     1.538   .     S
C20    H209    1.118   1_455 S
C20    O235    1.423   1_455 S
C21    H46     1.110   .     S
C21    C760    1.524   .     S
C21    H785    1.108   .     S
C22    H50     1.106   .     S
C22    H49     1.110   .     S
C22    C759    1.524   1_554 S
C22    H212    1.103   1_455 S
C23    O71     1.382   .     S
C23    C752    1.386   .     S
C24    H52     1.116   .     S
C24    O72     1.419   .     S
C24    C189    1.536   1_455 S
C24    H215    1.102   1_455 S
C25    H54     1.111   .     S
C25    C26     1.530   .     S
C25    C106    1.536   .     S
C25    H135    1.109   .     S
C26    H56     1.108   .     S
C26    H57     1.110   .     S
C26    H140    1.108   .     S
C27    O72     1.385   .     S
C27    C753    1.408   1_554 S
C28    C275    1.329   .     S
C28    H301    1.088   .     S
C29    C520    1.329   1_545 S
C29    H551    1.088   1_545 S
C30    O76     1.293   .     A
C30    O78     1.290   .     A
C31    O77     1.289   .     A
C31    O79     1.288   .     A
C32    O80     1.384   .     S
H37    C510    1.103   1_545 S
H39    C1248   1.112   1_545 S
H41    C265    1.108   .     S
H42    C265    1.104   .     S
H45    C102    1.118   .     S
H47    C759    1.108   1_554 S
H48    C104    1.103   .     S
H51    C106    1.102   .     S
H53    C189    1.109   1_455 S
H55    C520    1.088   1_545 S
H58    C190    1.108   1_455 S
H59    C275    1.088   .     S
H60    N229    1.029   1_455 S
H61    N148    1.025   .     S
N65    Zn82    2.026   .     S
N65    H142    1.029   .     S
N65    N148    1.283   .     S
N66    Zn81    2.026   .     S
N66    H225    1.025   1_455 S
N66    N229    1.283   1_455 S
O67    Zn81    1.978   .     S
O71    C102    1.423   .     S
O73    Zn82    1.978   .     S
O74    Zn82    1.984   .     S
O75    Zn81    1.984   .     S
O76    Zn81    1.987   .     S
O77    Zn82    1.987   .     S
O78    Zn82    2.022   .     S
O79    Zn81    2.022   .     S
C83    O156    1.286   .     A
C83    C110    1.406   .     S
C83    O149    1.286   .     A
C84    O150    1.388   .     S
C84    C95     1.398   .     A
C84    C86     1.403   .     A
C85    C113    1.420   .     S
C85    C87     1.379   .     A
C85    C114    1.399   .     A
C86    C88     1.388   .     A
C86    C112    1.427   .     S
C87    H115    1.086   .     S
C87    C89     1.377   .     A
C88    H126    1.085   .     S
C88    C90     1.388   .     A
C89    C96     1.396   .     A
C89    C91     1.413   .     A
C90    C97     1.408   .     A
C90    C92     1.407   .     A
C91    C93     1.420   .     A
C91    C830    1.398   1_554 S
C92    C95     1.419   .     A
C92    C829    1.398   .     S
C93    C109    1.414   .     A
C93    C114    1.409   .     A
C94    C111    1.406   .     S
C94    O155    1.285   .     A
C94    O157    1.286   .     A
C95    C105    1.406   .     A
C96    O151    1.381   .     S
C96    C843    1.386   1_554 S
C97    O152    1.386   .     S
C97    C847    1.408   .     S
C98    H145    1.113   .     S
C98    H144    1.107   .     S
C98    O162    1.410   .     S
C98    H146    1.105   .     S
C99    H118    1.109   .     S
C99    H116    1.105   .     S
C99    O150    1.410   .     S
C99    H117    1.116   .     S
C100   O151    1.413   .     S
C100   H120    1.114   .     S
C100   H365    1.103   .     S
C100   H1105   1.112   1_554 S
C101   H122    1.111   .     S
C101   O152    1.414   .     S
C101   H615    1.108   1_545 S
C101   H616    1.104   1_545 S
C102   H125    1.109   .     S
C102   C103    1.538   .     S
C103   H128    1.110   .     S
C103   C842    1.524   .     S
C103   H867    1.108   .     S
C104   H132    1.106   .     S
C104   H131    1.110   .     S
C104   C841    1.524   1_554 S
C105   O153    1.382   .     S
C105   C834    1.386   .     S
C106   H134    1.116   .     S
C106   O154    1.419   .     S
C107   H136    1.111   .     S
C107   C108    1.530   .     S
C107   C188    1.536   .     S
C107   H217    1.109   .     S
C108   H138    1.108   .     S
C108   H139    1.110   .     S
C108   H222    1.108   .     S
C109   O154    1.385   .     S
C109   C835    1.408   1_554 S
C110   C357    1.329   .     S
C110   H383    1.088   .     S
C111   C602    1.329   1_545 S
C111   H633    1.088   1_545 S
C112   O158    1.293   .     A
C112   O160    1.290   .     A
C113   O159    1.289   .     A
C113   O161    1.288   .     A
C114   O162    1.384   .     S
H119   C592    1.103   1_545 S
H121   C1330   1.112   1_545 S
H123   C347    1.108   .     S
H124   C347    1.104   .     S
H127   C184    1.118   .     S
H129   C841    1.108   1_554 S
H130   C186    1.103   .     S
H133   C188    1.102   .     S
H137   C602    1.088   1_545 S
H141   C357    1.088   .     S
H143   N230    1.025   .     S
N147   Zn164   2.026   .     S
N147   H224    1.029   .     S
N147   N230    1.283   .     S
N148   Zn163   2.026   .     S
O149   Zn163   1.978   .     S
O153   C184    1.423   .     S
O155   Zn164   1.978   .     S
O156   Zn164   1.984   .     S
O157   Zn163   1.984   .     S
O158   Zn163   1.987   .     S
O159   Zn164   1.987   .     S
O160   Zn164   2.022   .     S
O161   Zn163   2.022   .     S
C165   O238    1.286   .     A
C165   C192    1.406   .     S
C165   O231    1.286   .     A
C166   O232    1.388   .     S
C166   C177    1.398   .     A
C166   C168    1.403   .     A
C167   C195    1.420   .     S
C167   C169    1.379   .     A
C167   C196    1.399   .     A
C168   C170    1.388   .     A
C168   C194    1.427   .     S
C169   H197    1.086   .     S
C169   C171    1.377   .     A
C170   H208    1.085   .     S
C170   C172    1.388   .     A
C171   C178    1.396   .     A
C171   C173    1.413   .     A
C172   C179    1.408   .     A
C172   C174    1.407   .     A
C173   C175    1.420   .     A
C173   C912    1.398   1_554 S
C174   C177    1.419   .     A
C174   C911    1.398   .     S
C175   C191    1.414   .     A
C175   C196    1.409   .     A
C176   C193    1.406   .     S
C176   O237    1.285   .     A
C176   O239    1.286   .     A
C177   C187    1.406   .     A
C178   O233    1.381   .     S
C178   C925    1.386   1_554 S
C179   O234    1.386   .     S
C179   C929    1.408   .     S
C180   H227    1.113   .     S
C180   H226    1.107   .     S
C180   O244    1.410   .     S
C180   H228    1.105   .     S
C181   H200    1.109   .     S
C181   H198    1.105   .     S
C181   O232    1.410   .     S
C181   H199    1.116   .     S
C182   O233    1.413   .     S
C182   H202    1.114   .     S
C182   H447    1.103   .     S
C182   H1187   1.112   1_554 S
C183   H204    1.111   .     S
C183   O234    1.414   .     S
C183   H697    1.108   1_545 S
C183   H698    1.104   1_545 S
C184   H207    1.109   .     S
C184   C185    1.538   .     S
C185   H210    1.110   .     S
C185   C924    1.524   .     S
C185   H949    1.108   .     S
C186   H214    1.106   .     S
C186   H213    1.110   .     S
C186   C923    1.524   1_554 S
C187   O235    1.382   .     S
C187   C916    1.386   .     S
C188   H216    1.116   .     S
C188   O236    1.419   .     S
C189   H218    1.111   .     S
C189   C190    1.530   .     S
C189   C24     1.536   1_655 S
C189   H53     1.109   1_655 S
C190   H220    1.108   .     S
C190   H221    1.110   .     S
C190   H58     1.108   1_655 S
C191   O236    1.385   .     S
C191   C917    1.408   1_554 S
C192   C439    1.329   .     S
C192   H465    1.088   .     S
C193   C684    1.329   1_545 S
C193   H715    1.088   1_545 S
C194   O240    1.293   .     A
C194   O242    1.290   .     A
C195   O241    1.289   .     A
C195   O243    1.288   .     A
C196   O244    1.384   .     S
H201   C674    1.103   1_545 S
H203   C1412   1.112   1_545 S
H205   C429    1.108   .     S
H206   C429    1.104   .     S
H209   C20     1.118   1_655 S
H211   C923    1.108   1_554 S
H212   C22     1.103   1_655 S
H215   C24     1.102   1_655 S
H219   C684    1.088   1_545 S
H223   C439    1.088   .     S
H225   N66     1.025   1_655 S
N229   Zn246   2.026   .     S
N229   H60     1.029   1_655 S
N229   N66     1.283   1_655 S
N230   Zn245   2.026   .     S
O231   Zn245   1.978   .     S
O235   C20     1.423   1_655 S
O237   Zn246   1.978   .     S
O238   Zn246   1.984   .     S
O239   Zn245   1.984   .     S
O240   Zn245   1.987   .     S
O241   Zn246   1.987   .     S
O242   Zn246   2.022   .     S
O243   Zn245   2.022   .     S
C247   O320    1.286   .     A
C247   C274    1.406   .     S
C247   O313    1.286   .     A
C248   O314    1.388   .     S
C248   C259    1.398   .     A
C248   C250    1.403   .     A
C249   C277    1.420   .     S
C249   C251    1.379   .     A
C249   C278    1.399   .     A
C250   C252    1.388   .     A
C250   C276    1.427   .     S
C251   H279    1.086   .     S
C251   C253    1.377   .     A
C252   H290    1.085   .     S
C252   C254    1.388   .     A
C253   C260    1.396   .     A
C253   C255    1.413   .     A
C254   C261    1.408   .     A
C254   C256    1.407   .     A
C255   C257    1.420   .     A
C255   C994    1.398   1_554 S
C256   C259    1.419   .     A
C256   C993    1.398   .     S
C257   C273    1.414   .     A
C257   C278    1.409   .     A
C258   C275    1.406   .     S
C258   O319    1.285   .     A
C258   O321    1.286   .     A
C259   C269    1.406   .     A
C260   O315    1.381   .     S
C260   C1007   1.386   1_554 S
C261   O316    1.386   .     S
C261   C1011   1.408   .     S
C262   H309    1.113   .     S
C262   H308    1.107   .     S
C262   O326    1.410   .     S
C262   H310    1.105   .     S
C263   H282    1.109   .     S
C263   H280    1.105   .     S
C263   O314    1.410   .     S
C263   H281    1.116   .     S
C264   O315    1.413   .     S
C264   H284    1.114   .     S
C264   H529    1.103   .     S
C264   H1269   1.112   1_554 S
C265   H286    1.111   .     S
C265   O316    1.414   .     S
C266   H289    1.109   .     S
C266   C267    1.538   .     S
C266   H455    1.118   1_455 S
C266   O481    1.423   1_455 S
C267   H292    1.110   .     S
C267   C1006   1.524   .     S
C267   H1031   1.108   .     S
C268   H296    1.106   .     S
C268   H295    1.110   .     S
C268   C1005   1.524   1_554 S
C268   H458    1.103   1_455 S
C269   O317    1.382   .     S
C269   C998    1.386   .     S
C270   H298    1.116   .     S
C270   O318    1.419   .     S
C270   C435    1.536   1_455 S
C270   H461    1.102   1_455 S
C271   H300    1.111   .     S
C271   C272    1.530   .     S
C271   C352    1.536   .     S
C271   H381    1.109   .     S
C272   H302    1.108   .     S
C272   H303    1.110   .     S
C272   H386    1.108   .     S
C273   O318    1.385   .     S
C273   C999    1.408   1_554 S
C274   C521    1.329   .     S
C274   H547    1.088   .     S
C276   O322    1.293   .     A
C276   O324    1.290   .     A
C277   O323    1.289   .     A
C277   O325    1.288   .     A
C278   O326    1.384   .     S
H285   C756    1.112   .     S
H287   C511    1.108   .     S
H288   C511    1.104   .     S
H291   C348    1.118   .     S
H293   C1005   1.108   1_554 S
H294   C350    1.103   .     S
H297   C352    1.102   .     S
H299   C435    1.109   1_455 S
H304   C436    1.108   1_455 S
H305   C521    1.088   .     S
H306   N475    1.029   1_455 S
H307   N394    1.025   .     S
N311   Zn328   2.026   .     S
N311   H388    1.029   .     S
N311   N394    1.283   .     S
N312   Zn327   2.026   .     S
N312   H471    1.025   1_455 S
N312   N475    1.283   1_455 S
O313   Zn327   1.978   .     S
O317   C348    1.423   .     S
O319   Zn328   1.978   .     S
O320   Zn328   1.984   .     S
O321   Zn327   1.984   .     S
O322   Zn327   1.987   .     S
O323   Zn328   1.987   .     S
O324   Zn328   2.022   .     S
O325   Zn327   2.022   .     S
C329   O402    1.286   .     A
C329   C356    1.406   .     S
C329   O395    1.286   .     A
C330   O396    1.388   .     S
C330   C341    1.398   .     A
C330   C332    1.403   .     A
C331   C359    1.420   .     S
C331   C333    1.379   .     A
C331   C360    1.399   .     A
C332   C334    1.388   .     A
C332   C358    1.427   .     S
C333   H361    1.086   .     S
C333   C335    1.377   .     A
C334   H372    1.085   .     S
C334   C336    1.388   .     A
C335   C342    1.396   .     A
C335   C337    1.413   .     A
C336   C343    1.408   .     A
C336   C338    1.407   .     A
C337   C339    1.420   .     A
C337   C1076   1.398   1_554 S
C338   C341    1.419   .     A
C338   C1075   1.398   .     S
C339   C355    1.414   .     A
C339   C360    1.409   .     A
C340   C357    1.406   .     S
C340   O401    1.285   .     A
C340   O403    1.286   .     A
C341   C351    1.406   .     A
C342   O397    1.381   .     S
C342   C1089   1.386   1_554 S
C343   O398    1.386   .     S
C343   C1093   1.408   .     S
C344   H391    1.113   .     S
C344   H390    1.107   .     S
C344   O408    1.410   .     S
C344   H392    1.105   .     S
C345   H364    1.109   .     S
C345   H362    1.105   .     S
C345   O396    1.410   .     S
C345   H363    1.116   .     S
C346   O397    1.413   .     S
C346   H366    1.114   .     S
C346   H611    1.103   .     S
C346   H1351   1.112   1_554 S
C347   H368    1.111   .     S
C347   O398    1.414   .     S
C348   H371    1.109   .     S
C348   C349    1.538   .     S
C349   H374    1.110   .     S
C349   C1088   1.524   .     S
C349   H1113   1.108   .     S
C350   H378    1.106   .     S
C350   H377    1.110   .     S
C350   C1087   1.524   1_554 S
C351   O399    1.382   .     S
C351   C1080   1.386   .     S
C352   H380    1.116   .     S
C352   O400    1.419   .     S
C353   H382    1.111   .     S
C353   C354    1.530   .     S
C353   C434    1.536   .     S
C353   H463    1.109   .     S
C354   H384    1.108   .     S
C354   H385    1.110   .     S
C354   H468    1.108   .     S
C355   O400    1.385   .     S
C355   C1081   1.408   1_554 S
C356   C603    1.329   .     S
C356   H629    1.088   .     S
C358   O404    1.293   .     A
C358   O406    1.290   .     A
C359   O405    1.289   .     A
C359   O407    1.288   .     A
C360   O408    1.384   .     S
H367   C838    1.112   .     S
H369   C593    1.108   .     S
H370   C593    1.104   .     S
H373   C430    1.118   .     S
H375   C1087   1.108   1_554 S
H376   C432    1.103   .     S
H379   C434    1.102   .     S
H387   C603    1.088   .     S
H389   N476    1.025   .     S
N393   Zn410   2.026   .     S
N393   H470    1.029   .     S
N393   N476    1.283   .     S
N394   Zn409   2.026   .     S
O395   Zn409   1.978   .     S
O399   C430    1.423   .     S
O401   Zn410   1.978   .     S
O402   Zn410   1.984   .     S
O403   Zn409   1.984   .     S
O404   Zn409   1.987   .     S
O405   Zn410   1.987   .     S
O406   Zn410   2.022   .     S
O407   Zn409   2.022   .     S
C411   O484    1.286   .     A
C411   C438    1.406   .     S
C411   O477    1.286   .     A
C412   O478    1.388   .     S
C412   C423    1.398   .     A
C412   C414    1.403   .     A
C413   C441    1.420   .     S
C413   C415    1.379   .     A
C413   C442    1.399   .     A
C414   C416    1.388   .     A
C414   C440    1.427   .     S
C415   H443    1.086   .     S
C415   C417    1.377   .     A
C416   H454    1.085   .     S
C416   C418    1.388   .     A
C417   C424    1.396   .     A
C417   C419    1.413   .     A
C418   C425    1.408   .     A
C418   C420    1.407   .     A
C419   C421    1.420   .     A
C419   C1158   1.398   1_554 S
C420   C423    1.419   .     A
C420   C1157   1.398   .     S
C421   C437    1.414   .     A
C421   C442    1.409   .     A
C422   C439    1.406   .     S
C422   O483    1.285   .     A
C422   O485    1.286   .     A
C423   C433    1.406   .     A
C424   O479    1.381   .     S
C424   C1171   1.386   1_554 S
C425   O480    1.386   .     S
C425   C1175   1.408   .     S
C426   H473    1.113   .     S
C426   H472    1.107   .     S
C426   O490    1.410   .     S
C426   H474    1.105   .     S
C427   H446    1.109   .     S
C427   H444    1.105   .     S
C427   O478    1.410   .     S
C427   H445    1.116   .     S
C428   O479    1.413   .     S
C428   H448    1.114   .     S
C428   H693    1.103   .     S
C428   H1433   1.112   1_554 S
C429   H450    1.111   .     S
C429   O480    1.414   .     S
C430   H453    1.109   .     S
C430   C431    1.538   .     S
C431   H456    1.110   .     S
C431   C1170   1.524   .     S
C431   H1195   1.108   .     S
C432   H460    1.106   .     S
C432   H459    1.110   .     S
C432   C1169   1.524   1_554 S
C433   O481    1.382   .     S
C433   C1162   1.386   .     S
C434   H462    1.116   .     S
C434   O482    1.419   .     S
C435   H464    1.111   .     S
C435   C436    1.530   .     S
C435   C270    1.536   1_655 S
C435   H299    1.109   1_655 S
C436   H466    1.108   .     S
C436   H467    1.110   .     S
C436   H304    1.108   1_655 S
C437   O482    1.385   .     S
C437   C1163   1.408   1_554 S
C438   C685    1.329   .     S
C438   H711    1.088   .     S
C440   O486    1.293   .     A
C440   O488    1.290   .     A
C441   O487    1.289   .     A
C441   O489    1.288   .     A
C442   O490    1.384   .     S
H449   C920    1.112   .     S
H451   C675    1.108   .     S
H452   C675    1.104   .     S
H455   C266    1.118   1_655 S
H457   C1169   1.108   1_554 S
H458   C268    1.103   1_655 S
H461   C270    1.102   1_655 S
H469   C685    1.088   .     S
H471   N312    1.025   1_655 S
N475   Zn492   2.026   .     S
N475   H306    1.029   1_655 S
N475   N312    1.283   1_655 S
N476   Zn491   2.026   .     S
O477   Zn491   1.978   .     S
O481   C266    1.423   1_655 S
O483   Zn492   1.978   .     S
O484   Zn492   1.984   .     S
O485   Zn491   1.984   .     S
O486   Zn491   1.987   .     S
O487   Zn492   1.987   .     S
O488   Zn492   2.022   .     S
O489   Zn491   2.022   .     S
C493   O566    1.286   .     A
C493   C520    1.406   .     S
C493   O559    1.286   .     A
C494   O560    1.388   .     S
C494   C505    1.398   .     A
C494   C496    1.403   .     A
C495   C523    1.420   .     S
C495   C497    1.379   .     A
C495   C524    1.399   .     A
C496   C498    1.388   .     A
C496   C522    1.427   .     S
C497   H525    1.086   .     S
C497   C499    1.377   .     A
C498   H536    1.085   .     S
C498   C500    1.388   .     A
C499   C506    1.396   .     A
C499   C501    1.413   .     A
C500   C507    1.408   .     A
C500   C502    1.407   .     A
C501   C503    1.420   .     A
C501   C1240   1.398   1_554 S
C502   C505    1.419   .     A
C502   C1239   1.398   .     S
C503   C519    1.414   .     A
C503   C524    1.409   .     A
C504   C521    1.406   .     S
C504   O565    1.285   .     A
C504   O567    1.286   .     A
C505   C515    1.406   .     A
C506   O561    1.381   .     S
C506   C1253   1.386   1_554 S
C507   O562    1.386   .     S
C507   C1257   1.408   .     S
C508   H555    1.113   .     S
C508   H554    1.107   .     S
C508   O572    1.410   .     S
C508   H556    1.105   .     S
C509   H528    1.109   .     S
C509   H526    1.105   .     S
C509   O560    1.410   .     S
C509   H527    1.116   .     S
C510   O561    1.413   .     S
C510   H530    1.114   .     S
C510   H37     1.103   1_565 S
C510   H777    1.112   1_564 S
C511   H532    1.111   .     S
C511   O562    1.414   .     S
C512   H535    1.109   .     S
C512   C513    1.538   .     S
C512   H701    1.118   1_455 S
C512   O727    1.423   1_455 S
C513   H538    1.110   .     S
C513   C1252   1.524   .     S
C513   H1277   1.108   .     S
C514   H542    1.106   .     S
C514   H541    1.110   .     S
C514   C1251   1.524   1_554 S
C514   H704    1.103   1_455 S
C515   O563    1.382   .     S
C515   C1244   1.386   .     S
C516   H544    1.116   .     S
C516   O564    1.419   .     S
C516   C681    1.536   1_455 S
C516   H707    1.102   1_455 S
C517   H546    1.111   .     S
C517   C518    1.530   .     S
C517   C598    1.536   .     S
C517   H627    1.109   .     S
C518   H548    1.108   .     S
C518   H549    1.110   .     S
C518   H632    1.108   .     S
C519   O564    1.385   .     S
C519   C1245   1.408   1_554 S
C520   C29     1.329   1_565 S
C520   H55     1.088   1_565 S
C522   O568    1.293   .     A
C522   O570    1.290   .     A
C523   O569    1.289   .     A
C523   O571    1.288   .     A
C524   O572    1.384   .     S
H531   C1002   1.112   .     S
H533   C19     1.108   1_565 S
H534   C19     1.104   1_565 S
H537   C594    1.118   .     S
H539   C1251   1.108   1_554 S
H540   C596    1.103   .     S
H543   C598    1.102   .     S
H545   C681    1.109   1_455 S
H550   C682    1.108   1_455 S
H551   C29     1.088   1_565 S
H552   N721    1.029   1_455 S
H553   N640    1.025   .     S
N557   Zn574   2.026   .     S
N557   H634    1.029   .     S
N557   N640    1.283   .     S
N558   Zn573   2.026   .     S
N558   H717    1.025   1_455 S
N558   N721    1.283   1_455 S
O559   Zn573   1.978   .     S
O563   C594    1.423   .     S
O565   Zn574   1.978   .     S
O566   Zn574   1.984   .     S
O567   Zn573   1.984   .     S
O568   Zn573   1.987   .     S
O569   Zn574   1.987   .     S
O570   Zn574   2.022   .     S
O571   Zn573   2.022   .     S
C575   O648    1.286   .     A
C575   C602    1.406   .     S
C575   O641    1.286   .     A
C576   O642    1.388   .     S
C576   C587    1.398   .     A
C576   C578    1.403   .     A
C577   C605    1.420   .     S
C577   C579    1.379   .     A
C577   C606    1.399   .     A
C578   C580    1.388   .     A
C578   C604    1.427   .     S
C579   H607    1.086   .     S
C579   C581    1.377   .     A
C580   H618    1.085   .     S
C580   C582    1.388   .     A
C581   C588    1.396   .     A
C581   C583    1.413   .     A
C582   C589    1.408   .     A
C582   C584    1.407   .     A
C583   C585    1.420   .     A
C583   C1322   1.398   1_554 S
C584   C587    1.419   .     A
C584   C1321   1.398   .     S
C585   C601    1.414   .     A
C585   C606    1.409   .     A
C586   C603    1.406   .     S
C586   O647    1.285   .     A
C586   O649    1.286   .     A
C587   C597    1.406   .     A
C588   O643    1.381   .     S
C588   C1335   1.386   1_554 S
C589   O644    1.386   .     S
C589   C1339   1.408   .     S
C590   H637    1.113   .     S
C590   H636    1.107   .     S
C590   O654    1.410   .     S
C590   H638    1.105   .     S
C591   H610    1.109   .     S
C591   H608    1.105   .     S
C591   O642    1.410   .     S
C591   H609    1.116   .     S
C592   O643    1.413   .     S
C592   H612    1.114   .     S
C592   H119    1.103   1_565 S
C592   H859    1.112   1_564 S
C593   H614    1.111   .     S
C593   O644    1.414   .     S
C594   H617    1.109   .     S
C594   C595    1.538   .     S
C595   H620    1.110   .     S
C595   C1334   1.524   .     S
C595   H1359   1.108   .     S
C596   H624    1.106   .     S
C596   H623    1.110   .     S
C596   C1333   1.524   1_554 S
C597   O645    1.382   .     S
C597   C1326   1.386   .     S
C598   H626    1.116   .     S
C598   O646    1.419   .     S
C599   H628    1.111   .     S
C599   C600    1.530   .     S
C599   C680    1.536   .     S
C599   H709    1.109   .     S
C600   H630    1.108   .     S
C600   H631    1.110   .     S
C600   H714    1.108   .     S
C601   O646    1.385   .     S
C601   C1327   1.408   1_554 S
C602   C111    1.329   1_565 S
C602   H137    1.088   1_565 S
C604   O650    1.293   .     A
C604   O652    1.290   .     A
C605   O651    1.289   .     A
C605   O653    1.288   .     A
C606   O654    1.384   .     S
H613   C1084   1.112   .     S
H615   C101    1.108   1_565 S
H616   C101    1.104   1_565 S
H619   C676    1.118   .     S
H621   C1333   1.108   1_554 S
H622   C678    1.103   .     S
H625   C680    1.102   .     S
H633   C111    1.088   1_565 S
H635   N722    1.025   .     S
N639   Zn656   2.026   .     S
N639   H716    1.029   .     S
N639   N722    1.283   .     S
N640   Zn655   2.026   .     S
O641   Zn655   1.978   .     S
O645   C676    1.423   .     S
O647   Zn656   1.978   .     S
O648   Zn656   1.984   .     S
O649   Zn655   1.984   .     S
O650   Zn655   1.987   .     S
O651   Zn656   1.987   .     S
O652   Zn656   2.022   .     S
O653   Zn655   2.022   .     S
C657   O730    1.286   .     A
C657   C684    1.406   .     S
C657   O723    1.286   .     A
C658   O724    1.388   .     S
C658   C669    1.398   .     A
C658   C660    1.403   .     A
C659   C687    1.420   .     S
C659   C661    1.379   .     A
C659   C688    1.399   .     A
C660   C662    1.388   .     A
C660   C686    1.427   .     S
C661   H689    1.086   .     S
C661   C663    1.377   .     A
C662   H700    1.085   .     S
C662   C664    1.388   .     A
C663   C670    1.396   .     A
C663   C665    1.413   .     A
C664   C671    1.408   .     A
C664   C666    1.407   .     A
C665   C667    1.420   .     A
C665   C1404   1.398   1_554 S
C666   C669    1.419   .     A
C666   C1403   1.398   .     S
C667   C683    1.414   .     A
C667   C688    1.409   .     A
C668   C685    1.406   .     S
C668   O729    1.285   .     A
C668   O731    1.286   .     A
C669   C679    1.406   .     A
C670   O725    1.381   .     S
C670   C1417   1.386   1_554 S
C671   O726    1.386   .     S
C671   C1421   1.408   .     S
C672   H719    1.113   .     S
C672   H718    1.107   .     S
C672   O736    1.410   .     S
C672   H720    1.105   .     S
C673   H692    1.109   .     S
C673   H690    1.105   .     S
C673   O724    1.410   .     S
C673   H691    1.116   .     S
C674   O725    1.413   .     S
C674   H694    1.114   .     S
C674   H201    1.103   1_565 S
C674   H941    1.112   1_564 S
C675   H696    1.111   .     S
C675   O726    1.414   .     S
C676   H699    1.109   .     S
C676   C677    1.538   .     S
C677   H702    1.110   .     S
C677   C1416   1.524   .     S
C677   H1441   1.108   .     S
C678   H706    1.106   .     S
C678   H705    1.110   .     S
C678   C1415   1.524   1_554 S
C679   O727    1.382   .     S
C679   C1408   1.386   .     S
C680   H708    1.116   .     S
C680   O728    1.419   .     S
C681   H710    1.111   .     S
C681   C682    1.530   .     S
C681   C516    1.536   1_655 S
C681   H545    1.109   1_655 S
C682   H712    1.108   .     S
C682   H713    1.110   .     S
C682   H550    1.108   1_655 S
C683   O728    1.385   .     S
C683   C1409   1.408   1_554 S
C684   C193    1.329   1_565 S
C684   H219    1.088   1_565 S
C686   O732    1.293   .     A
C686   O734    1.290   .     A
C687   O733    1.289   .     A
C687   O735    1.288   .     A
C688   O736    1.384   .     S
H695   C1166   1.112   .     S
H697   C183    1.108   1_565 S
H698   C183    1.104   1_565 S
H701   C512    1.118   1_655 S
H703   C1415   1.108   1_554 S
H704   C514    1.103   1_655 S
H707   C516    1.102   1_655 S
H715   C193    1.088   1_565 S
H717   N558    1.025   1_655 S
N721   Zn738   2.026   .     S
N721   H552    1.029   1_655 S
N721   N558    1.283   1_655 S
N722   Zn737   2.026   .     S
O723   Zn737   1.978   .     S
O727   C512    1.423   1_655 S
O729   Zn738   1.978   .     S
O730   Zn738   1.984   .     S
O731   Zn737   1.984   .     S
O732   Zn737   1.987   .     S
O733   Zn738   1.987   .     S
O734   Zn738   2.022   .     S
O735   Zn737   2.022   .     S
C739   O812    1.286   .     A
C739   C766    1.406   .     S
C739   O805    1.286   .     A
C740   O806    1.388   .     S
C740   C751    1.398   .     A
C740   C742    1.403   .     A
C741   C769    1.420   .     S
C741   C743    1.379   .     A
C741   C770    1.399   .     A
C742   C744    1.388   .     A
C742   C768    1.427   .     S
C743   H771    1.086   .     S
C743   C745    1.377   .     A
C744   H782    1.085   .     S
C744   C746    1.388   .     A
C745   C752    1.396   .     A
C745   C747    1.413   .     A
C746   C753    1.408   .     A
C746   C748    1.407   .     A
C747   C749    1.420   .     A
C748   C751    1.419   .     A
C748   C9      1.398   1_556 S
C749   C765    1.414   .     A
C749   C770    1.409   .     A
C750   C767    1.406   .     S
C750   O811    1.285   .     A
C750   O813    1.286   .     A
C751   C761    1.406   .     A
C752   O807    1.381   .     S
C753   O808    1.386   .     S
C753   C27     1.408   1_556 S
C754   H801    1.113   .     S
C754   H800    1.107   .     S
C754   O818    1.410   .     S
C754   H802    1.105   .     S
C755   H774    1.109   .     S
C755   H772    1.105   .     S
C755   O806    1.410   .     S
C755   H773    1.116   .     S
C756   O807    1.413   .     S
C756   H776    1.114   .     S
C756   H1021   1.103   .     S
C757   H778    1.111   .     S
C757   O808    1.414   .     S
C757   H1271   1.108   1_545 S
C757   H1272   1.104   1_545 S
C758   H781    1.109   .     S
C758   C759    1.538   .     S
C758   H947    1.118   1_455 S
C758   O973    1.423   1_455 S
C759   H784    1.110   .     S
C759   C22     1.524   1_556 S
C759   H47     1.108   1_556 S
C760   H788    1.106   .     S
C760   H787    1.110   .     S
C760   H950    1.103   1_455 S
C761   O809    1.382   .     S
C761   C14     1.386   1_556 S
C762   H790    1.116   .     S
C762   O810    1.419   .     S
C762   C927    1.536   1_455 S
C762   H953    1.102   1_455 S
C763   H792    1.111   .     S
C763   C764    1.530   .     S
C763   C844    1.536   .     S
C763   H873    1.109   .     S
C764   H794    1.108   .     S
C764   H795    1.110   .     S
C764   H878    1.108   .     S
C765   O810    1.385   .     S
C766   C1013   1.329   .     S
C766   H1039   1.088   .     S
C767   C1258   1.329   1_545 S
C767   H1289   1.088   1_545 S
C768   O814    1.293   .     A
C768   O816    1.290   .     A
C769   O815    1.289   .     A
C769   O817    1.288   .     A
C770   O818    1.384   .     S
H775   C1248   1.103   1_545 S
H777   C510    1.112   1_546 S
H779   C1003   1.108   .     S
H780   C1003   1.104   .     S
H783   C840    1.118   .     S
H786   C842    1.103   .     S
H789   C844    1.102   .     S
H791   C927    1.109   1_455 S
H793   C1258   1.088   1_545 S
H796   C928    1.108   1_455 S
H797   C1013   1.088   .     S
H798   N967    1.029   1_455 S
H799   N886    1.025   .     S
N803   Zn820   2.026   .     S
N803   H880    1.029   .     S
N803   N886    1.283   .     S
N804   Zn819   2.026   .     S
N804   H963    1.025   1_455 S
N804   N967    1.283   1_455 S
O805   Zn819   1.978   .     S
O809   C840    1.423   .     S
O811   Zn820   1.978   .     S
O812   Zn820   1.984   .     S
O813   Zn819   1.984   .     S
O814   Zn819   1.987   .     S
O815   Zn820   1.987   .     S
O816   Zn820   2.022   .     S
O817   Zn819   2.022   .     S
C821   O894    1.286   .     A
C821   C848    1.406   .     S
C821   O887    1.286   .     A
C822   O888    1.388   .     S
C822   C833    1.398   .     A
C822   C824    1.403   .     A
C823   C851    1.420   .     S
C823   C825    1.379   .     A
C823   C852    1.399   .     A
C824   C826    1.388   .     A
C824   C850    1.427   .     S
C825   H853    1.086   .     S
C825   C827    1.377   .     A
C826   H864    1.085   .     S
C826   C828    1.388   .     A
C827   C834    1.396   .     A
C827   C829    1.413   .     A
C828   C835    1.408   .     A
C828   C830    1.407   .     A
C829   C831    1.420   .     A
C830   C833    1.419   .     A
C830   C91     1.398   1_556 S
C831   C847    1.414   .     A
C831   C852    1.409   .     A
C832   C849    1.406   .     S
C832   O893    1.285   .     A
C832   O895    1.286   .     A
C833   C843    1.406   .     A
C834   O889    1.381   .     S
C835   O890    1.386   .     S
C835   C109    1.408   1_556 S
C836   H883    1.113   .     S
C836   H882    1.107   .     S
C836   O900    1.410   .     S
C836   H884    1.105   .     S
C837   H856    1.109   .     S
C837   H854    1.105   .     S
C837   O888    1.410   .     S
C837   H855    1.116   .     S
C838   O889    1.413   .     S
C838   H858    1.114   .     S
C838   H1103   1.103   .     S
C839   H860    1.111   .     S
C839   O890    1.414   .     S
C839   H1353   1.108   1_545 S
C839   H1354   1.104   1_545 S
C840   H863    1.109   .     S
C840   C841    1.538   .     S
C841   H866    1.110   .     S
C841   C104    1.524   1_556 S
C841   H129    1.108   1_556 S
C842   H870    1.106   .     S
C842   H869    1.110   .     S
C843   O891    1.382   .     S
C843   C96     1.386   1_556 S
C844   H872    1.116   .     S
C844   O892    1.419   .     S
C845   H874    1.111   .     S
C845   C846    1.530   .     S
C845   C926    1.536   .     S
C845   H955    1.109   .     S
C846   H876    1.108   .     S
C846   H877    1.110   .     S
C846   H960    1.108   .     S
C847   O892    1.385   .     S
C848   C1095   1.329   .     S
C848   H1121   1.088   .     S
C849   C1340   1.329   1_545 S
C849   H1371   1.088   1_545 S
C850   O896    1.293   .     A
C850   O898    1.290   .     A
C851   O897    1.289   .     A
C851   O899    1.288   .     A
C852   O900    1.384   .     S
H857   C1330   1.103   1_545 S
H859   C592    1.112   1_546 S
H861   C1085   1.108   .     S
H862   C1085   1.104   .     S
H865   C922    1.118   .     S
H868   C924    1.103   .     S
H871   C926    1.102   .     S
H875   C1340   1.088   1_545 S
H879   C1095   1.088   .     S
H881   N968    1.025   .     S
N885   Zn902   2.026   .     S
N885   H962    1.029   .     S
N885   N968    1.283   .     S
N886   Zn901   2.026   .     S
O887   Zn901   1.978   .     S
O891   C922    1.423   .     S
O893   Zn902   1.978   .     S
O894   Zn902   1.984   .     S
O895   Zn901   1.984   .     S
O896   Zn901   1.987   .     S
O897   Zn902   1.987   .     S
O898   Zn902   2.022   .     S
O899   Zn901   2.022   .     S
C903   O976    1.286   .     A
C903   C930    1.406   .     S
C903   O969    1.286   .     A
C904   O970    1.388   .     S
C904   C915    1.398   .     A
C904   C906    1.403   .     A
C905   C933    1.420   .     S
C905   C907    1.379   .     A
C905   C934    1.399   .     A
C906   C908    1.388   .     A
C906   C932    1.427   .     S
C907   H935    1.086   .     S
C907   C909    1.377   .     A
C908   H946    1.085   .     S
C908   C910    1.388   .     A
C909   C916    1.396   .     A
C909   C911    1.413   .     A
C910   C917    1.408   .     A
C910   C912    1.407   .     A
C911   C913    1.420   .     A
C912   C915    1.419   .     A
C912   C173    1.398   1_556 S
C913   C929    1.414   .     A
C913   C934    1.409   .     A
C914   C931    1.406   .     S
C914   O975    1.285   .     A
C914   O977    1.286   .     A
C915   C925    1.406   .     A
C916   O971    1.381   .     S
C917   O972    1.386   .     S
C917   C191    1.408   1_556 S
C918   H965    1.113   .     S
C918   H964    1.107   .     S
C918   O982    1.410   .     S
C918   H966    1.105   .     S
C919   H938    1.109   .     S
C919   H936    1.105   .     S
C919   O970    1.410   .     S
C919   H937    1.116   .     S
C920   O971    1.413   .     S
C920   H940    1.114   .     S
C920   H1185   1.103   .     S
C921   H942    1.111   .     S
C921   O972    1.414   .     S
C921   H1435   1.108   1_545 S
C921   H1436   1.104   1_545 S
C922   H945    1.109   .     S
C922   C923    1.538   .     S
C923   H948    1.110   .     S
C923   C186    1.524   1_556 S
C923   H211    1.108   1_556 S
C924   H952    1.106   .     S
C924   H951    1.110   .     S
C925   O973    1.382   .     S
C925   C178    1.386   1_556 S
C926   H954    1.116   .     S
C926   O974    1.419   .     S
C927   H956    1.111   .     S
C927   C928    1.530   .     S
C927   C762    1.536   1_655 S
C927   H791    1.109   1_655 S
C928   H958    1.108   .     S
C928   H959    1.110   .     S
C928   H796    1.108   1_655 S
C929   O974    1.385   .     S
C930   C1177   1.329   .     S
C930   H1203   1.088   .     S
C931   C1422   1.329   1_545 S
C931   H1453   1.088   1_545 S
C932   O978    1.293   .     A
C932   O980    1.290   .     A
C933   O979    1.289   .     A
C933   O981    1.288   .     A
C934   O982    1.384   .     S
H939   C1412   1.103   1_545 S
H941   C674    1.112   1_546 S
H943   C1167   1.108   .     S
H944   C1167   1.104   .     S
H947   C758    1.118   1_655 S
H950   C760    1.103   1_655 S
H953   C762    1.102   1_655 S
H957   C1422   1.088   1_545 S
H961   C1177   1.088   .     S
H963   N804    1.025   1_655 S
N967   Zn984   2.026   .     S
N967   H798    1.029   1_655 S
N967   N804    1.283   1_655 S
N968   Zn983   2.026   .     S
O969   Zn983   1.978   .     S
O973   C758    1.423   1_655 S
O975   Zn984   1.978   .     S
O976   Zn984   1.984   .     S
O977   Zn983   1.984   .     S
O978   Zn983   1.987   .     S
O979   Zn984   1.987   .     S
O980   Zn984   2.022   .     S
O981   Zn983   2.022   .     S
C985   O1058   1.286   .     A
C985   C1012   1.406   .     S
C985   O1051   1.286   .     A
C986   O1052   1.388   .     S
C986   C997    1.398   .     A
C986   C988    1.403   .     A
C987   C1015   1.420   .     S
C987   C989    1.379   .     A
C987   C1016   1.399   .     A
C988   C990    1.388   .     A
C988   C1014   1.427   .     S
C989   H1017   1.086   .     S
C989   C991    1.377   .     A
C990   H1028   1.085   .     S
C990   C992    1.388   .     A
C991   C998    1.396   .     A
C991   C993    1.413   .     A
C992   C999    1.408   .     A
C992   C994    1.407   .     A
C993   C995    1.420   .     A
C994   C997    1.419   .     A
C994   C255    1.398   1_556 S
C995   C1011   1.414   .     A
C995   C1016   1.409   .     A
C996   C1013   1.406   .     S
C996   O1057   1.285   .     A
C996   O1059   1.286   .     A
C997   C1007   1.406   .     A
C998   O1053   1.381   .     S
C999   O1054   1.386   .     S
C999   C273    1.408   1_556 S
C1000  H1047   1.113   .     S
C1000  H1046   1.107   .     S
C1000  O1064   1.410   .     S
C1000  H1048   1.105   .     S
C1001  H1020   1.109   .     S
C1001  H1018   1.105   .     S
C1001  O1052   1.410   .     S
C1001  H1019   1.116   .     S
C1002  O1053   1.413   .     S
C1002  H1022   1.114   .     S
C1002  H1267   1.103   .     S
C1003  H1024   1.111   .     S
C1003  O1054   1.414   .     S
C1004  H1027   1.109   .     S
C1004  C1005   1.538   .     S
C1004  H1193   1.118   1_455 S
C1004  O1219   1.423   1_455 S
C1005  H1030   1.110   .     S
C1005  C268    1.524   1_556 S
C1005  H293    1.108   1_556 S
C1006  H1034   1.106   .     S
C1006  H1033   1.110   .     S
C1006  H1196   1.103   1_455 S
C1007  O1055   1.382   .     S
C1007  C260    1.386   1_556 S
C1008  H1036   1.116   .     S
C1008  O1056   1.419   .     S
C1008  C1173   1.536   1_455 S
C1008  H1199   1.102   1_455 S
C1009  H1038   1.111   .     S
C1009  C1010   1.530   .     S
C1009  C1090   1.536   .     S
C1009  H1119   1.109   .     S
C1010  H1040   1.108   .     S
C1010  H1041   1.110   .     S
C1010  H1124   1.108   .     S
C1011  O1056   1.385   .     S
C1012  C1259   1.329   .     S
C1012  H1285   1.088   .     S
C1014  O1060   1.293   .     A
C1014  O1062   1.290   .     A
C1015  O1061   1.289   .     A
C1015  O1063   1.288   .     A
C1016  O1064   1.384   .     S
H1023  C18     1.112   1_556 S
H1025  C1249   1.108   .     S
H1026  C1249   1.104   .     S
H1029  C1086   1.118   .     S
H1032  C1088   1.103   .     S
H1035  C1090   1.102   .     S
H1037  C1173   1.109   1_455 S
H1042  C1174   1.108   1_455 S
H1043  C1259   1.088   .     S
H1044  N1213   1.029   1_455 S
H1045  N1132   1.025   .     S
N1049  Zn1066  2.026   .     S
N1049  H1126   1.029   .     S
N1049  N1132   1.283   .     S
N1050  Zn1065  2.026   .     S
N1050  H1209   1.025   1_455 S
N1050  N1213   1.283   1_455 S
O1051  Zn1065  1.978   .     S
O1055  C1086   1.423   .     S
O1057  Zn1066  1.978   .     S
O1058  Zn1066  1.984   .     S
O1059  Zn1065  1.984   .     S
O1060  Zn1065  1.987   .     S
O1061  Zn1066  1.987   .     S
O1062  Zn1066  2.022   .     S
O1063  Zn1065  2.022   .     S
C1067  O1140   1.286   .     A
C1067  C1094   1.406   .     S
C1067  O1133   1.286   .     A
C1068  O1134   1.388   .     S
C1068  C1079   1.398   .     A
C1068  C1070   1.403   .     A
C1069  C1097   1.420   .     S
C1069  C1071   1.379   .     A
C1069  C1098   1.399   .     A
C1070  C1072   1.388   .     A
C1070  C1096   1.427   .     S
C1071  H1099   1.086   .     S
C1071  C1073   1.377   .     A
C1072  H1110   1.085   .     S
C1072  C1074   1.388   .     A
C1073  C1080   1.396   .     A
C1073  C1075   1.413   .     A
C1074  C1081   1.408   .     A
C1074  C1076   1.407   .     A
C1075  C1077   1.420   .     A
C1076  C1079   1.419   .     A
C1076  C337    1.398   1_556 S
C1077  C1093   1.414   .     A
C1077  C1098   1.409   .     A
C1078  C1095   1.406   .     S
C1078  O1139   1.285   .     A
C1078  O1141   1.286   .     A
C1079  C1089   1.406   .     A
C1080  O1135   1.381   .     S
C1081  O1136   1.386   .     S
C1081  C355    1.408   1_556 S
C1082  H1129   1.113   .     S
C1082  H1128   1.107   .     S
C1082  O1146   1.410   .     S
C1082  H1130   1.105   .     S
C1083  H1102   1.109   .     S
C1083  H1100   1.105   .     S
C1083  O1134   1.410   .     S
C1083  H1101   1.116   .     S
C1084  O1135   1.413   .     S
C1084  H1104   1.114   .     S
C1084  H1349   1.103   .     S
C1085  H1106   1.111   .     S
C1085  O1136   1.414   .     S
C1086  H1109   1.109   .     S
C1086  C1087   1.538   .     S
C1087  H1112   1.110   .     S
C1087  C350    1.524   1_556 S
C1087  H375    1.108   1_556 S
C1088  H1116   1.106   .     S
C1088  H1115   1.110   .     S
C1089  O1137   1.382   .     S
C1089  C342    1.386   1_556 S
C1090  H1118   1.116   .     S
C1090  O1138   1.419   .     S
C1091  H1120   1.111   .     S
C1091  C1092   1.530   .     S
C1091  C1172   1.536   .     S
C1091  H1201   1.109   .     S
C1092  H1122   1.108   .     S
C1092  H1123   1.110   .     S
C1092  H1206   1.108   .     S
C1093  O1138   1.385   .     S
C1094  C1341   1.329   .     S
C1094  H1367   1.088   .     S
C1096  O1142   1.293   .     A
C1096  O1144   1.290   .     A
C1097  O1143   1.289   .     A
C1097  O1145   1.288   .     A
C1098  O1146   1.384   .     S
H1105  C100    1.112   1_556 S
H1107  C1331   1.108   .     S
H1108  C1331   1.104   .     S
H1111  C1168   1.118   .     S
H1114  C1170   1.103   .     S
H1117  C1172   1.102   .     S
H1125  C1341   1.088   .     S
H1127  N1214   1.025   .     S
N1131  Zn1148  2.026   .     S
N1131  H1208   1.029   .     S
N1131  N1214   1.283   .     S
N1132  Zn1147  2.026   .     S
O1133  Zn1147  1.978   .     S
O1137  C1168   1.423   .     S
O1139  Zn1148  1.978   .     S
O1140  Zn1148  1.984   .     S
O1141  Zn1147  1.984   .     S
O1142  Zn1147  1.987   .     S
O1143  Zn1148  1.987   .     S
O1144  Zn1148  2.022   .     S
O1145  Zn1147  2.022   .     S
C1149  O1222   1.286   .     A
C1149  C1176   1.406   .     S
C1149  O1215   1.286   .     A
C1150  O1216   1.388   .     S
C1150  C1161   1.398   .     A
C1150  C1152   1.403   .     A
C1151  C1179   1.420   .     S
C1151  C1153   1.379   .     A
C1151  C1180   1.399   .     A
C1152  C1154   1.388   .     A
C1152  C1178   1.427   .     S
C1153  H1181   1.086   .     S
C1153  C1155   1.377   .     A
C1154  H1192   1.085   .     S
C1154  C1156   1.388   .     A
C1155  C1162   1.396   .     A
C1155  C1157   1.413   .     A
C1156  C1163   1.408   .     A
C1156  C1158   1.407   .     A
C1157  C1159   1.420   .     A
C1158  C1161   1.419   .     A
C1158  C419    1.398   1_556 S
C1159  C1175   1.414   .     A
C1159  C1180   1.409   .     A
C1160  C1177   1.406   .     S
C1160  O1221   1.285   .     A
C1160  O1223   1.286   .     A
C1161  C1171   1.406   .     A
C1162  O1217   1.381   .     S
C1163  O1218   1.386   .     S
C1163  C437    1.408   1_556 S
C1164  H1211   1.113   .     S
C1164  H1210   1.107   .     S
C1164  O1228   1.410   .     S
C1164  H1212   1.105   .     S
C1165  H1184   1.109   .     S
C1165  H1182   1.105   .     S
C1165  O1216   1.410   .     S
C1165  H1183   1.116   .     S
C1166  O1217   1.413   .     S
C1166  H1186   1.114   .     S
C1166  H1431   1.103   .     S
C1167  H1188   1.111   .     S
C1167  O1218   1.414   .     S
C1168  H1191   1.109   .     S
C1168  C1169   1.538   .     S
C1169  H1194   1.110   .     S
C1169  C432    1.524   1_556 S
C1169  H457    1.108   1_556 S
C1170  H1198   1.106   .     S
C1170  H1197   1.110   .     S
C1171  O1219   1.382   .     S
C1171  C424    1.386   1_556 S
C1172  H1200   1.116   .     S
C1172  O1220   1.419   .     S
C1173  H1202   1.111   .     S
C1173  C1174   1.530   .     S
C1173  C1008   1.536   1_655 S
C1173  H1037   1.109   1_655 S
C1174  H1204   1.108   .     S
C1174  H1205   1.110   .     S
C1174  H1042   1.108   1_655 S
C1175  O1220   1.385   .     S
C1176  C1423   1.329   .     S
C1176  H1449   1.088   .     S
C1178  O1224   1.293   .     A
C1178  O1226   1.290   .     A
C1179  O1225   1.289   .     A
C1179  O1227   1.288   .     A
C1180  O1228   1.384   .     S
H1187  C182    1.112   1_556 S
H1189  C1413   1.108   .     S
H1190  C1413   1.104   .     S
H1193  C1004   1.118   1_655 S
H1196  C1006   1.103   1_655 S
H1199  C1008   1.102   1_655 S
H1207  C1423   1.088   .     S
H1209  N1050   1.025   1_655 S
N1213  Zn1230  2.026   .     S
N1213  H1044   1.029   1_655 S
N1213  N1050   1.283   1_655 S
N1214  Zn1229  2.026   .     S
O1215  Zn1229  1.978   .     S
O1219  C1004   1.423   1_655 S
O1221  Zn1230  1.978   .     S
O1222  Zn1230  1.984   .     S
O1223  Zn1229  1.984   .     S
O1224  Zn1229  1.987   .     S
O1225  Zn1230  1.987   .     S
O1226  Zn1230  2.022   .     S
O1227  Zn1229  2.022   .     S
C1231  O1304   1.286   .     A
C1231  C1258   1.406   .     S
C1231  O1297   1.286   .     A
C1232  O1298   1.388   .     S
C1232  C1243   1.398   .     A
C1232  C1234   1.403   .     A
C1233  C1261   1.420   .     S
C1233  C1235   1.379   .     A
C1233  C1262   1.399   .     A
C1234  C1236   1.388   .     A
C1234  C1260   1.427   .     S
C1235  H1263   1.086   .     S
C1235  C1237   1.377   .     A
C1236  H1274   1.085   .     S
C1236  C1238   1.388   .     A
C1237  C1244   1.396   .     A
C1237  C1239   1.413   .     A
C1238  C1245   1.408   .     A
C1238  C1240   1.407   .     A
C1239  C1241   1.420   .     A
C1240  C1243   1.419   .     A
C1240  C501    1.398   1_556 S
C1241  C1257   1.414   .     A
C1241  C1262   1.409   .     A
C1242  C1259   1.406   .     S
C1242  O1303   1.285   .     A
C1242  O1305   1.286   .     A
C1243  C1253   1.406   .     A
C1244  O1299   1.381   .     S
C1245  O1300   1.386   .     S
C1245  C519    1.408   1_556 S
C1246  H1293   1.113   .     S
C1246  H1292   1.107   .     S
C1246  O1310   1.410   .     S
C1246  H1294   1.105   .     S
C1247  H1266   1.109   .     S
C1247  H1264   1.105   .     S
C1247  O1298   1.410   .     S
C1247  H1265   1.116   .     S
C1248  O1299   1.413   .     S
C1248  H1268   1.114   .     S
C1248  H775    1.103   1_565 S
C1248  H39     1.112   1_565 S
C1249  H1270   1.111   .     S
C1249  O1300   1.414   .     S
C1250  H1273   1.109   .     S
C1250  C1251   1.538   .     S
C1250  H1439   1.118   1_455 S
C1250  O1465   1.423   1_455 S
C1251  H1276   1.110   .     S
C1251  C514    1.524   1_556 S
C1251  H539    1.108   1_556 S
C1252  H1280   1.106   .     S
C1252  H1279   1.110   .     S
C1252  H1442   1.103   1_455 S
C1253  O1301   1.382   .     S
C1253  C506    1.386   1_556 S
C1254  H1282   1.116   .     S
C1254  O1302   1.419   .     S
C1254  C1419   1.536   1_455 S
C1254  H1445   1.102   1_455 S
C1255  H1284   1.111   .     S
C1255  C1256   1.530   .     S
C1255  C1336   1.536   .     S
C1255  H1365   1.109   .     S
C1256  H1286   1.108   .     S
C1256  H1287   1.110   .     S
C1256  H1370   1.108   .     S
C1257  O1302   1.385   .     S
C1258  C767    1.329   1_565 S
C1258  H793    1.088   1_565 S
C1260  O1306   1.293   .     A
C1260  O1308   1.290   .     A
C1261  O1307   1.289   .     A
C1261  O1309   1.288   .     A
C1262  O1310   1.384   .     S
H1269  C264    1.112   1_556 S
H1271  C757    1.108   1_565 S
H1272  C757    1.104   1_565 S
H1275  C1332   1.118   .     S
H1278  C1334   1.103   .     S
H1281  C1336   1.102   .     S
H1283  C1419   1.109   1_455 S
H1288  C1420   1.108   1_455 S
H1289  C767    1.088   1_565 S
H1290  N1459   1.029   1_455 S
H1291  N1378   1.025   .     S
N1295  Zn1312  2.026   .     S
N1295  H1372   1.029   .     S
N1295  N1378   1.283   .     S
N1296  Zn1311  2.026   .     S
N1296  H1455   1.025   1_455 S
N1296  N1459   1.283   1_455 S
O1297  Zn1311  1.978   .     S
O1301  C1332   1.423   .     S
O1303  Zn1312  1.978   .     S
O1304  Zn1312  1.984   .     S
O1305  Zn1311  1.984   .     S
O1306  Zn1311  1.987   .     S
O1307  Zn1312  1.987   .     S
O1308  Zn1312  2.022   .     S
O1309  Zn1311  2.022   .     S
C1313  O1386   1.286   .     A
C1313  C1340   1.406   .     S
C1313  O1379   1.286   .     A
C1314  O1380   1.388   .     S
C1314  C1325   1.398   .     A
C1314  C1316   1.403   .     A
C1315  C1343   1.420   .     S
C1315  C1317   1.379   .     A
C1315  C1344   1.399   .     A
C1316  C1318   1.388   .     A
C1316  C1342   1.427   .     S
C1317  H1345   1.086   .     S
C1317  C1319   1.377   .     A
C1318  H1356   1.085   .     S
C1318  C1320   1.388   .     A
C1319  C1326   1.396   .     A
C1319  C1321   1.413   .     A
C1320  C1327   1.408   .     A
C1320  C1322   1.407   .     A
C1321  C1323   1.420   .     A
C1322  C1325   1.419   .     A
C1322  C583    1.398   1_556 S
C1323  C1339   1.414   .     A
C1323  C1344   1.409   .     A
C1324  C1341   1.406   .     S
C1324  O1385   1.285   .     A
C1324  O1387   1.286   .     A
C1325  C1335   1.406   .     A
C1326  O1381   1.381   .     S
C1327  O1382   1.386   .     S
C1327  C601    1.408   1_556 S
C1328  H1375   1.113   .     S
C1328  H1374   1.107   .     S
C1328  O1392   1.410   .     S
C1328  H1376   1.105   .     S
C1329  H1348   1.109   .     S
C1329  H1346   1.105   .     S
C1329  O1380   1.410   .     S
C1329  H1347   1.116   .     S
C1330  O1381   1.413   .     S
C1330  H1350   1.114   .     S
C1330  H857    1.103   1_565 S
C1330  H121    1.112   1_565 S
C1331  H1352   1.111   .     S
C1331  O1382   1.414   .     S
C1332  H1355   1.109   .     S
C1332  C1333   1.538   .     S
C1333  H1358   1.110   .     S
C1333  C596    1.524   1_556 S
C1333  H621    1.108   1_556 S
C1334  H1362   1.106   .     S
C1334  H1361   1.110   .     S
C1335  O1383   1.382   .     S
C1335  C588    1.386   1_556 S
C1336  H1364   1.116   .     S
C1336  O1384   1.419   .     S
C1337  H1366   1.111   .     S
C1337  C1338   1.530   .     S
C1337  C1418   1.536   .     S
C1337  H1447   1.109   .     S
C1338  H1368   1.108   .     S
C1338  H1369   1.110   .     S
C1338  H1452   1.108   .     S
C1339  O1384   1.385   .     S
C1340  C849    1.329   1_565 S
C1340  H875    1.088   1_565 S
C1342  O1388   1.293   .     A
C1342  O1390   1.290   .     A
C1343  O1389   1.289   .     A
C1343  O1391   1.288   .     A
C1344  O1392   1.384   .     S
H1351  C346    1.112   1_556 S
H1353  C839    1.108   1_565 S
H1354  C839    1.104   1_565 S
H1357  C1414   1.118   .     S
H1360  C1416   1.103   .     S
H1363  C1418   1.102   .     S
H1371  C849    1.088   1_565 S
H1373  N1460   1.025   .     S
N1377  Zn1394  2.026   .     S
N1377  H1454   1.029   .     S
N1377  N1460   1.283   .     S
N1378  Zn1393  2.026   .     S
O1379  Zn1393  1.978   .     S
O1383  C1414   1.423   .     S
O1385  Zn1394  1.978   .     S
O1386  Zn1394  1.984   .     S
O1387  Zn1393  1.984   .     S
O1388  Zn1393  1.987   .     S
O1389  Zn1394  1.987   .     S
O1390  Zn1394  2.022   .     S
O1391  Zn1393  2.022   .     S
C1395  O1468   1.286   .     A
C1395  C1422   1.406   .     S
C1395  O1461   1.286   .     A
C1396  O1462   1.388   .     S
C1396  C1407   1.398   .     A
C1396  C1398   1.403   .     A
C1397  C1425   1.420   .     S
C1397  C1399   1.379   .     A
C1397  C1426   1.399   .     A
C1398  C1400   1.388   .     A
C1398  C1424   1.427   .     S
C1399  H1427   1.086   .     S
C1399  C1401   1.377   .     A
C1400  H1438   1.085   .     S
C1400  C1402   1.388   .     A
C1401  C1408   1.396   .     A
C1401  C1403   1.413   .     A
C1402  C1409   1.408   .     A
C1402  C1404   1.407   .     A
C1403  C1405   1.420   .     A
C1404  C1407   1.419   .     A
C1404  C665    1.398   1_556 S
C1405  C1421   1.414   .     A
C1405  C1426   1.409   .     A
C1406  C1423   1.406   .     S
C1406  O1467   1.285   .     A
C1406  O1469   1.286   .     A
C1407  C1417   1.406   .     A
C1408  O1463   1.381   .     S
C1409  O1464   1.386   .     S
C1409  C683    1.408   1_556 S
C1410  H1457   1.113   .     S
C1410  H1456   1.107   .     S
C1410  O1474   1.410   .     S
C1410  H1458   1.105   .     S
C1411  H1430   1.109   .     S
C1411  H1428   1.105   .     S
C1411  O1462   1.410   .     S
C1411  H1429   1.116   .     S
C1412  O1463   1.413   .     S
C1412  H1432   1.114   .     S
C1412  H939    1.103   1_565 S
C1412  H203    1.112   1_565 S
C1413  H1434   1.111   .     S
C1413  O1464   1.414   .     S
C1414  H1437   1.109   .     S
C1414  C1415   1.538   .     S
C1415  H1440   1.110   .     S
C1415  C678    1.524   1_556 S
C1415  H703    1.108   1_556 S
C1416  H1444   1.106   .     S
C1416  H1443   1.110   .     S
C1417  O1465   1.382   .     S
C1417  C670    1.386   1_556 S
C1418  H1446   1.116   .     S
C1418  O1466   1.419   .     S
C1419  H1448   1.111   .     S
C1419  C1420   1.530   .     S
C1419  C1254   1.536   1_655 S
C1419  H1283   1.109   1_655 S
C1420  H1450   1.108   .     S
C1420  H1451   1.110   .     S
C1420  H1288   1.108   1_655 S
C1421  O1466   1.385   .     S
C1422  C931    1.329   1_565 S
C1422  H957    1.088   1_565 S
C1424  O1470   1.293   .     A
C1424  O1472   1.290   .     A
C1425  O1471   1.289   .     A
C1425  O1473   1.288   .     A
C1426  O1474   1.384   .     S
H1433  C428    1.112   1_556 S
H1435  C921    1.108   1_565 S
H1436  C921    1.104   1_565 S
H1439  C1250   1.118   1_655 S
H1442  C1252   1.103   1_655 S
H1445  C1254   1.102   1_655 S
H1453  C931    1.088   1_565 S
H1455  N1296   1.025   1_655 S
N1459  Zn1476  2.026   .     S
N1459  H1290   1.029   1_655 S
N1459  N1296   1.283   1_655 S
N1460  Zn1475  2.026   .     S
O1461  Zn1475  1.978   .     S
O1465  C1250   1.423   1_655 S
O1467  Zn1476  1.978   .     S
O1468  Zn1476  1.984   .     S
O1469  Zn1475  1.984   .     S
O1470  Zn1475  1.987   .     S
O1471  Zn1476  1.987   .     S
O1472  Zn1476  2.022   .     S
O1473  Zn1475  2.022   .     S
