data_str_m3_o2_o10_pcu_sym.54
_audit_creation_date              2020-01-03
_audit_creation_method            'Materials Studio'
_symmetry_space_group_name_H-M    'P1'
_symmetry_Int_Tables_number       1
_symmetry_cell_setting            triclinic
loop_
_symmetry_equiv_pos_as_xyz
  x,y,z
_cell_length_a                    25.9380
_cell_length_b                    30.0106
_cell_length_c                    28.4000
_cell_angle_alpha                 90.1204
_cell_angle_beta                  98.8411
_cell_angle_gamma                 90.6269
loop_
_atom_site_label
_atom_site_type_symbol
_atom_site_fract_x
_atom_site_fract_y
_atom_site_fract_z
_atom_site_U_iso_or_equiv
_atom_site_adp_type
_atom_site_occupancy
C1     C     0.16702   0.16387   0.25011   0.00000  Uiso   1.00
C2     C     0.15128   0.21326   0.44573   0.00000  Uiso   1.00
C3     C     0.16441   0.25150   0.02626   0.00000  Uiso   1.00
C4     C     0.16502   0.25200   0.47317   0.00000  Uiso   1.00
C5     C     0.06715   0.24912   0.23769   0.00000  Uiso   1.00
C6     C     0.26618   0.25088   0.26233   0.00000  Uiso   1.00
C7     C     0.01241   0.24260   0.23234   0.00000  Uiso   1.00
C8     C     0.32092   0.25734   0.26779   0.00000  Uiso   1.00
C9     C     0.18234   0.04595   0.29106   0.00000  Uiso   1.00
C10    C     0.18087   0.45448   0.21282   0.00000  Uiso   1.00
C11    C     0.18616   0.09225   0.29178   0.00000  Uiso   1.00
C12    C     0.16711   0.33615   0.25001   0.00000  Uiso   1.00
C13    C     0.18473   0.40825   0.21297   0.00000  Uiso   1.00
C14    C     0.16573   0.11584   0.25035   0.00000  Uiso   1.00
C15    C     0.16587   0.38420   0.24950   0.00000  Uiso   1.00
C16    C     0.14239   0.09344   0.20912   0.00000  Uiso   1.00
C17    C     0.14419   0.40614   0.28524   0.00000  Uiso   1.00
C18    C     0.13901   0.04753   0.20884   0.00000  Uiso   1.00
C19    C     0.14077   0.45198   0.28474   0.00000  Uiso   1.00
C20    C     0.15903   0.02394   0.24975   0.00000  Uiso   1.00
C21    C     0.15909   0.47598   0.24857   0.00000  Uiso   1.00
C22    C     0.11906   0.24056   0.04601   0.00000  Uiso   1.00
C23    C     0.17971   0.29026   0.44919   0.00000  Uiso   1.00
C24    C     0.12269   0.23624   0.09603   0.00000  Uiso   1.00
C25    C     0.18439   0.28708   0.40030   0.00000  Uiso   1.00
C26    C     0.21000   0.26254   0.10767   0.00000  Uiso   1.00
C27    C     0.15043   0.21346   0.39606   0.00000  Uiso   1.00
C28    C     0.21024   0.26170   0.05815   0.00000  Uiso   1.00
H29    H     0.19875   0.02696   0.32211   0.00000  Uiso   1.00
H30    H     0.14050   0.18299   0.46262   0.00000  Uiso   1.00
H31    H     0.01261   0.20604   0.17506   0.00000  Uiso   1.00
H32    H     0.32080   0.29287   0.32587   0.00000  Uiso   1.00
H33    H     0.22247   0.09303   0.35724   0.00000  Uiso   1.00
H34    H     0.21854   0.40830   0.15617   0.00000  Uiso   1.00
H35    H     0.01903   0.25496   0.44097   0.00000  Uiso   1.00
H36    H     0.17190   0.37367   0.04202   0.00000  Uiso   1.00
H37    H     0.09776   0.19708   0.14039   0.00000  Uiso   1.00
H38    H     0.23032   0.30744   0.35835   0.00000  Uiso   1.00
H39    H     0.19604   0.47382   0.18569   0.00000  Uiso   1.00
H40    H     0.12623   0.11146   0.17732   0.00000  Uiso   1.00
H41    H     0.12933   0.38783   0.31325   0.00000  Uiso   1.00
H42    H     0.12097   0.03034   0.17681   0.00000  Uiso   1.00
H43    H     0.12397   0.46878   0.31250   0.00000  Uiso   1.00
H44    H     0.24508   0.27235   0.13122   0.00000  Uiso   1.00
H45    H     0.13781   0.18386   0.37553   0.00000  Uiso   1.00
H46    H     0.24601   0.26980   0.04473   0.00000  Uiso   1.00
N47    N     0.16667   0.24999   0.12624   0.00000  Uiso   1.00
N48    N     0.16667   0.25001   0.37377   0.00000  Uiso   1.00
O49    O     0.16667   0.18453   0.28974   0.00000  Uiso   1.00
O50    O     0.01306   0.28220   0.30596   0.00000  Uiso   1.00
O51    O     0.21068   0.11478   0.33170   0.00000  Uiso   1.00
O52    O     0.20776   0.38629   0.17888   0.00000  Uiso   1.00
O53    O     0.05076   0.18418   0.49603   0.00000  Uiso   1.00
O54    O     0.01439   0.24547   0.03691   0.00000  Uiso   1.00
O55    O     0.05274   0.26383   0.46020   0.00000  Uiso   1.00
O56    O     0.24926   0.34581   0.49870   0.00000  Uiso   1.00
O57    O     0.17861   0.37991   0.44406   0.00000  Uiso   1.00
O58    O     0.15655   0.34768   0.02311   0.00000  Uiso   1.00
O59    O     0.08204   0.21593   0.11359   0.00000  Uiso   1.00
O60    O     0.16666   0.31546   0.21026   0.00000  Uiso   1.00
O61    O     0.20923   0.32126   0.38048   0.00000  Uiso   1.00
O62    O     0.16667   0.18453   0.21026   0.00000  Uiso   1.00
O63    O     0.16666   0.31547   0.28974   0.00000  Uiso   1.00
O64    O     0.09058   0.25000   0.28045   0.00000  Uiso   1.00
O65    O     0.24275   0.25000   0.21956   0.00000  Uiso   1.00
O66    O     0.09058   0.24999   0.20097   0.00000  Uiso   1.00
O67    O     0.24275   0.25000   0.29904   0.00000  Uiso   1.00
O68    O     0.32026   0.21749   0.19441   0.00000  Uiso   1.00
S69    S     0.05734   0.23254   0.00973   0.00000  Uiso   1.00
S70    S     0.19222   0.34250   0.47871   0.00000  Uiso   1.00
Zn71   Zn    0.16667   0.25000   0.30307   0.00000  Uiso   1.00
Zn72   Zn    0.16667   0.24999   0.19693   0.00000  Uiso   1.00
C73    C     0.50036   0.16387   0.25011   0.00000  Uiso   1.00
C74    C     0.48461   0.21326   0.44573   0.00000  Uiso   1.00
C75    C     0.49774   0.25150   0.02626   0.00000  Uiso   1.00
C76    C     0.49835   0.25200   0.47317   0.00000  Uiso   1.00
C77    C     0.40048   0.24912   0.23769   0.00000  Uiso   1.00
C78    C     0.59951   0.25088   0.26233   0.00000  Uiso   1.00
C79    C     0.34574   0.24260   0.23234   0.00000  Uiso   1.00
C80    C     0.65425   0.25734   0.26779   0.00000  Uiso   1.00
C81    C     0.51568   0.04595   0.29106   0.00000  Uiso   1.00
C82    C     0.51420   0.45448   0.21282   0.00000  Uiso   1.00
C83    C     0.51949   0.09225   0.29178   0.00000  Uiso   1.00
C84    C     0.50045   0.33615   0.25001   0.00000  Uiso   1.00
C85    C     0.51806   0.40825   0.21297   0.00000  Uiso   1.00
C86    C     0.49906   0.11584   0.25035   0.00000  Uiso   1.00
C87    C     0.49921   0.38420   0.24950   0.00000  Uiso   1.00
C88    C     0.47572   0.09344   0.20912   0.00000  Uiso   1.00
C89    C     0.47752   0.40614   0.28524   0.00000  Uiso   1.00
C90    C     0.47234   0.04753   0.20884   0.00000  Uiso   1.00
C91    C     0.47410   0.45198   0.28474   0.00000  Uiso   1.00
C92    C     0.49236   0.02394   0.24975   0.00000  Uiso   1.00
C93    C     0.49242   0.47598   0.24857   0.00000  Uiso   1.00
C94    C     0.45240   0.24056   0.04601   0.00000  Uiso   1.00
C95    C     0.51304   0.29026   0.44919   0.00000  Uiso   1.00
C96    C     0.45602   0.23624   0.09603   0.00000  Uiso   1.00
C97    C     0.51772   0.28708   0.40030   0.00000  Uiso   1.00
C98    C     0.54334   0.26254   0.10767   0.00000  Uiso   1.00
C99    C     0.48377   0.21346   0.39606   0.00000  Uiso   1.00
C100   C     0.54357   0.26170   0.05815   0.00000  Uiso   1.00
H101   H     0.53209   0.02696   0.32211   0.00000  Uiso   1.00
H102   H     0.47383   0.18299   0.46262   0.00000  Uiso   1.00
H103   H     0.34594   0.20604   0.17506   0.00000  Uiso   1.00
H104   H     0.65414   0.29287   0.32587   0.00000  Uiso   1.00
H105   H     0.55580   0.09303   0.35724   0.00000  Uiso   1.00
H106   H     0.55187   0.40830   0.15617   0.00000  Uiso   1.00
H107   H     0.35236   0.25496   0.44097   0.00000  Uiso   1.00
H108   H     0.50524   0.37367   0.04202   0.00000  Uiso   1.00
H109   H     0.43109   0.19708   0.14039   0.00000  Uiso   1.00
H110   H     0.56365   0.30744   0.35835   0.00000  Uiso   1.00
H111   H     0.52937   0.47382   0.18569   0.00000  Uiso   1.00
H112   H     0.45956   0.11146   0.17732   0.00000  Uiso   1.00
H113   H     0.46266   0.38783   0.31325   0.00000  Uiso   1.00
H114   H     0.45430   0.03034   0.17681   0.00000  Uiso   1.00
H115   H     0.45730   0.46878   0.31250   0.00000  Uiso   1.00
H116   H     0.57841   0.27235   0.13122   0.00000  Uiso   1.00
H117   H     0.47115   0.18386   0.37553   0.00000  Uiso   1.00
H118   H     0.57935   0.26980   0.04473   0.00000  Uiso   1.00
N119   N     0.50000   0.24999   0.12624   0.00000  Uiso   1.00
N120   N     0.50000   0.25001   0.37377   0.00000  Uiso   1.00
O121   O     0.50000   0.18453   0.28974   0.00000  Uiso   1.00
O122   O     0.34639   0.28220   0.30596   0.00000  Uiso   1.00
O123   O     0.54401   0.11478   0.33170   0.00000  Uiso   1.00
O124   O     0.54109   0.38629   0.17888   0.00000  Uiso   1.00
O125   O     0.38409   0.18418   0.49603   0.00000  Uiso   1.00
O126   O     0.34772   0.24547   0.03691   0.00000  Uiso   1.00
O127   O     0.38607   0.26383   0.46020   0.00000  Uiso   1.00
O128   O     0.58259   0.34581   0.49870   0.00000  Uiso   1.00
O129   O     0.51195   0.37991   0.44406   0.00000  Uiso   1.00
O130   O     0.48988   0.34768   0.02311   0.00000  Uiso   1.00
O131   O     0.41537   0.21593   0.11359   0.00000  Uiso   1.00
O132   O     0.50000   0.31546   0.21026   0.00000  Uiso   1.00
O133   O     0.54257   0.32126   0.38048   0.00000  Uiso   1.00
O134   O     0.50000   0.18453   0.21026   0.00000  Uiso   1.00
O135   O     0.50000   0.31547   0.28974   0.00000  Uiso   1.00
O136   O     0.42392   0.25000   0.28045   0.00000  Uiso   1.00
O137   O     0.57608   0.25000   0.21956   0.00000  Uiso   1.00
O138   O     0.42392   0.24999   0.20097   0.00000  Uiso   1.00
O139   O     0.57608   0.25000   0.29904   0.00000  Uiso   1.00
O140   O     0.65359   0.21749   0.19441   0.00000  Uiso   1.00
S141   S     0.39067   0.23254   0.00973   0.00000  Uiso   1.00
S142   S     0.52556   0.34250   0.47871   0.00000  Uiso   1.00
Zn143  Zn    0.50000   0.25000   0.30307   0.00000  Uiso   1.00
Zn144  Zn    0.50000   0.24999   0.19693   0.00000  Uiso   1.00
C145   C     0.83369   0.16387   0.25011   0.00000  Uiso   1.00
C146   C     0.81795   0.21326   0.44573   0.00000  Uiso   1.00
C147   C     0.83108   0.25150   0.02626   0.00000  Uiso   1.00
C148   C     0.83168   0.25200   0.47317   0.00000  Uiso   1.00
C149   C     0.73381   0.24912   0.23769   0.00000  Uiso   1.00
C150   C     0.93285   0.25088   0.26233   0.00000  Uiso   1.00
C151   C     0.67907   0.24260   0.23234   0.00000  Uiso   1.00
C152   C     0.98759   0.25734   0.26779   0.00000  Uiso   1.00
C153   C     0.84901   0.04595   0.29106   0.00000  Uiso   1.00
C154   C     0.84753   0.45448   0.21282   0.00000  Uiso   1.00
C155   C     0.85282   0.09225   0.29178   0.00000  Uiso   1.00
C156   C     0.83378   0.33615   0.25001   0.00000  Uiso   1.00
C157   C     0.85140   0.40825   0.21297   0.00000  Uiso   1.00
C158   C     0.83239   0.11584   0.25035   0.00000  Uiso   1.00
C159   C     0.83254   0.38420   0.24950   0.00000  Uiso   1.00
C160   C     0.80906   0.09344   0.20912   0.00000  Uiso   1.00
C161   C     0.81086   0.40614   0.28524   0.00000  Uiso   1.00
C162   C     0.80568   0.04753   0.20884   0.00000  Uiso   1.00
C163   C     0.80743   0.45198   0.28474   0.00000  Uiso   1.00
C164   C     0.82569   0.02394   0.24975   0.00000  Uiso   1.00
C165   C     0.82576   0.47598   0.24857   0.00000  Uiso   1.00
C166   C     0.78573   0.24056   0.04601   0.00000  Uiso   1.00
C167   C     0.84638   0.29026   0.44919   0.00000  Uiso   1.00
C168   C     0.78936   0.23624   0.09603   0.00000  Uiso   1.00
C169   C     0.85106   0.28708   0.40030   0.00000  Uiso   1.00
C170   C     0.87667   0.26254   0.10767   0.00000  Uiso   1.00
C171   C     0.81710   0.21346   0.39606   0.00000  Uiso   1.00
C172   C     0.87691   0.26170   0.05815   0.00000  Uiso   1.00
H173   H     0.86542   0.02696   0.32211   0.00000  Uiso   1.00
H174   H     0.80717   0.18299   0.46262   0.00000  Uiso   1.00
H175   H     0.67928   0.20604   0.17506   0.00000  Uiso   1.00
H176   H     0.98747   0.29287   0.32587   0.00000  Uiso   1.00
H177   H     0.88913   0.09303   0.35724   0.00000  Uiso   1.00
H178   H     0.88521   0.40830   0.15617   0.00000  Uiso   1.00
H179   H     0.68569   0.25496   0.44097   0.00000  Uiso   1.00
H180   H     0.83857   0.37367   0.04202   0.00000  Uiso   1.00
H181   H     0.76443   0.19708   0.14039   0.00000  Uiso   1.00
H182   H     0.89699   0.30744   0.35835   0.00000  Uiso   1.00
H183   H     0.86271   0.47382   0.18569   0.00000  Uiso   1.00
H184   H     0.79289   0.11146   0.17732   0.00000  Uiso   1.00
H185   H     0.79600   0.38783   0.31325   0.00000  Uiso   1.00
H186   H     0.78764   0.03034   0.17681   0.00000  Uiso   1.00
H187   H     0.79064   0.46878   0.31250   0.00000  Uiso   1.00
H188   H     0.91175   0.27235   0.13122   0.00000  Uiso   1.00
H189   H     0.80448   0.18386   0.37553   0.00000  Uiso   1.00
H190   H     0.91268   0.26980   0.04473   0.00000  Uiso   1.00
N191   N     0.83333   0.24999   0.12624   0.00000  Uiso   1.00
N192   N     0.83333   0.25001   0.37377   0.00000  Uiso   1.00
O193   O     0.83334   0.18453   0.28974   0.00000  Uiso   1.00
O194   O     0.67973   0.28220   0.30596   0.00000  Uiso   1.00
O195   O     0.87734   0.11478   0.33170   0.00000  Uiso   1.00
O196   O     0.87442   0.38629   0.17888   0.00000  Uiso   1.00
O197   O     0.71743   0.18418   0.49603   0.00000  Uiso   1.00
O198   O     0.68106   0.24547   0.03691   0.00000  Uiso   1.00
O199   O     0.71941   0.26383   0.46020   0.00000  Uiso   1.00
O200   O     0.91593   0.34581   0.49870   0.00000  Uiso   1.00
O201   O     0.84528   0.37991   0.44406   0.00000  Uiso   1.00
O202   O     0.82321   0.34768   0.02311   0.00000  Uiso   1.00
O203   O     0.74871   0.21593   0.11359   0.00000  Uiso   1.00
O204   O     0.83333   0.31546   0.21026   0.00000  Uiso   1.00
O205   O     0.87590   0.32126   0.38048   0.00000  Uiso   1.00
O206   O     0.83334   0.18453   0.21026   0.00000  Uiso   1.00
O207   O     0.83333   0.31547   0.28974   0.00000  Uiso   1.00
O208   O     0.75725   0.25000   0.28045   0.00000  Uiso   1.00
O209   O     0.90942   0.25000   0.21956   0.00000  Uiso   1.00
O210   O     0.75725   0.24999   0.20097   0.00000  Uiso   1.00
O211   O     0.90942   0.25000   0.29904   0.00000  Uiso   1.00
O212   O     0.98693   0.21749   0.19441   0.00000  Uiso   1.00
S213   S     0.72400   0.23254   0.00973   0.00000  Uiso   1.00
S214   S     0.85889   0.34250   0.47871   0.00000  Uiso   1.00
Zn215  Zn    0.83333   0.25000   0.30307   0.00000  Uiso   1.00
Zn216  Zn    0.83333   0.24999   0.19693   0.00000  Uiso   1.00
C217   C     0.16702   0.66387   0.25011   0.00000  Uiso   1.00
C218   C     0.15128   0.71326   0.44573   0.00000  Uiso   1.00
C219   C     0.16441   0.75150   0.02626   0.00000  Uiso   1.00
C220   C     0.16502   0.75200   0.47317   0.00000  Uiso   1.00
C221   C     0.06715   0.74912   0.23769   0.00000  Uiso   1.00
C222   C     0.26618   0.75088   0.26233   0.00000  Uiso   1.00
C223   C     0.01241   0.74260   0.23234   0.00000  Uiso   1.00
C224   C     0.32092   0.75734   0.26779   0.00000  Uiso   1.00
C225   C     0.18234   0.54595   0.29106   0.00000  Uiso   1.00
C226   C     0.18087   0.95448   0.21282   0.00000  Uiso   1.00
C227   C     0.18616   0.59225   0.29178   0.00000  Uiso   1.00
C228   C     0.16711   0.83615   0.25001   0.00000  Uiso   1.00
C229   C     0.18473   0.90825   0.21297   0.00000  Uiso   1.00
C230   C     0.16573   0.61584   0.25035   0.00000  Uiso   1.00
C231   C     0.16587   0.88420   0.24950   0.00000  Uiso   1.00
C232   C     0.14239   0.59344   0.20912   0.00000  Uiso   1.00
C233   C     0.14419   0.90614   0.28524   0.00000  Uiso   1.00
C234   C     0.13901   0.54753   0.20884   0.00000  Uiso   1.00
C235   C     0.14077   0.95198   0.28474   0.00000  Uiso   1.00
C236   C     0.15903   0.52394   0.24975   0.00000  Uiso   1.00
C237   C     0.15909   0.97598   0.24857   0.00000  Uiso   1.00
C238   C     0.11906   0.74056   0.04601   0.00000  Uiso   1.00
C239   C     0.17971   0.79026   0.44919   0.00000  Uiso   1.00
C240   C     0.12269   0.73624   0.09603   0.00000  Uiso   1.00
C241   C     0.18439   0.78708   0.40030   0.00000  Uiso   1.00
C242   C     0.21000   0.76254   0.10767   0.00000  Uiso   1.00
C243   C     0.15043   0.71346   0.39606   0.00000  Uiso   1.00
C244   C     0.21024   0.76170   0.05815   0.00000  Uiso   1.00
H245   H     0.19875   0.52696   0.32211   0.00000  Uiso   1.00
H246   H     0.14050   0.68299   0.46262   0.00000  Uiso   1.00
H247   H     0.01261   0.70604   0.17506   0.00000  Uiso   1.00
H248   H     0.32080   0.79287   0.32587   0.00000  Uiso   1.00
H249   H     0.22247   0.59303   0.35724   0.00000  Uiso   1.00
H250   H     0.21854   0.90830   0.15617   0.00000  Uiso   1.00
H251   H     0.01903   0.75496   0.44097   0.00000  Uiso   1.00
H252   H     0.17190   0.87367   0.04202   0.00000  Uiso   1.00
H253   H     0.09776   0.69708   0.14039   0.00000  Uiso   1.00
H254   H     0.23032   0.80744   0.35835   0.00000  Uiso   1.00
H255   H     0.19604   0.97382   0.18569   0.00000  Uiso   1.00
H256   H     0.12623   0.61146   0.17732   0.00000  Uiso   1.00
H257   H     0.12933   0.88783   0.31325   0.00000  Uiso   1.00
H258   H     0.12097   0.53034   0.17681   0.00000  Uiso   1.00
H259   H     0.12397   0.96878   0.31250   0.00000  Uiso   1.00
H260   H     0.24508   0.77235   0.13122   0.00000  Uiso   1.00
H261   H     0.13781   0.68386   0.37553   0.00000  Uiso   1.00
H262   H     0.24601   0.76980   0.04473   0.00000  Uiso   1.00
N263   N     0.16667   0.74999   0.12624   0.00000  Uiso   1.00
N264   N     0.16667   0.75001   0.37377   0.00000  Uiso   1.00
O265   O     0.16667   0.68453   0.28974   0.00000  Uiso   1.00
O266   O     0.01306   0.78220   0.30596   0.00000  Uiso   1.00
O267   O     0.21068   0.61478   0.33170   0.00000  Uiso   1.00
O268   O     0.20776   0.88629   0.17888   0.00000  Uiso   1.00
O269   O     0.05076   0.68418   0.49603   0.00000  Uiso   1.00
O270   O     0.01439   0.74547   0.03691   0.00000  Uiso   1.00
O271   O     0.05274   0.76383   0.46020   0.00000  Uiso   1.00
O272   O     0.24926   0.84581   0.49870   0.00000  Uiso   1.00
O273   O     0.17861   0.87991   0.44406   0.00000  Uiso   1.00
O274   O     0.15655   0.84768   0.02311   0.00000  Uiso   1.00
O275   O     0.08204   0.71593   0.11359   0.00000  Uiso   1.00
O276   O     0.16666   0.81546   0.21026   0.00000  Uiso   1.00
O277   O     0.20923   0.82126   0.38048   0.00000  Uiso   1.00
O278   O     0.16667   0.68453   0.21026   0.00000  Uiso   1.00
O279   O     0.16666   0.81547   0.28974   0.00000  Uiso   1.00
O280   O     0.09058   0.75000   0.28045   0.00000  Uiso   1.00
O281   O     0.24275   0.75000   0.21956   0.00000  Uiso   1.00
O282   O     0.09058   0.74999   0.20097   0.00000  Uiso   1.00
O283   O     0.24275   0.75000   0.29904   0.00000  Uiso   1.00
O284   O     0.32026   0.71749   0.19441   0.00000  Uiso   1.00
S285   S     0.05734   0.73254   0.00973   0.00000  Uiso   1.00
S286   S     0.19222   0.84250   0.47871   0.00000  Uiso   1.00
Zn287  Zn    0.16667   0.75000   0.30307   0.00000  Uiso   1.00
Zn288  Zn    0.16667   0.74999   0.19693   0.00000  Uiso   1.00
C289   C     0.50036   0.66387   0.25011   0.00000  Uiso   1.00
C290   C     0.48461   0.71326   0.44573   0.00000  Uiso   1.00
C291   C     0.49774   0.75150   0.02626   0.00000  Uiso   1.00
C292   C     0.49835   0.75200   0.47317   0.00000  Uiso   1.00
C293   C     0.40048   0.74912   0.23769   0.00000  Uiso   1.00
C294   C     0.59951   0.75088   0.26233   0.00000  Uiso   1.00
C295   C     0.34574   0.74260   0.23234   0.00000  Uiso   1.00
C296   C     0.65425   0.75734   0.26779   0.00000  Uiso   1.00
C297   C     0.51568   0.54595   0.29106   0.00000  Uiso   1.00
C298   C     0.51420   0.95448   0.21282   0.00000  Uiso   1.00
C299   C     0.51949   0.59225   0.29178   0.00000  Uiso   1.00
C300   C     0.50045   0.83615   0.25001   0.00000  Uiso   1.00
C301   C     0.51806   0.90825   0.21297   0.00000  Uiso   1.00
C302   C     0.49906   0.61584   0.25035   0.00000  Uiso   1.00
C303   C     0.49921   0.88420   0.24950   0.00000  Uiso   1.00
C304   C     0.47572   0.59344   0.20912   0.00000  Uiso   1.00
C305   C     0.47752   0.90614   0.28524   0.00000  Uiso   1.00
C306   C     0.47234   0.54753   0.20884   0.00000  Uiso   1.00
C307   C     0.47410   0.95198   0.28474   0.00000  Uiso   1.00
C308   C     0.49236   0.52394   0.24975   0.00000  Uiso   1.00
C309   C     0.49242   0.97598   0.24857   0.00000  Uiso   1.00
C310   C     0.45240   0.74056   0.04601   0.00000  Uiso   1.00
C311   C     0.51304   0.79026   0.44919   0.00000  Uiso   1.00
C312   C     0.45602   0.73624   0.09603   0.00000  Uiso   1.00
C313   C     0.51772   0.78708   0.40030   0.00000  Uiso   1.00
C314   C     0.54334   0.76254   0.10767   0.00000  Uiso   1.00
C315   C     0.48377   0.71346   0.39606   0.00000  Uiso   1.00
C316   C     0.54357   0.76170   0.05815   0.00000  Uiso   1.00
H317   H     0.53209   0.52696   0.32211   0.00000  Uiso   1.00
H318   H     0.47383   0.68299   0.46262   0.00000  Uiso   1.00
H319   H     0.34594   0.70604   0.17506   0.00000  Uiso   1.00
H320   H     0.65414   0.79287   0.32587   0.00000  Uiso   1.00
H321   H     0.55580   0.59303   0.35724   0.00000  Uiso   1.00
H322   H     0.55187   0.90830   0.15617   0.00000  Uiso   1.00
H323   H     0.35236   0.75496   0.44097   0.00000  Uiso   1.00
H324   H     0.50524   0.87367   0.04202   0.00000  Uiso   1.00
H325   H     0.43109   0.69708   0.14039   0.00000  Uiso   1.00
H326   H     0.56365   0.80744   0.35835   0.00000  Uiso   1.00
H327   H     0.52937   0.97382   0.18569   0.00000  Uiso   1.00
H328   H     0.45956   0.61146   0.17732   0.00000  Uiso   1.00
H329   H     0.46266   0.88783   0.31325   0.00000  Uiso   1.00
H330   H     0.45430   0.53034   0.17681   0.00000  Uiso   1.00
H331   H     0.45730   0.96878   0.31250   0.00000  Uiso   1.00
H332   H     0.57841   0.77235   0.13122   0.00000  Uiso   1.00
H333   H     0.47115   0.68386   0.37553   0.00000  Uiso   1.00
H334   H     0.57935   0.76980   0.04473   0.00000  Uiso   1.00
N335   N     0.50000   0.74999   0.12624   0.00000  Uiso   1.00
N336   N     0.50000   0.75001   0.37377   0.00000  Uiso   1.00
O337   O     0.50000   0.68453   0.28974   0.00000  Uiso   1.00
O338   O     0.34639   0.78220   0.30596   0.00000  Uiso   1.00
O339   O     0.54401   0.61478   0.33170   0.00000  Uiso   1.00
O340   O     0.54109   0.88629   0.17888   0.00000  Uiso   1.00
O341   O     0.38409   0.68418   0.49603   0.00000  Uiso   1.00
O342   O     0.34772   0.74547   0.03691   0.00000  Uiso   1.00
O343   O     0.38607   0.76383   0.46020   0.00000  Uiso   1.00
O344   O     0.58259   0.84581   0.49870   0.00000  Uiso   1.00
O345   O     0.51195   0.87991   0.44406   0.00000  Uiso   1.00
O346   O     0.48988   0.84768   0.02311   0.00000  Uiso   1.00
O347   O     0.41537   0.71593   0.11359   0.00000  Uiso   1.00
O348   O     0.50000   0.81546   0.21026   0.00000  Uiso   1.00
O349   O     0.54257   0.82126   0.38048   0.00000  Uiso   1.00
O350   O     0.50000   0.68453   0.21026   0.00000  Uiso   1.00
O351   O     0.50000   0.81547   0.28974   0.00000  Uiso   1.00
O352   O     0.42392   0.75000   0.28045   0.00000  Uiso   1.00
O353   O     0.57608   0.75000   0.21956   0.00000  Uiso   1.00
O354   O     0.42392   0.74999   0.20097   0.00000  Uiso   1.00
O355   O     0.57608   0.75000   0.29904   0.00000  Uiso   1.00
O356   O     0.65359   0.71749   0.19441   0.00000  Uiso   1.00
S357   S     0.39067   0.73254   0.00973   0.00000  Uiso   1.00
S358   S     0.52556   0.84250   0.47871   0.00000  Uiso   1.00
Zn359  Zn    0.50000   0.75000   0.30307   0.00000  Uiso   1.00
Zn360  Zn    0.50000   0.74999   0.19693   0.00000  Uiso   1.00
C361   C     0.83369   0.66387   0.25011   0.00000  Uiso   1.00
C362   C     0.81795   0.71326   0.44573   0.00000  Uiso   1.00
C363   C     0.83108   0.75150   0.02626   0.00000  Uiso   1.00
C364   C     0.83168   0.75200   0.47317   0.00000  Uiso   1.00
C365   C     0.73381   0.74912   0.23769   0.00000  Uiso   1.00
C366   C     0.93285   0.75088   0.26233   0.00000  Uiso   1.00
C367   C     0.67907   0.74260   0.23234   0.00000  Uiso   1.00
C368   C     0.98759   0.75734   0.26779   0.00000  Uiso   1.00
C369   C     0.84901   0.54595   0.29106   0.00000  Uiso   1.00
C370   C     0.84753   0.95448   0.21282   0.00000  Uiso   1.00
C371   C     0.85282   0.59225   0.29178   0.00000  Uiso   1.00
C372   C     0.83378   0.83615   0.25001   0.00000  Uiso   1.00
C373   C     0.85140   0.90825   0.21297   0.00000  Uiso   1.00
C374   C     0.83239   0.61584   0.25035   0.00000  Uiso   1.00
C375   C     0.83254   0.88420   0.24950   0.00000  Uiso   1.00
C376   C     0.80906   0.59344   0.20912   0.00000  Uiso   1.00
C377   C     0.81086   0.90614   0.28524   0.00000  Uiso   1.00
C378   C     0.80568   0.54753   0.20884   0.00000  Uiso   1.00
C379   C     0.80743   0.95198   0.28474   0.00000  Uiso   1.00
C380   C     0.82569   0.52394   0.24975   0.00000  Uiso   1.00
C381   C     0.82576   0.97598   0.24857   0.00000  Uiso   1.00
C382   C     0.78573   0.74056   0.04601   0.00000  Uiso   1.00
C383   C     0.84638   0.79026   0.44919   0.00000  Uiso   1.00
C384   C     0.78936   0.73624   0.09603   0.00000  Uiso   1.00
C385   C     0.85106   0.78708   0.40030   0.00000  Uiso   1.00
C386   C     0.87667   0.76254   0.10767   0.00000  Uiso   1.00
C387   C     0.81710   0.71346   0.39606   0.00000  Uiso   1.00
C388   C     0.87691   0.76170   0.05815   0.00000  Uiso   1.00
H389   H     0.86542   0.52696   0.32211   0.00000  Uiso   1.00
H390   H     0.80717   0.68299   0.46262   0.00000  Uiso   1.00
H391   H     0.67928   0.70604   0.17506   0.00000  Uiso   1.00
H392   H     0.98747   0.79287   0.32587   0.00000  Uiso   1.00
H393   H     0.88913   0.59303   0.35724   0.00000  Uiso   1.00
H394   H     0.88521   0.90830   0.15617   0.00000  Uiso   1.00
H395   H     0.68569   0.75496   0.44097   0.00000  Uiso   1.00
H396   H     0.83857   0.87367   0.04202   0.00000  Uiso   1.00
H397   H     0.76443   0.69708   0.14039   0.00000  Uiso   1.00
H398   H     0.89699   0.80744   0.35835   0.00000  Uiso   1.00
H399   H     0.86271   0.97382   0.18569   0.00000  Uiso   1.00
H400   H     0.79289   0.61146   0.17732   0.00000  Uiso   1.00
H401   H     0.79600   0.88783   0.31325   0.00000  Uiso   1.00
H402   H     0.78764   0.53034   0.17681   0.00000  Uiso   1.00
H403   H     0.79064   0.96878   0.31250   0.00000  Uiso   1.00
H404   H     0.91175   0.77235   0.13122   0.00000  Uiso   1.00
H405   H     0.80448   0.68386   0.37553   0.00000  Uiso   1.00
H406   H     0.91268   0.76980   0.04473   0.00000  Uiso   1.00
N407   N     0.83333   0.74999   0.12624   0.00000  Uiso   1.00
N408   N     0.83333   0.75001   0.37377   0.00000  Uiso   1.00
O409   O     0.83334   0.68453   0.28974   0.00000  Uiso   1.00
O410   O     0.67973   0.78220   0.30596   0.00000  Uiso   1.00
O411   O     0.87734   0.61478   0.33170   0.00000  Uiso   1.00
O412   O     0.87442   0.88629   0.17888   0.00000  Uiso   1.00
O413   O     0.71743   0.68418   0.49603   0.00000  Uiso   1.00
O414   O     0.68106   0.74547   0.03691   0.00000  Uiso   1.00
O415   O     0.71941   0.76383   0.46020   0.00000  Uiso   1.00
O416   O     0.91593   0.84581   0.49870   0.00000  Uiso   1.00
O417   O     0.84528   0.87991   0.44406   0.00000  Uiso   1.00
O418   O     0.82321   0.84768   0.02311   0.00000  Uiso   1.00
O419   O     0.74871   0.71593   0.11359   0.00000  Uiso   1.00
O420   O     0.83333   0.81546   0.21026   0.00000  Uiso   1.00
O421   O     0.87590   0.82126   0.38048   0.00000  Uiso   1.00
O422   O     0.83334   0.68453   0.21026   0.00000  Uiso   1.00
O423   O     0.83333   0.81547   0.28974   0.00000  Uiso   1.00
O424   O     0.75725   0.75000   0.28045   0.00000  Uiso   1.00
O425   O     0.90942   0.75000   0.21956   0.00000  Uiso   1.00
O426   O     0.75725   0.74999   0.20097   0.00000  Uiso   1.00
O427   O     0.90942   0.75000   0.29904   0.00000  Uiso   1.00
O428   O     0.98693   0.71749   0.19441   0.00000  Uiso   1.00
S429   S     0.72400   0.73254   0.00973   0.00000  Uiso   1.00
S430   S     0.85889   0.84250   0.47871   0.00000  Uiso   1.00
Zn431  Zn    0.83333   0.75000   0.30307   0.00000  Uiso   1.00
Zn432  Zn    0.83333   0.74999   0.19693   0.00000  Uiso   1.00
C433   C     0.16702   0.16387   0.75011   0.00000  Uiso   1.00
C434   C     0.15128   0.21326   0.94573   0.00000  Uiso   1.00
C435   C     0.16441   0.25150   0.52626   0.00000  Uiso   1.00
C436   C     0.16502   0.25200   0.97317   0.00000  Uiso   1.00
C437   C     0.06715   0.24912   0.73769   0.00000  Uiso   1.00
C438   C     0.26618   0.25088   0.76233   0.00000  Uiso   1.00
C439   C     0.01241   0.24260   0.73234   0.00000  Uiso   1.00
C440   C     0.32092   0.25734   0.76779   0.00000  Uiso   1.00
C441   C     0.18234   0.04595   0.79106   0.00000  Uiso   1.00
C442   C     0.18087   0.45448   0.71282   0.00000  Uiso   1.00
C443   C     0.18616   0.09225   0.79178   0.00000  Uiso   1.00
C444   C     0.16711   0.33615   0.75001   0.00000  Uiso   1.00
C445   C     0.18473   0.40825   0.71297   0.00000  Uiso   1.00
C446   C     0.16573   0.11584   0.75035   0.00000  Uiso   1.00
C447   C     0.16587   0.38420   0.74950   0.00000  Uiso   1.00
C448   C     0.14239   0.09344   0.70912   0.00000  Uiso   1.00
C449   C     0.14419   0.40614   0.78524   0.00000  Uiso   1.00
C450   C     0.13901   0.04753   0.70884   0.00000  Uiso   1.00
C451   C     0.14077   0.45198   0.78474   0.00000  Uiso   1.00
C452   C     0.15903   0.02394   0.74975   0.00000  Uiso   1.00
C453   C     0.15909   0.47598   0.74857   0.00000  Uiso   1.00
C454   C     0.11906   0.24056   0.54601   0.00000  Uiso   1.00
C455   C     0.17971   0.29026   0.94919   0.00000  Uiso   1.00
C456   C     0.12269   0.23624   0.59603   0.00000  Uiso   1.00
C457   C     0.18439   0.28708   0.90030   0.00000  Uiso   1.00
C458   C     0.21000   0.26254   0.60767   0.00000  Uiso   1.00
C459   C     0.15043   0.21346   0.89606   0.00000  Uiso   1.00
C460   C     0.21024   0.26170   0.55815   0.00000  Uiso   1.00
H461   H     0.19875   0.02696   0.82211   0.00000  Uiso   1.00
H462   H     0.14050   0.18299   0.96262   0.00000  Uiso   1.00
H463   H     0.01261   0.20604   0.67506   0.00000  Uiso   1.00
H464   H     0.32080   0.29287   0.82587   0.00000  Uiso   1.00
H465   H     0.22247   0.09303   0.85724   0.00000  Uiso   1.00
H466   H     0.21854   0.40830   0.65617   0.00000  Uiso   1.00
H467   H     0.01903   0.25496   0.94097   0.00000  Uiso   1.00
H468   H     0.17190   0.37367   0.54202   0.00000  Uiso   1.00
H469   H     0.09776   0.19708   0.64039   0.00000  Uiso   1.00
H470   H     0.23032   0.30744   0.85835   0.00000  Uiso   1.00
H471   H     0.19604   0.47382   0.68569   0.00000  Uiso   1.00
H472   H     0.12623   0.11146   0.67732   0.00000  Uiso   1.00
H473   H     0.12933   0.38783   0.81325   0.00000  Uiso   1.00
H474   H     0.12097   0.03034   0.67681   0.00000  Uiso   1.00
H475   H     0.12397   0.46878   0.81250   0.00000  Uiso   1.00
H476   H     0.24508   0.27235   0.63122   0.00000  Uiso   1.00
H477   H     0.13781   0.18386   0.87553   0.00000  Uiso   1.00
H478   H     0.24601   0.26980   0.54473   0.00000  Uiso   1.00
N479   N     0.16667   0.24999   0.62624   0.00000  Uiso   1.00
N480   N     0.16667   0.25001   0.87377   0.00000  Uiso   1.00
O481   O     0.16667   0.18453   0.78974   0.00000  Uiso   1.00
O482   O     0.01306   0.28220   0.80596   0.00000  Uiso   1.00
O483   O     0.21068   0.11478   0.83170   0.00000  Uiso   1.00
O484   O     0.20776   0.38629   0.67888   0.00000  Uiso   1.00
O485   O     0.05076   0.18418   0.99603   0.00000  Uiso   1.00
O486   O     0.01439   0.24547   0.53691   0.00000  Uiso   1.00
O487   O     0.05274   0.26383   0.96020   0.00000  Uiso   1.00
O488   O     0.24926   0.34581   0.99870   0.00000  Uiso   1.00
O489   O     0.17861   0.37991   0.94406   0.00000  Uiso   1.00
O490   O     0.15655   0.34768   0.52311   0.00000  Uiso   1.00
O491   O     0.08204   0.21593   0.61359   0.00000  Uiso   1.00
O492   O     0.16666   0.31546   0.71026   0.00000  Uiso   1.00
O493   O     0.20923   0.32126   0.88048   0.00000  Uiso   1.00
O494   O     0.16667   0.18453   0.71026   0.00000  Uiso   1.00
O495   O     0.16666   0.31547   0.78974   0.00000  Uiso   1.00
O496   O     0.09058   0.25000   0.78045   0.00000  Uiso   1.00
O497   O     0.24275   0.25000   0.71956   0.00000  Uiso   1.00
O498   O     0.09058   0.24999   0.70097   0.00000  Uiso   1.00
O499   O     0.24275   0.25000   0.79904   0.00000  Uiso   1.00
O500   O     0.32026   0.21749   0.69441   0.00000  Uiso   1.00
S501   S     0.05734   0.23254   0.50973   0.00000  Uiso   1.00
S502   S     0.19222   0.34250   0.97871   0.00000  Uiso   1.00
Zn503  Zn    0.16667   0.25000   0.80307   0.00000  Uiso   1.00
Zn504  Zn    0.16667   0.24999   0.69693   0.00000  Uiso   1.00
C505   C     0.50036   0.16387   0.75011   0.00000  Uiso   1.00
C506   C     0.48461   0.21326   0.94573   0.00000  Uiso   1.00
C507   C     0.49774   0.25150   0.52626   0.00000  Uiso   1.00
C508   C     0.49835   0.25200   0.97317   0.00000  Uiso   1.00
C509   C     0.40048   0.24912   0.73769   0.00000  Uiso   1.00
C510   C     0.59951   0.25088   0.76233   0.00000  Uiso   1.00
C511   C     0.34574   0.24260   0.73234   0.00000  Uiso   1.00
C512   C     0.65425   0.25734   0.76779   0.00000  Uiso   1.00
C513   C     0.51568   0.04595   0.79106   0.00000  Uiso   1.00
C514   C     0.51420   0.45448   0.71282   0.00000  Uiso   1.00
C515   C     0.51949   0.09225   0.79178   0.00000  Uiso   1.00
C516   C     0.50045   0.33615   0.75001   0.00000  Uiso   1.00
C517   C     0.51806   0.40825   0.71297   0.00000  Uiso   1.00
C518   C     0.49906   0.11584   0.75035   0.00000  Uiso   1.00
C519   C     0.49921   0.38420   0.74950   0.00000  Uiso   1.00
C520   C     0.47572   0.09344   0.70912   0.00000  Uiso   1.00
C521   C     0.47752   0.40614   0.78524   0.00000  Uiso   1.00
C522   C     0.47234   0.04753   0.70884   0.00000  Uiso   1.00
C523   C     0.47410   0.45198   0.78474   0.00000  Uiso   1.00
C524   C     0.49236   0.02394   0.74975   0.00000  Uiso   1.00
C525   C     0.49242   0.47598   0.74857   0.00000  Uiso   1.00
C526   C     0.45240   0.24056   0.54601   0.00000  Uiso   1.00
C527   C     0.51304   0.29026   0.94919   0.00000  Uiso   1.00
C528   C     0.45602   0.23624   0.59603   0.00000  Uiso   1.00
C529   C     0.51772   0.28708   0.90030   0.00000  Uiso   1.00
C530   C     0.54334   0.26254   0.60767   0.00000  Uiso   1.00
C531   C     0.48377   0.21346   0.89606   0.00000  Uiso   1.00
C532   C     0.54357   0.26170   0.55815   0.00000  Uiso   1.00
H533   H     0.53209   0.02696   0.82211   0.00000  Uiso   1.00
H534   H     0.47383   0.18299   0.96262   0.00000  Uiso   1.00
H535   H     0.34594   0.20604   0.67506   0.00000  Uiso   1.00
H536   H     0.65414   0.29287   0.82587   0.00000  Uiso   1.00
H537   H     0.55580   0.09303   0.85724   0.00000  Uiso   1.00
H538   H     0.55187   0.40830   0.65617   0.00000  Uiso   1.00
H539   H     0.35236   0.25496   0.94097   0.00000  Uiso   1.00
H540   H     0.50524   0.37367   0.54202   0.00000  Uiso   1.00
H541   H     0.43109   0.19708   0.64039   0.00000  Uiso   1.00
H542   H     0.56365   0.30744   0.85835   0.00000  Uiso   1.00
H543   H     0.52937   0.47382   0.68569   0.00000  Uiso   1.00
H544   H     0.45956   0.11146   0.67732   0.00000  Uiso   1.00
H545   H     0.46266   0.38783   0.81325   0.00000  Uiso   1.00
H546   H     0.45430   0.03034   0.67681   0.00000  Uiso   1.00
H547   H     0.45730   0.46878   0.81250   0.00000  Uiso   1.00
H548   H     0.57841   0.27235   0.63122   0.00000  Uiso   1.00
H549   H     0.47115   0.18386   0.87553   0.00000  Uiso   1.00
H550   H     0.57935   0.26980   0.54473   0.00000  Uiso   1.00
N551   N     0.50000   0.24999   0.62624   0.00000  Uiso   1.00
N552   N     0.50000   0.25001   0.87377   0.00000  Uiso   1.00
O553   O     0.50000   0.18453   0.78974   0.00000  Uiso   1.00
O554   O     0.34639   0.28220   0.80596   0.00000  Uiso   1.00
O555   O     0.54401   0.11478   0.83170   0.00000  Uiso   1.00
O556   O     0.54109   0.38629   0.67888   0.00000  Uiso   1.00
O557   O     0.38409   0.18418   0.99603   0.00000  Uiso   1.00
O558   O     0.34772   0.24547   0.53691   0.00000  Uiso   1.00
O559   O     0.38607   0.26383   0.96020   0.00000  Uiso   1.00
O560   O     0.58259   0.34581   0.99870   0.00000  Uiso   1.00
O561   O     0.51195   0.37991   0.94406   0.00000  Uiso   1.00
O562   O     0.48988   0.34768   0.52311   0.00000  Uiso   1.00
O563   O     0.41537   0.21593   0.61359   0.00000  Uiso   1.00
O564   O     0.50000   0.31546   0.71026   0.00000  Uiso   1.00
O565   O     0.54257   0.32126   0.88048   0.00000  Uiso   1.00
O566   O     0.50000   0.18453   0.71026   0.00000  Uiso   1.00
O567   O     0.50000   0.31547   0.78974   0.00000  Uiso   1.00
O568   O     0.42392   0.25000   0.78045   0.00000  Uiso   1.00
O569   O     0.57608   0.25000   0.71956   0.00000  Uiso   1.00
O570   O     0.42392   0.24999   0.70097   0.00000  Uiso   1.00
O571   O     0.57608   0.25000   0.79904   0.00000  Uiso   1.00
O572   O     0.65359   0.21749   0.69441   0.00000  Uiso   1.00
S573   S     0.39067   0.23254   0.50973   0.00000  Uiso   1.00
S574   S     0.52556   0.34250   0.97871   0.00000  Uiso   1.00
Zn575  Zn    0.50000   0.25000   0.80307   0.00000  Uiso   1.00
Zn576  Zn    0.50000   0.24999   0.69693   0.00000  Uiso   1.00
C577   C     0.83369   0.16387   0.75011   0.00000  Uiso   1.00
C578   C     0.81795   0.21326   0.94573   0.00000  Uiso   1.00
C579   C     0.83108   0.25150   0.52626   0.00000  Uiso   1.00
C580   C     0.83168   0.25200   0.97317   0.00000  Uiso   1.00
C581   C     0.73381   0.24912   0.73769   0.00000  Uiso   1.00
C582   C     0.93285   0.25088   0.76233   0.00000  Uiso   1.00
C583   C     0.67907   0.24260   0.73234   0.00000  Uiso   1.00
C584   C     0.98759   0.25734   0.76779   0.00000  Uiso   1.00
C585   C     0.84901   0.04595   0.79106   0.00000  Uiso   1.00
C586   C     0.84753   0.45448   0.71282   0.00000  Uiso   1.00
C587   C     0.85282   0.09225   0.79178   0.00000  Uiso   1.00
C588   C     0.83378   0.33615   0.75001   0.00000  Uiso   1.00
C589   C     0.85140   0.40825   0.71297   0.00000  Uiso   1.00
C590   C     0.83239   0.11584   0.75035   0.00000  Uiso   1.00
C591   C     0.83254   0.38420   0.74950   0.00000  Uiso   1.00
C592   C     0.80906   0.09344   0.70912   0.00000  Uiso   1.00
C593   C     0.81086   0.40614   0.78524   0.00000  Uiso   1.00
C594   C     0.80568   0.04753   0.70884   0.00000  Uiso   1.00
C595   C     0.80743   0.45198   0.78474   0.00000  Uiso   1.00
C596   C     0.82569   0.02394   0.74975   0.00000  Uiso   1.00
C597   C     0.82576   0.47598   0.74857   0.00000  Uiso   1.00
C598   C     0.78573   0.24056   0.54601   0.00000  Uiso   1.00
C599   C     0.84638   0.29026   0.94919   0.00000  Uiso   1.00
C600   C     0.78936   0.23624   0.59603   0.00000  Uiso   1.00
C601   C     0.85106   0.28708   0.90030   0.00000  Uiso   1.00
C602   C     0.87667   0.26254   0.60767   0.00000  Uiso   1.00
C603   C     0.81710   0.21346   0.89606   0.00000  Uiso   1.00
C604   C     0.87691   0.26170   0.55815   0.00000  Uiso   1.00
H605   H     0.86542   0.02696   0.82211   0.00000  Uiso   1.00
H606   H     0.80717   0.18299   0.96262   0.00000  Uiso   1.00
H607   H     0.67928   0.20604   0.67506   0.00000  Uiso   1.00
H608   H     0.98747   0.29287   0.82587   0.00000  Uiso   1.00
H609   H     0.88913   0.09303   0.85724   0.00000  Uiso   1.00
H610   H     0.88521   0.40830   0.65617   0.00000  Uiso   1.00
H611   H     0.68569   0.25496   0.94097   0.00000  Uiso   1.00
H612   H     0.83857   0.37367   0.54202   0.00000  Uiso   1.00
H613   H     0.76443   0.19708   0.64039   0.00000  Uiso   1.00
H614   H     0.89699   0.30744   0.85835   0.00000  Uiso   1.00
H615   H     0.86271   0.47382   0.68569   0.00000  Uiso   1.00
H616   H     0.79289   0.11146   0.67732   0.00000  Uiso   1.00
H617   H     0.79600   0.38783   0.81325   0.00000  Uiso   1.00
H618   H     0.78764   0.03034   0.67681   0.00000  Uiso   1.00
H619   H     0.79064   0.46878   0.81250   0.00000  Uiso   1.00
H620   H     0.91175   0.27235   0.63122   0.00000  Uiso   1.00
H621   H     0.80448   0.18386   0.87553   0.00000  Uiso   1.00
H622   H     0.91268   0.26980   0.54473   0.00000  Uiso   1.00
N623   N     0.83333   0.24999   0.62624   0.00000  Uiso   1.00
N624   N     0.83333   0.25001   0.87377   0.00000  Uiso   1.00
O625   O     0.83334   0.18453   0.78974   0.00000  Uiso   1.00
O626   O     0.67973   0.28220   0.80596   0.00000  Uiso   1.00
O627   O     0.87734   0.11478   0.83170   0.00000  Uiso   1.00
O628   O     0.87442   0.38629   0.67888   0.00000  Uiso   1.00
O629   O     0.71743   0.18418   0.99603   0.00000  Uiso   1.00
O630   O     0.68106   0.24547   0.53691   0.00000  Uiso   1.00
O631   O     0.71941   0.26383   0.96020   0.00000  Uiso   1.00
O632   O     0.91593   0.34581   0.99870   0.00000  Uiso   1.00
O633   O     0.84528   0.37991   0.94406   0.00000  Uiso   1.00
O634   O     0.82321   0.34768   0.52311   0.00000  Uiso   1.00
O635   O     0.74871   0.21593   0.61359   0.00000  Uiso   1.00
O636   O     0.83333   0.31546   0.71026   0.00000  Uiso   1.00
O637   O     0.87590   0.32126   0.88048   0.00000  Uiso   1.00
O638   O     0.83334   0.18453   0.71026   0.00000  Uiso   1.00
O639   O     0.83333   0.31547   0.78974   0.00000  Uiso   1.00
O640   O     0.75725   0.25000   0.78045   0.00000  Uiso   1.00
O641   O     0.90942   0.25000   0.71956   0.00000  Uiso   1.00
O642   O     0.75725   0.24999   0.70097   0.00000  Uiso   1.00
O643   O     0.90942   0.25000   0.79904   0.00000  Uiso   1.00
O644   O     0.98693   0.21749   0.69441   0.00000  Uiso   1.00
S645   S     0.72400   0.23254   0.50973   0.00000  Uiso   1.00
S646   S     0.85889   0.34250   0.97871   0.00000  Uiso   1.00
Zn647  Zn    0.83333   0.25000   0.80307   0.00000  Uiso   1.00
Zn648  Zn    0.83333   0.24999   0.69693   0.00000  Uiso   1.00
C649   C     0.16702   0.66387   0.75011   0.00000  Uiso   1.00
C650   C     0.15128   0.71326   0.94573   0.00000  Uiso   1.00
C651   C     0.16441   0.75150   0.52626   0.00000  Uiso   1.00
C652   C     0.16502   0.75200   0.97317   0.00000  Uiso   1.00
C653   C     0.06715   0.74912   0.73769   0.00000  Uiso   1.00
C654   C     0.26618   0.75088   0.76233   0.00000  Uiso   1.00
C655   C     0.01241   0.74260   0.73234   0.00000  Uiso   1.00
C656   C     0.32092   0.75734   0.76779   0.00000  Uiso   1.00
C657   C     0.18234   0.54595   0.79106   0.00000  Uiso   1.00
C658   C     0.18087   0.95448   0.71282   0.00000  Uiso   1.00
C659   C     0.18616   0.59225   0.79178   0.00000  Uiso   1.00
C660   C     0.16711   0.83615   0.75001   0.00000  Uiso   1.00
C661   C     0.18473   0.90825   0.71297   0.00000  Uiso   1.00
C662   C     0.16573   0.61584   0.75035   0.00000  Uiso   1.00
C663   C     0.16587   0.88420   0.74950   0.00000  Uiso   1.00
C664   C     0.14239   0.59344   0.70912   0.00000  Uiso   1.00
C665   C     0.14419   0.90614   0.78524   0.00000  Uiso   1.00
C666   C     0.13901   0.54753   0.70884   0.00000  Uiso   1.00
C667   C     0.14077   0.95198   0.78474   0.00000  Uiso   1.00
C668   C     0.15903   0.52394   0.74975   0.00000  Uiso   1.00
C669   C     0.15909   0.97598   0.74857   0.00000  Uiso   1.00
C670   C     0.11906   0.74056   0.54601   0.00000  Uiso   1.00
C671   C     0.17971   0.79026   0.94919   0.00000  Uiso   1.00
C672   C     0.12269   0.73624   0.59603   0.00000  Uiso   1.00
C673   C     0.18439   0.78708   0.90030   0.00000  Uiso   1.00
C674   C     0.21000   0.76254   0.60767   0.00000  Uiso   1.00
C675   C     0.15043   0.71346   0.89606   0.00000  Uiso   1.00
C676   C     0.21024   0.76170   0.55815   0.00000  Uiso   1.00
H677   H     0.19875   0.52696   0.82211   0.00000  Uiso   1.00
H678   H     0.14050   0.68299   0.96262   0.00000  Uiso   1.00
H679   H     0.01261   0.70604   0.67506   0.00000  Uiso   1.00
H680   H     0.32080   0.79287   0.82587   0.00000  Uiso   1.00
H681   H     0.22247   0.59303   0.85724   0.00000  Uiso   1.00
H682   H     0.21854   0.90830   0.65617   0.00000  Uiso   1.00
H683   H     0.01903   0.75496   0.94097   0.00000  Uiso   1.00
H684   H     0.17190   0.87367   0.54202   0.00000  Uiso   1.00
H685   H     0.09776   0.69708   0.64039   0.00000  Uiso   1.00
H686   H     0.23032   0.80744   0.85835   0.00000  Uiso   1.00
H687   H     0.19604   0.97382   0.68569   0.00000  Uiso   1.00
H688   H     0.12623   0.61146   0.67732   0.00000  Uiso   1.00
H689   H     0.12933   0.88783   0.81325   0.00000  Uiso   1.00
H690   H     0.12097   0.53034   0.67681   0.00000  Uiso   1.00
H691   H     0.12397   0.96878   0.81250   0.00000  Uiso   1.00
H692   H     0.24508   0.77235   0.63122   0.00000  Uiso   1.00
H693   H     0.13781   0.68386   0.87553   0.00000  Uiso   1.00
H694   H     0.24601   0.76980   0.54473   0.00000  Uiso   1.00
N695   N     0.16667   0.74999   0.62624   0.00000  Uiso   1.00
N696   N     0.16667   0.75001   0.87377   0.00000  Uiso   1.00
O697   O     0.16667   0.68453   0.78974   0.00000  Uiso   1.00
O698   O     0.01306   0.78220   0.80596   0.00000  Uiso   1.00
O699   O     0.21068   0.61478   0.83170   0.00000  Uiso   1.00
O700   O     0.20776   0.88629   0.67888   0.00000  Uiso   1.00
O701   O     0.05076   0.68418   0.99603   0.00000  Uiso   1.00
O702   O     0.01439   0.74547   0.53691   0.00000  Uiso   1.00
O703   O     0.05274   0.76383   0.96020   0.00000  Uiso   1.00
O704   O     0.24926   0.84581   0.99870   0.00000  Uiso   1.00
O705   O     0.17861   0.87991   0.94406   0.00000  Uiso   1.00
O706   O     0.15655   0.84768   0.52311   0.00000  Uiso   1.00
O707   O     0.08204   0.71593   0.61359   0.00000  Uiso   1.00
O708   O     0.16666   0.81546   0.71026   0.00000  Uiso   1.00
O709   O     0.20923   0.82126   0.88048   0.00000  Uiso   1.00
O710   O     0.16667   0.68453   0.71026   0.00000  Uiso   1.00
O711   O     0.16666   0.81547   0.78974   0.00000  Uiso   1.00
O712   O     0.09058   0.75000   0.78045   0.00000  Uiso   1.00
O713   O     0.24275   0.75000   0.71956   0.00000  Uiso   1.00
O714   O     0.09058   0.74999   0.70097   0.00000  Uiso   1.00
O715   O     0.24275   0.75000   0.79904   0.00000  Uiso   1.00
O716   O     0.32026   0.71749   0.69441   0.00000  Uiso   1.00
S717   S     0.05734   0.73254   0.50973   0.00000  Uiso   1.00
S718   S     0.19222   0.84250   0.97871   0.00000  Uiso   1.00
Zn719  Zn    0.16667   0.75000   0.80307   0.00000  Uiso   1.00
Zn720  Zn    0.16667   0.74999   0.69693   0.00000  Uiso   1.00
C721   C     0.50036   0.66387   0.75011   0.00000  Uiso   1.00
C722   C     0.48461   0.71326   0.94573   0.00000  Uiso   1.00
C723   C     0.49774   0.75150   0.52626   0.00000  Uiso   1.00
C724   C     0.49835   0.75200   0.97317   0.00000  Uiso   1.00
C725   C     0.40048   0.74912   0.73769   0.00000  Uiso   1.00
C726   C     0.59951   0.75088   0.76233   0.00000  Uiso   1.00
C727   C     0.34574   0.74260   0.73234   0.00000  Uiso   1.00
C728   C     0.65425   0.75734   0.76779   0.00000  Uiso   1.00
C729   C     0.51568   0.54595   0.79106   0.00000  Uiso   1.00
C730   C     0.51420   0.95448   0.71282   0.00000  Uiso   1.00
C731   C     0.51949   0.59225   0.79178   0.00000  Uiso   1.00
C732   C     0.50045   0.83615   0.75001   0.00000  Uiso   1.00
C733   C     0.51806   0.90825   0.71297   0.00000  Uiso   1.00
C734   C     0.49906   0.61584   0.75035   0.00000  Uiso   1.00
C735   C     0.49921   0.88420   0.74950   0.00000  Uiso   1.00
C736   C     0.47572   0.59344   0.70912   0.00000  Uiso   1.00
C737   C     0.47752   0.90614   0.78524   0.00000  Uiso   1.00
C738   C     0.47234   0.54753   0.70884   0.00000  Uiso   1.00
C739   C     0.47410   0.95198   0.78474   0.00000  Uiso   1.00
C740   C     0.49236   0.52394   0.74975   0.00000  Uiso   1.00
C741   C     0.49242   0.97598   0.74857   0.00000  Uiso   1.00
C742   C     0.45240   0.74056   0.54601   0.00000  Uiso   1.00
C743   C     0.51304   0.79026   0.94919   0.00000  Uiso   1.00
C744   C     0.45602   0.73624   0.59603   0.00000  Uiso   1.00
C745   C     0.51772   0.78708   0.90030   0.00000  Uiso   1.00
C746   C     0.54334   0.76254   0.60767   0.00000  Uiso   1.00
C747   C     0.48377   0.71346   0.89606   0.00000  Uiso   1.00
C748   C     0.54357   0.76170   0.55815   0.00000  Uiso   1.00
H749   H     0.53209   0.52696   0.82211   0.00000  Uiso   1.00
H750   H     0.47383   0.68299   0.96262   0.00000  Uiso   1.00
H751   H     0.34594   0.70604   0.67506   0.00000  Uiso   1.00
H752   H     0.65414   0.79287   0.82587   0.00000  Uiso   1.00
H753   H     0.55580   0.59303   0.85724   0.00000  Uiso   1.00
H754   H     0.55187   0.90830   0.65617   0.00000  Uiso   1.00
H755   H     0.35236   0.75496   0.94097   0.00000  Uiso   1.00
H756   H     0.50524   0.87367   0.54202   0.00000  Uiso   1.00
H757   H     0.43109   0.69708   0.64039   0.00000  Uiso   1.00
H758   H     0.56365   0.80744   0.85835   0.00000  Uiso   1.00
H759   H     0.52937   0.97382   0.68569   0.00000  Uiso   1.00
H760   H     0.45956   0.61146   0.67732   0.00000  Uiso   1.00
H761   H     0.46266   0.88783   0.81325   0.00000  Uiso   1.00
H762   H     0.45430   0.53034   0.67681   0.00000  Uiso   1.00
H763   H     0.45730   0.96878   0.81250   0.00000  Uiso   1.00
H764   H     0.57841   0.77235   0.63122   0.00000  Uiso   1.00
H765   H     0.47115   0.68386   0.87553   0.00000  Uiso   1.00
H766   H     0.57935   0.76980   0.54473   0.00000  Uiso   1.00
N767   N     0.50000   0.74999   0.62624   0.00000  Uiso   1.00
N768   N     0.50000   0.75001   0.87377   0.00000  Uiso   1.00
O769   O     0.50000   0.68453   0.78974   0.00000  Uiso   1.00
O770   O     0.34639   0.78220   0.80596   0.00000  Uiso   1.00
O771   O     0.54401   0.61478   0.83170   0.00000  Uiso   1.00
O772   O     0.54109   0.88629   0.67888   0.00000  Uiso   1.00
O773   O     0.38409   0.68418   0.99603   0.00000  Uiso   1.00
O774   O     0.34772   0.74547   0.53691   0.00000  Uiso   1.00
O775   O     0.38607   0.76383   0.96020   0.00000  Uiso   1.00
O776   O     0.58259   0.84581   0.99870   0.00000  Uiso   1.00
O777   O     0.51195   0.87991   0.94406   0.00000  Uiso   1.00
O778   O     0.48988   0.84768   0.52311   0.00000  Uiso   1.00
O779   O     0.41537   0.71593   0.61359   0.00000  Uiso   1.00
O780   O     0.50000   0.81546   0.71026   0.00000  Uiso   1.00
O781   O     0.54257   0.82126   0.88048   0.00000  Uiso   1.00
O782   O     0.50000   0.68453   0.71026   0.00000  Uiso   1.00
O783   O     0.50000   0.81547   0.78974   0.00000  Uiso   1.00
O784   O     0.42392   0.75000   0.78045   0.00000  Uiso   1.00
O785   O     0.57608   0.75000   0.71956   0.00000  Uiso   1.00
O786   O     0.42392   0.74999   0.70097   0.00000  Uiso   1.00
O787   O     0.57608   0.75000   0.79904   0.00000  Uiso   1.00
O788   O     0.65359   0.71749   0.69441   0.00000  Uiso   1.00
S789   S     0.39067   0.73254   0.50973   0.00000  Uiso   1.00
S790   S     0.52556   0.84250   0.97871   0.00000  Uiso   1.00
Zn791  Zn    0.50000   0.75000   0.80307   0.00000  Uiso   1.00
Zn792  Zn    0.50000   0.74999   0.69693   0.00000  Uiso   1.00
C793   C     0.83369   0.66387   0.75011   0.00000  Uiso   1.00
C794   C     0.81795   0.71326   0.94573   0.00000  Uiso   1.00
C795   C     0.83108   0.75150   0.52626   0.00000  Uiso   1.00
C796   C     0.83168   0.75200   0.97317   0.00000  Uiso   1.00
C797   C     0.73381   0.74912   0.73769   0.00000  Uiso   1.00
C798   C     0.93285   0.75088   0.76233   0.00000  Uiso   1.00
C799   C     0.67907   0.74260   0.73234   0.00000  Uiso   1.00
C800   C     0.98759   0.75734   0.76779   0.00000  Uiso   1.00
C801   C     0.84901   0.54595   0.79106   0.00000  Uiso   1.00
C802   C     0.84753   0.95448   0.71282   0.00000  Uiso   1.00
C803   C     0.85282   0.59225   0.79178   0.00000  Uiso   1.00
C804   C     0.83378   0.83615   0.75001   0.00000  Uiso   1.00
C805   C     0.85140   0.90825   0.71297   0.00000  Uiso   1.00
C806   C     0.83239   0.61584   0.75035   0.00000  Uiso   1.00
C807   C     0.83254   0.88420   0.74950   0.00000  Uiso   1.00
C808   C     0.80906   0.59344   0.70912   0.00000  Uiso   1.00
C809   C     0.81086   0.90614   0.78524   0.00000  Uiso   1.00
C810   C     0.80568   0.54753   0.70884   0.00000  Uiso   1.00
C811   C     0.80743   0.95198   0.78474   0.00000  Uiso   1.00
C812   C     0.82569   0.52394   0.74975   0.00000  Uiso   1.00
C813   C     0.82576   0.97598   0.74857   0.00000  Uiso   1.00
C814   C     0.78573   0.74056   0.54601   0.00000  Uiso   1.00
C815   C     0.84638   0.79026   0.94919   0.00000  Uiso   1.00
C816   C     0.78936   0.73624   0.59603   0.00000  Uiso   1.00
C817   C     0.85106   0.78708   0.90030   0.00000  Uiso   1.00
C818   C     0.87667   0.76254   0.60767   0.00000  Uiso   1.00
C819   C     0.81710   0.71346   0.89606   0.00000  Uiso   1.00
C820   C     0.87691   0.76170   0.55815   0.00000  Uiso   1.00
H821   H     0.86542   0.52696   0.82211   0.00000  Uiso   1.00
H822   H     0.80717   0.68299   0.96262   0.00000  Uiso   1.00
H823   H     0.67928   0.70604   0.67506   0.00000  Uiso   1.00
H824   H     0.98747   0.79287   0.82587   0.00000  Uiso   1.00
H825   H     0.88913   0.59303   0.85724   0.00000  Uiso   1.00
H826   H     0.88521   0.90830   0.65617   0.00000  Uiso   1.00
H827   H     0.68569   0.75496   0.94097   0.00000  Uiso   1.00
H828   H     0.83857   0.87367   0.54202   0.00000  Uiso   1.00
H829   H     0.76443   0.69708   0.64039   0.00000  Uiso   1.00
H830   H     0.89699   0.80744   0.85835   0.00000  Uiso   1.00
H831   H     0.86271   0.97382   0.68569   0.00000  Uiso   1.00
H832   H     0.79289   0.61146   0.67732   0.00000  Uiso   1.00
H833   H     0.79600   0.88783   0.81325   0.00000  Uiso   1.00
H834   H     0.78764   0.53034   0.67681   0.00000  Uiso   1.00
H835   H     0.79064   0.96878   0.81250   0.00000  Uiso   1.00
H836   H     0.91175   0.77235   0.63122   0.00000  Uiso   1.00
H837   H     0.80448   0.68386   0.87553   0.00000  Uiso   1.00
H838   H     0.91268   0.76980   0.54473   0.00000  Uiso   1.00
N839   N     0.83333   0.74999   0.62624   0.00000  Uiso   1.00
N840   N     0.83333   0.75001   0.87377   0.00000  Uiso   1.00
O841   O     0.83334   0.68453   0.78974   0.00000  Uiso   1.00
O842   O     0.67973   0.78220   0.80596   0.00000  Uiso   1.00
O843   O     0.87734   0.61478   0.83170   0.00000  Uiso   1.00
O844   O     0.87442   0.88629   0.67888   0.00000  Uiso   1.00
O845   O     0.71743   0.68418   0.99603   0.00000  Uiso   1.00
O846   O     0.68106   0.74547   0.53691   0.00000  Uiso   1.00
O847   O     0.71941   0.76383   0.96020   0.00000  Uiso   1.00
O848   O     0.91593   0.84581   0.99870   0.00000  Uiso   1.00
O849   O     0.84528   0.87991   0.94406   0.00000  Uiso   1.00
O850   O     0.82321   0.84768   0.52311   0.00000  Uiso   1.00
O851   O     0.74871   0.71593   0.61359   0.00000  Uiso   1.00
O852   O     0.83333   0.81546   0.71026   0.00000  Uiso   1.00
O853   O     0.87590   0.82126   0.88048   0.00000  Uiso   1.00
O854   O     0.83334   0.68453   0.71026   0.00000  Uiso   1.00
O855   O     0.83333   0.81547   0.78974   0.00000  Uiso   1.00
O856   O     0.75725   0.75000   0.78045   0.00000  Uiso   1.00
O857   O     0.90942   0.75000   0.71956   0.00000  Uiso   1.00
O858   O     0.75725   0.74999   0.70097   0.00000  Uiso   1.00
O859   O     0.90942   0.75000   0.79904   0.00000  Uiso   1.00
O860   O     0.98693   0.71749   0.69441   0.00000  Uiso   1.00
S861   S     0.72400   0.73254   0.50973   0.00000  Uiso   1.00
S862   S     0.85889   0.84250   0.97871   0.00000  Uiso   1.00
Zn863  Zn    0.83333   0.75000   0.80307   0.00000  Uiso   1.00
Zn864  Zn    0.83333   0.74999   0.69693   0.00000  Uiso   1.00
loop_
_geom_bond_atom_site_label_1
_geom_bond_atom_site_label_2
_geom_bond_distance
_geom_bond_site_symmetry_2
_ccdc_geom_bond_type
C1     O62     1.290   .     A
C1     C14     1.442   .     S
C1     O49     1.285   .     A
C2     C4      1.410   .     A
C2     C27     1.407   .     A
C2     H30     1.082   .     S
C3     C28     1.410   .     A
C3     C22     1.414   .     A
C3     C436    1.510   1_554 S
C4     C23     1.415   .     A
C4     C435    1.510   .     S
C5     C7      1.416   .     S
C5     O64     1.272   .     A
C5     O66     1.286   .     A
C6     O67     1.285   .     A
C6     C8      1.416   .     S
C6     O65     1.272   .     A
C7     C152    1.352   1_455 S
C7     O212    1.390   1_455 S
C8     C79     1.352   .     S
C8     O122    1.391   .     S
C9     H29     1.084   .     S
C9     C11     1.392   .     A
C9     C20     1.396   .     A
C10    C21     1.396   .     A
C10    H39     1.084   .     S
C10    C13     1.392   .     A
C11    C14     1.409   .     A
C11    O51     1.383   .     S
C12    C15     1.443   .     S
C12    O63     1.291   .     A
C12    O60     1.286   .     A
C13    C15     1.410   .     A
C13    O52     1.383   .     S
C14    C16     1.400   .     A
C15    C17     1.400   .     A
C16    H40     1.084   .     S
C16    C18     1.380   .     A
C17    C19     1.379   .     A
C17    H41     1.084   .     S
C18    H42     1.084   .     S
C18    C20     1.395   .     A
C19    H43     1.084   .     S
C19    C21     1.395   .     A
C20    C237    1.440   1_545 S
C21    C236    1.440   .     S
C22    S69     1.779   .     S
C22    C24     1.416   .     A
C23    S70     1.779   .     S
C23    C25     1.415   .     A
C24    O59     1.371   .     S
C24    N47     1.376   .     A
C25    O61     1.372   .     S
C25    N48     1.377   .     A
C26    C28     1.407   .     A
C26    H44     1.081   .     S
C26    N47     1.363   .     A
C27    N48     1.362   .     A
C27    H45     1.081   .     S
C28    H46     1.081   .     S
H31    O212    0.990   1_455 S
H32    O122    0.991   .     S
H33    O51     0.992   .     S
H34    O52     0.992   .     S
H35    O55     0.991   .     S
H36    O58     0.991   .     S
H37    O59     0.988   .     S
H38    O61     0.988   .     S
N47    Zn72    2.008   .     S
N48    Zn71    2.008   .     S
O49    Zn71    2.000   .     S
O50    H176    0.991   1_455 S
O50    C152    1.391   1_455 S
O53    S501    1.503   .     S
O54    S69     1.503   .     D
O55    S501    1.683   .     S
O56    S70     1.503   .     D
O57    S70     1.503   .     D
O58    S502    1.683   1_554 S
O60    Zn72    2.000   .     S
O62    Zn72    2.002   .     S
O63    Zn71    2.002   .     S
O64    Zn71    1.979   .     S
O65    Zn72    1.979   .     S
O66    Zn72    1.994   .     S
O67    Zn71    1.994   .     S
O68    C79     1.390   .     S
O68    H103    0.990   .     S
S69    O487    1.683   1_554 S
S69    O485    1.503   1_554 S
S70    O490    1.683   .     S
C73    O134    1.290   .     A
C73    C86     1.442   .     S
C73    O121    1.285   .     A
C74    C76     1.410   .     A
C74    C99     1.407   .     A
C74    H102    1.082   .     S
C75    C100    1.410   .     A
C75    C94     1.414   .     A
C75    C508    1.510   1_554 S
C76    C95     1.415   .     A
C76    C507    1.510   .     S
C77    C79     1.416   .     S
C77    O136    1.272   .     A
C77    O138    1.286   .     A
C78    O139    1.285   .     A
C78    C80     1.416   .     S
C78    O137    1.272   .     A
C80    C151    1.352   .     S
C80    O194    1.391   .     S
C81    H101    1.084   .     S
C81    C83     1.392   .     A
C81    C92     1.396   .     A
C82    C93     1.396   .     A
C82    H111    1.084   .     S
C82    C85     1.392   .     A
C83    C86     1.409   .     A
C83    O123    1.383   .     S
C84    C87     1.443   .     S
C84    O135    1.291   .     A
C84    O132    1.286   .     A
C85    C87     1.410   .     A
C85    O124    1.383   .     S
C86    C88     1.400   .     A
C87    C89     1.400   .     A
C88    H112    1.084   .     S
C88    C90     1.380   .     A
C89    C91     1.379   .     A
C89    H113    1.084   .     S
C90    H114    1.084   .     S
C90    C92     1.395   .     A
C91    H115    1.084   .     S
C91    C93     1.395   .     A
C92    C309    1.440   1_545 S
C93    C308    1.440   .     S
C94    S141    1.779   .     S
C94    C96     1.416   .     A
C95    S142    1.779   .     S
C95    C97     1.415   .     A
C96    O131    1.371   .     S
C96    N119    1.376   .     A
C97    O133    1.372   .     S
C97    N120    1.377   .     A
C98    C100    1.407   .     A
C98    H116    1.081   .     S
C98    N119    1.363   .     A
C99    N120    1.362   .     A
C99    H117    1.081   .     S
C100   H118    1.081   .     S
H104   O194    0.991   .     S
H105   O123    0.992   .     S
H106   O124    0.992   .     S
H107   O127    0.991   .     S
H108   O130    0.991   .     S
H109   O131    0.988   .     S
H110   O133    0.988   .     S
N119   Zn144   2.008   .     S
N120   Zn143   2.008   .     S
O121   Zn143   2.000   .     S
O125   S573    1.503   .     S
O126   S141    1.503   .     D
O127   S573    1.683   .     S
O128   S142    1.503   .     D
O129   S142    1.503   .     D
O130   S574    1.683   1_554 S
O132   Zn144   2.000   .     S
O134   Zn144   2.002   .     S
O135   Zn143   2.002   .     S
O136   Zn143   1.979   .     S
O137   Zn144   1.979   .     S
O138   Zn144   1.994   .     S
O139   Zn143   1.994   .     S
O140   C151    1.390   .     S
O140   H175    0.990   .     S
S141   O559    1.683   1_554 S
S141   O557    1.503   1_554 S
S142   O562    1.683   .     S
C145   O206    1.290   .     A
C145   C158    1.442   .     S
C145   O193    1.285   .     A
C146   C148    1.410   .     A
C146   C171    1.407   .     A
C146   H174    1.082   .     S
C147   C172    1.410   .     A
C147   C166    1.414   .     A
C147   C580    1.510   1_554 S
C148   C167    1.415   .     A
C148   C579    1.510   .     S
C149   C151    1.416   .     S
C149   O208    1.272   .     A
C149   O210    1.286   .     A
C150   O211    1.285   .     A
C150   C152    1.416   .     S
C150   O209    1.272   .     A
C152   C7      1.352   1_655 S
C152   O50     1.391   1_655 S
C153   H173    1.084   .     S
C153   C155    1.392   .     A
C153   C164    1.396   .     A
C154   C165    1.396   .     A
C154   H183    1.084   .     S
C154   C157    1.392   .     A
C155   C158    1.409   .     A
C155   O195    1.383   .     S
C156   C159    1.443   .     S
C156   O207    1.291   .     A
C156   O204    1.286   .     A
C157   C159    1.410   .     A
C157   O196    1.383   .     S
C158   C160    1.400   .     A
C159   C161    1.400   .     A
C160   H184    1.084   .     S
C160   C162    1.380   .     A
C161   C163    1.379   .     A
C161   H185    1.084   .     S
C162   H186    1.084   .     S
C162   C164    1.395   .     A
C163   H187    1.084   .     S
C163   C165    1.395   .     A
C164   C381    1.440   1_545 S
C165   C380    1.440   .     S
C166   S213    1.779   .     S
C166   C168    1.416   .     A
C167   S214    1.779   .     S
C167   C169    1.415   .     A
C168   O203    1.371   .     S
C168   N191    1.376   .     A
C169   O205    1.372   .     S
C169   N192    1.377   .     A
C170   C172    1.407   .     A
C170   H188    1.081   .     S
C170   N191    1.363   .     A
C171   N192    1.362   .     A
C171   H189    1.081   .     S
C172   H190    1.081   .     S
H176   O50     0.991   1_655 S
H177   O195    0.992   .     S
H178   O196    0.992   .     S
H179   O199    0.991   .     S
H180   O202    0.991   .     S
H181   O203    0.988   .     S
H182   O205    0.988   .     S
N191   Zn216   2.008   .     S
N192   Zn215   2.008   .     S
O193   Zn215   2.000   .     S
O197   S645    1.503   .     S
O198   S213    1.503   .     D
O199   S645    1.683   .     S
O200   S214    1.503   .     D
O201   S214    1.503   .     D
O202   S646    1.683   1_554 S
O204   Zn216   2.000   .     S
O206   Zn216   2.002   .     S
O207   Zn215   2.002   .     S
O208   Zn215   1.979   .     S
O209   Zn216   1.979   .     S
O210   Zn216   1.994   .     S
O211   Zn215   1.994   .     S
O212   C7      1.390   1_655 S
O212   H31     0.990   1_655 S
S213   O631    1.683   1_554 S
S213   O629    1.503   1_554 S
S214   O634    1.683   .     S
C217   O278    1.290   .     A
C217   C230    1.442   .     S
C217   O265    1.285   .     A
C218   C220    1.410   .     A
C218   C243    1.407   .     A
C218   H246    1.082   .     S
C219   C244    1.410   .     A
C219   C238    1.414   .     A
C219   C652    1.510   1_554 S
C220   C239    1.415   .     A
C220   C651    1.510   .     S
C221   C223    1.416   .     S
C221   O280    1.272   .     A
C221   O282    1.286   .     A
C222   O283    1.285   .     A
C222   C224    1.416   .     S
C222   O281    1.272   .     A
C223   C368    1.352   1_455 S
C223   O428    1.390   1_455 S
C224   C295    1.352   .     S
C224   O338    1.391   .     S
C225   H245    1.084   .     S
C225   C227    1.392   .     A
C225   C236    1.396   .     A
C226   C237    1.396   .     A
C226   H255    1.084   .     S
C226   C229    1.392   .     A
C227   C230    1.409   .     A
C227   O267    1.383   .     S
C228   C231    1.443   .     S
C228   O279    1.291   .     A
C228   O276    1.286   .     A
C229   C231    1.410   .     A
C229   O268    1.383   .     S
C230   C232    1.400   .     A
C231   C233    1.400   .     A
C232   H256    1.084   .     S
C232   C234    1.380   .     A
C233   C235    1.379   .     A
C233   H257    1.084   .     S
C234   H258    1.084   .     S
C234   C236    1.395   .     A
C235   H259    1.084   .     S
C235   C237    1.395   .     A
C237   C20     1.440   1_565 S
C238   S285    1.779   .     S
C238   C240    1.416   .     A
C239   S286    1.779   .     S
C239   C241    1.415   .     A
C240   O275    1.371   .     S
C240   N263    1.376   .     A
C241   O277    1.372   .     S
C241   N264    1.377   .     A
C242   C244    1.407   .     A
C242   H260    1.081   .     S
C242   N263    1.363   .     A
C243   N264    1.362   .     A
C243   H261    1.081   .     S
C244   H262    1.081   .     S
H247   O428    0.990   1_455 S
H248   O338    0.991   .     S
H249   O267    0.992   .     S
H250   O268    0.992   .     S
H251   O271    0.991   .     S
H252   O274    0.991   .     S
H253   O275    0.988   .     S
H254   O277    0.988   .     S
N263   Zn288   2.008   .     S
N264   Zn287   2.008   .     S
O265   Zn287   2.000   .     S
O266   H392    0.991   1_455 S
O266   C368    1.391   1_455 S
O269   S717    1.503   .     S
O270   S285    1.503   .     D
O271   S717    1.683   .     S
O272   S286    1.503   .     D
O273   S286    1.503   .     D
O274   S718    1.683   1_554 S
O276   Zn288   2.000   .     S
O278   Zn288   2.002   .     S
O279   Zn287   2.002   .     S
O280   Zn287   1.979   .     S
O281   Zn288   1.979   .     S
O282   Zn288   1.994   .     S
O283   Zn287   1.994   .     S
O284   C295    1.390   .     S
O284   H319    0.990   .     S
S285   O703    1.683   1_554 S
S285   O701    1.503   1_554 S
S286   O706    1.683   .     S
C289   O350    1.290   .     A
C289   C302    1.442   .     S
C289   O337    1.285   .     A
C290   C292    1.410   .     A
C290   C315    1.407   .     A
C290   H318    1.082   .     S
C291   C316    1.410   .     A
C291   C310    1.414   .     A
C291   C724    1.510   1_554 S
C292   C311    1.415   .     A
C292   C723    1.510   .     S
C293   C295    1.416   .     S
C293   O352    1.272   .     A
C293   O354    1.286   .     A
C294   O355    1.285   .     A
C294   C296    1.416   .     S
C294   O353    1.272   .     A
C296   C367    1.352   .     S
C296   O410    1.391   .     S
C297   H317    1.084   .     S
C297   C299    1.392   .     A
C297   C308    1.396   .     A
C298   C309    1.396   .     A
C298   H327    1.084   .     S
C298   C301    1.392   .     A
C299   C302    1.409   .     A
C299   O339    1.383   .     S
C300   C303    1.443   .     S
C300   O351    1.291   .     A
C300   O348    1.286   .     A
C301   C303    1.410   .     A
C301   O340    1.383   .     S
C302   C304    1.400   .     A
C303   C305    1.400   .     A
C304   H328    1.084   .     S
C304   C306    1.380   .     A
C305   C307    1.379   .     A
C305   H329    1.084   .     S
C306   H330    1.084   .     S
C306   C308    1.395   .     A
C307   H331    1.084   .     S
C307   C309    1.395   .     A
C309   C92     1.440   1_565 S
C310   S357    1.779   .     S
C310   C312    1.416   .     A
C311   S358    1.779   .     S
C311   C313    1.415   .     A
C312   O347    1.371   .     S
C312   N335    1.376   .     A
C313   O349    1.372   .     S
C313   N336    1.377   .     A
C314   C316    1.407   .     A
C314   H332    1.081   .     S
C314   N335    1.363   .     A
C315   N336    1.362   .     A
C315   H333    1.081   .     S
C316   H334    1.081   .     S
H320   O410    0.991   .     S
H321   O339    0.992   .     S
H322   O340    0.992   .     S
H323   O343    0.991   .     S
H324   O346    0.991   .     S
H325   O347    0.988   .     S
H326   O349    0.988   .     S
N335   Zn360   2.008   .     S
N336   Zn359   2.008   .     S
O337   Zn359   2.000   .     S
O341   S789    1.503   .     S
O342   S357    1.503   .     D
O343   S789    1.683   .     S
O344   S358    1.503   .     D
O345   S358    1.503   .     D
O346   S790    1.683   1_554 S
O348   Zn360   2.000   .     S
O350   Zn360   2.002   .     S
O351   Zn359   2.002   .     S
O352   Zn359   1.979   .     S
O353   Zn360   1.979   .     S
O354   Zn360   1.994   .     S
O355   Zn359   1.994   .     S
O356   C367    1.390   .     S
O356   H391    0.990   .     S
S357   O775    1.683   1_554 S
S357   O773    1.503   1_554 S
S358   O778    1.683   .     S
C361   O422    1.290   .     A
C361   C374    1.442   .     S
C361   O409    1.285   .     A
C362   C364    1.410   .     A
C362   C387    1.407   .     A
C362   H390    1.082   .     S
C363   C388    1.410   .     A
C363   C382    1.414   .     A
C363   C796    1.510   1_554 S
C364   C383    1.415   .     A
C364   C795    1.510   .     S
C365   C367    1.416   .     S
C365   O424    1.272   .     A
C365   O426    1.286   .     A
C366   O427    1.285   .     A
C366   C368    1.416   .     S
C366   O425    1.272   .     A
C368   C223    1.352   1_655 S
C368   O266    1.391   1_655 S
C369   H389    1.084   .     S
C369   C371    1.392   .     A
C369   C380    1.396   .     A
C370   C381    1.396   .     A
C370   H399    1.084   .     S
C370   C373    1.392   .     A
C371   C374    1.409   .     A
C371   O411    1.383   .     S
C372   C375    1.443   .     S
C372   O423    1.291   .     A
C372   O420    1.286   .     A
C373   C375    1.410   .     A
C373   O412    1.383   .     S
C374   C376    1.400   .     A
C375   C377    1.400   .     A
C376   H400    1.084   .     S
C376   C378    1.380   .     A
C377   C379    1.379   .     A
C377   H401    1.084   .     S
C378   H402    1.084   .     S
C378   C380    1.395   .     A
C379   H403    1.084   .     S
C379   C381    1.395   .     A
C381   C164    1.440   1_565 S
C382   S429    1.779   .     S
C382   C384    1.416   .     A
C383   S430    1.779   .     S
C383   C385    1.415   .     A
C384   O419    1.371   .     S
C384   N407    1.376   .     A
C385   O421    1.372   .     S
C385   N408    1.377   .     A
C386   C388    1.407   .     A
C386   H404    1.081   .     S
C386   N407    1.363   .     A
C387   N408    1.362   .     A
C387   H405    1.081   .     S
C388   H406    1.081   .     S
H392   O266    0.991   1_655 S
H393   O411    0.992   .     S
H394   O412    0.992   .     S
H395   O415    0.991   .     S
H396   O418    0.991   .     S
H397   O419    0.988   .     S
H398   O421    0.988   .     S
N407   Zn432   2.008   .     S
N408   Zn431   2.008   .     S
O409   Zn431   2.000   .     S
O413   S861    1.503   .     S
O414   S429    1.503   .     D
O415   S861    1.683   .     S
O416   S430    1.503   .     D
O417   S430    1.503   .     D
O418   S862    1.683   1_554 S
O420   Zn432   2.000   .     S
O422   Zn432   2.002   .     S
O423   Zn431   2.002   .     S
O424   Zn431   1.979   .     S
O425   Zn432   1.979   .     S
O426   Zn432   1.994   .     S
O427   Zn431   1.994   .     S
O428   C223    1.390   1_655 S
O428   H247    0.990   1_655 S
S429   O847    1.683   1_554 S
S429   O845    1.503   1_554 S
S430   O850    1.683   .     S
C433   O494    1.290   .     A
C433   C446    1.442   .     S
C433   O481    1.285   .     A
C434   C436    1.410   .     A
C434   C459    1.407   .     A
C434   H462    1.082   .     S
C435   C460    1.410   .     A
C435   C454    1.414   .     A
C436   C455    1.415   .     A
C436   C3      1.510   1_556 S
C437   C439    1.416   .     S
C437   O496    1.272   .     A
C437   O498    1.286   .     A
C438   O499    1.285   .     A
C438   C440    1.416   .     S
C438   O497    1.272   .     A
C439   C584    1.352   1_455 S
C439   O644    1.390   1_455 S
C440   C511    1.352   .     S
C440   O554    1.391   .     S
C441   H461    1.084   .     S
C441   C443    1.392   .     A
C441   C452    1.396   .     A
C442   C453    1.396   .     A
C442   H471    1.084   .     S
C442   C445    1.392   .     A
C443   C446    1.409   .     A
C443   O483    1.383   .     S
C444   C447    1.443   .     S
C444   O495    1.291   .     A
C444   O492    1.286   .     A
C445   C447    1.410   .     A
C445   O484    1.383   .     S
C446   C448    1.400   .     A
C447   C449    1.400   .     A
C448   H472    1.084   .     S
C448   C450    1.380   .     A
C449   C451    1.379   .     A
C449   H473    1.084   .     S
C450   H474    1.084   .     S
C450   C452    1.395   .     A
C451   H475    1.084   .     S
C451   C453    1.395   .     A
C452   C669    1.440   1_545 S
C453   C668    1.440   .     S
C454   S501    1.779   .     S
C454   C456    1.416   .     A
C455   S502    1.779   .     S
C455   C457    1.415   .     A
C456   O491    1.371   .     S
C456   N479    1.376   .     A
C457   O493    1.372   .     S
C457   N480    1.377   .     A
C458   C460    1.407   .     A
C458   H476    1.081   .     S
C458   N479    1.363   .     A
C459   N480    1.362   .     A
C459   H477    1.081   .     S
C460   H478    1.081   .     S
H463   O644    0.990   1_455 S
H464   O554    0.991   .     S
H465   O483    0.992   .     S
H466   O484    0.992   .     S
H467   O487    0.991   .     S
H468   O490    0.991   .     S
H469   O491    0.988   .     S
H470   O493    0.988   .     S
N479   Zn504   2.008   .     S
N480   Zn503   2.008   .     S
O481   Zn503   2.000   .     S
O482   H608    0.991   1_455 S
O482   C584    1.391   1_455 S
O485   S69     1.503   1_556 S
O486   S501    1.503   .     D
O487   S69     1.683   1_556 S
O488   S502    1.503   .     D
O489   S502    1.503   .     D
O492   Zn504   2.000   .     S
O494   Zn504   2.002   .     S
O495   Zn503   2.002   .     S
O496   Zn503   1.979   .     S
O497   Zn504   1.979   .     S
O498   Zn504   1.994   .     S
O499   Zn503   1.994   .     S
O500   C511    1.390   .     S
O500   H535    0.990   .     S
S502   O58     1.683   1_556 S
C505   O566    1.290   .     A
C505   C518    1.442   .     S
C505   O553    1.285   .     A
C506   C508    1.410   .     A
C506   C531    1.407   .     A
C506   H534    1.082   .     S
C507   C532    1.410   .     A
C507   C526    1.414   .     A
C508   C527    1.415   .     A
C508   C75     1.510   1_556 S
C509   C511    1.416   .     S
C509   O568    1.272   .     A
C509   O570    1.286   .     A
C510   O571    1.285   .     A
C510   C512    1.416   .     S
C510   O569    1.272   .     A
C512   C583    1.352   .     S
C512   O626    1.391   .     S
C513   H533    1.084   .     S
C513   C515    1.392   .     A
C513   C524    1.396   .     A
C514   C525    1.396   .     A
C514   H543    1.084   .     S
C514   C517    1.392   .     A
C515   C518    1.409   .     A
C515   O555    1.383   .     S
C516   C519    1.443   .     S
C516   O567    1.291   .     A
C516   O564    1.286   .     A
C517   C519    1.410   .     A
C517   O556    1.383   .     S
C518   C520    1.400   .     A
C519   C521    1.400   .     A
C520   H544    1.084   .     S
C520   C522    1.380   .     A
C521   C523    1.379   .     A
C521   H545    1.084   .     S
C522   H546    1.084   .     S
C522   C524    1.395   .     A
C523   H547    1.084   .     S
C523   C525    1.395   .     A
C524   C741    1.440   1_545 S
C525   C740    1.440   .     S
C526   S573    1.779   .     S
C526   C528    1.416   .     A
C527   S574    1.779   .     S
C527   C529    1.415   .     A
C528   O563    1.371   .     S
C528   N551    1.376   .     A
C529   O565    1.372   .     S
C529   N552    1.377   .     A
C530   C532    1.407   .     A
C530   H548    1.081   .     S
C530   N551    1.363   .     A
C531   N552    1.362   .     A
C531   H549    1.081   .     S
C532   H550    1.081   .     S
H536   O626    0.991   .     S
H537   O555    0.992   .     S
H538   O556    0.992   .     S
H539   O559    0.991   .     S
H540   O562    0.991   .     S
H541   O563    0.988   .     S
H542   O565    0.988   .     S
N551   Zn576   2.008   .     S
N552   Zn575   2.008   .     S
O553   Zn575   2.000   .     S
O557   S141    1.503   1_556 S
O558   S573    1.503   .     D
O559   S141    1.683   1_556 S
O560   S574    1.503   .     D
O561   S574    1.503   .     D
O564   Zn576   2.000   .     S
O566   Zn576   2.002   .     S
O567   Zn575   2.002   .     S
O568   Zn575   1.979   .     S
O569   Zn576   1.979   .     S
O570   Zn576   1.994   .     S
O571   Zn575   1.994   .     S
O572   C583    1.390   .     S
O572   H607    0.990   .     S
S574   O130    1.683   1_556 S
C577   O638    1.290   .     A
C577   C590    1.442   .     S
C577   O625    1.285   .     A
C578   C580    1.410   .     A
C578   C603    1.407   .     A
C578   H606    1.082   .     S
C579   C604    1.410   .     A
C579   C598    1.414   .     A
C580   C599    1.415   .     A
C580   C147    1.510   1_556 S
C581   C583    1.416   .     S
C581   O640    1.272   .     A
C581   O642    1.286   .     A
C582   O643    1.285   .     A
C582   C584    1.416   .     S
C582   O641    1.272   .     A
C584   C439    1.352   1_655 S
C584   O482    1.391   1_655 S
C585   H605    1.084   .     S
C585   C587    1.392   .     A
C585   C596    1.396   .     A
C586   C597    1.396   .     A
C586   H615    1.084   .     S
C586   C589    1.392   .     A
C587   C590    1.409   .     A
C587   O627    1.383   .     S
C588   C591    1.443   .     S
C588   O639    1.291   .     A
C588   O636    1.286   .     A
C589   C591    1.410   .     A
C589   O628    1.383   .     S
C590   C592    1.400   .     A
C591   C593    1.400   .     A
C592   H616    1.084   .     S
C592   C594    1.380   .     A
C593   C595    1.379   .     A
C593   H617    1.084   .     S
C594   H618    1.084   .     S
C594   C596    1.395   .     A
C595   H619    1.084   .     S
C595   C597    1.395   .     A
C596   C813    1.440   1_545 S
C597   C812    1.440   .     S
C598   S645    1.779   .     S
C598   C600    1.416   .     A
C599   S646    1.779   .     S
C599   C601    1.415   .     A
C600   O635    1.371   .     S
C600   N623    1.376   .     A
C601   O637    1.372   .     S
C601   N624    1.377   .     A
C602   C604    1.407   .     A
C602   H620    1.081   .     S
C602   N623    1.363   .     A
C603   N624    1.362   .     A
C603   H621    1.081   .     S
C604   H622    1.081   .     S
H608   O482    0.991   1_655 S
H609   O627    0.992   .     S
H610   O628    0.992   .     S
H611   O631    0.991   .     S
H612   O634    0.991   .     S
H613   O635    0.988   .     S
H614   O637    0.988   .     S
N623   Zn648   2.008   .     S
N624   Zn647   2.008   .     S
O625   Zn647   2.000   .     S
O629   S213    1.503   1_556 S
O630   S645    1.503   .     D
O631   S213    1.683   1_556 S
O632   S646    1.503   .     D
O633   S646    1.503   .     D
O636   Zn648   2.000   .     S
O638   Zn648   2.002   .     S
O639   Zn647   2.002   .     S
O640   Zn647   1.979   .     S
O641   Zn648   1.979   .     S
O642   Zn648   1.994   .     S
O643   Zn647   1.994   .     S
O644   C439    1.390   1_655 S
O644   H463    0.990   1_655 S
S646   O202    1.683   1_556 S
C649   O710    1.290   .     A
C649   C662    1.442   .     S
C649   O697    1.285   .     A
C650   C652    1.410   .     A
C650   C675    1.407   .     A
C650   H678    1.082   .     S
C651   C676    1.410   .     A
C651   C670    1.414   .     A
C652   C671    1.415   .     A
C652   C219    1.510   1_556 S
C653   C655    1.416   .     S
C653   O712    1.272   .     A
C653   O714    1.286   .     A
C654   O715    1.285   .     A
C654   C656    1.416   .     S
C654   O713    1.272   .     A
C655   C800    1.352   1_455 S
C655   O860    1.390   1_455 S
C656   C727    1.352   .     S
C656   O770    1.391   .     S
C657   H677    1.084   .     S
C657   C659    1.392   .     A
C657   C668    1.396   .     A
C658   C669    1.396   .     A
C658   H687    1.084   .     S
C658   C661    1.392   .     A
C659   C662    1.409   .     A
C659   O699    1.383   .     S
C660   C663    1.443   .     S
C660   O711    1.291   .     A
C660   O708    1.286   .     A
C661   C663    1.410   .     A
C661   O700    1.383   .     S
C662   C664    1.400   .     A
C663   C665    1.400   .     A
C664   H688    1.084   .     S
C664   C666    1.380   .     A
C665   C667    1.379   .     A
C665   H689    1.084   .     S
C666   H690    1.084   .     S
C666   C668    1.395   .     A
C667   H691    1.084   .     S
C667   C669    1.395   .     A
C669   C452    1.440   1_565 S
C670   S717    1.779   .     S
C670   C672    1.416   .     A
C671   S718    1.779   .     S
C671   C673    1.415   .     A
C672   O707    1.371   .     S
C672   N695    1.376   .     A
C673   O709    1.372   .     S
C673   N696    1.377   .     A
C674   C676    1.407   .     A
C674   H692    1.081   .     S
C674   N695    1.363   .     A
C675   N696    1.362   .     A
C675   H693    1.081   .     S
C676   H694    1.081   .     S
H679   O860    0.990   1_455 S
H680   O770    0.991   .     S
H681   O699    0.992   .     S
H682   O700    0.992   .     S
H683   O703    0.991   .     S
H684   O706    0.991   .     S
H685   O707    0.988   .     S
H686   O709    0.988   .     S
N695   Zn720   2.008   .     S
N696   Zn719   2.008   .     S
O697   Zn719   2.000   .     S
O698   H824    0.991   1_455 S
O698   C800    1.391   1_455 S
O701   S285    1.503   1_556 S
O702   S717    1.503   .     D
O703   S285    1.683   1_556 S
O704   S718    1.503   .     D
O705   S718    1.503   .     D
O708   Zn720   2.000   .     S
O710   Zn720   2.002   .     S
O711   Zn719   2.002   .     S
O712   Zn719   1.979   .     S
O713   Zn720   1.979   .     S
O714   Zn720   1.994   .     S
O715   Zn719   1.994   .     S
O716   C727    1.390   .     S
O716   H751    0.990   .     S
S718   O274    1.683   1_556 S
C721   O782    1.290   .     A
C721   C734    1.442   .     S
C721   O769    1.285   .     A
C722   C724    1.410   .     A
C722   C747    1.407   .     A
C722   H750    1.082   .     S
C723   C748    1.410   .     A
C723   C742    1.414   .     A
C724   C743    1.415   .     A
C724   C291    1.510   1_556 S
C725   C727    1.416   .     S
C725   O784    1.272   .     A
C725   O786    1.286   .     A
C726   O787    1.285   .     A
C726   C728    1.416   .     S
C726   O785    1.272   .     A
C728   C799    1.352   .     S
C728   O842    1.391   .     S
C729   H749    1.084   .     S
C729   C731    1.392   .     A
C729   C740    1.396   .     A
C730   C741    1.396   .     A
C730   H759    1.084   .     S
C730   C733    1.392   .     A
C731   C734    1.409   .     A
C731   O771    1.383   .     S
C732   C735    1.443   .     S
C732   O783    1.291   .     A
C732   O780    1.286   .     A
C733   C735    1.410   .     A
C733   O772    1.383   .     S
C734   C736    1.400   .     A
C735   C737    1.400   .     A
C736   H760    1.084   .     S
C736   C738    1.380   .     A
C737   C739    1.379   .     A
C737   H761    1.084   .     S
C738   H762    1.084   .     S
C738   C740    1.395   .     A
C739   H763    1.084   .     S
C739   C741    1.395   .     A
C741   C524    1.440   1_565 S
C742   S789    1.779   .     S
C742   C744    1.416   .     A
C743   S790    1.779   .     S
C743   C745    1.415   .     A
C744   O779    1.371   .     S
C744   N767    1.376   .     A
C745   O781    1.372   .     S
C745   N768    1.377   .     A
C746   C748    1.407   .     A
C746   H764    1.081   .     S
C746   N767    1.363   .     A
C747   N768    1.362   .     A
C747   H765    1.081   .     S
C748   H766    1.081   .     S
H752   O842    0.991   .     S
H753   O771    0.992   .     S
H754   O772    0.992   .     S
H755   O775    0.991   .     S
H756   O778    0.991   .     S
H757   O779    0.988   .     S
H758   O781    0.988   .     S
N767   Zn792   2.008   .     S
N768   Zn791   2.008   .     S
O769   Zn791   2.000   .     S
O773   S357    1.503   1_556 S
O774   S789    1.503   .     D
O775   S357    1.683   1_556 S
O776   S790    1.503   .     D
O777   S790    1.503   .     D
O780   Zn792   2.000   .     S
O782   Zn792   2.002   .     S
O783   Zn791   2.002   .     S
O784   Zn791   1.979   .     S
O785   Zn792   1.979   .     S
O786   Zn792   1.994   .     S
O787   Zn791   1.994   .     S
O788   C799    1.390   .     S
O788   H823    0.990   .     S
S790   O346    1.683   1_556 S
C793   O854    1.290   .     A
C793   C806    1.442   .     S
C793   O841    1.285   .     A
C794   C796    1.410   .     A
C794   C819    1.407   .     A
C794   H822    1.082   .     S
C795   C820    1.410   .     A
C795   C814    1.414   .     A
C796   C815    1.415   .     A
C796   C363    1.510   1_556 S
C797   C799    1.416   .     S
C797   O856    1.272   .     A
C797   O858    1.286   .     A
C798   O859    1.285   .     A
C798   C800    1.416   .     S
C798   O857    1.272   .     A
C800   C655    1.352   1_655 S
C800   O698    1.391   1_655 S
C801   H821    1.084   .     S
C801   C803    1.392   .     A
C801   C812    1.396   .     A
C802   C813    1.396   .     A
C802   H831    1.084   .     S
C802   C805    1.392   .     A
C803   C806    1.409   .     A
C803   O843    1.383   .     S
C804   C807    1.443   .     S
C804   O855    1.291   .     A
C804   O852    1.286   .     A
C805   C807    1.410   .     A
C805   O844    1.383   .     S
C806   C808    1.400   .     A
C807   C809    1.400   .     A
C808   H832    1.084   .     S
C808   C810    1.380   .     A
C809   C811    1.379   .     A
C809   H833    1.084   .     S
C810   H834    1.084   .     S
C810   C812    1.395   .     A
C811   H835    1.084   .     S
C811   C813    1.395   .     A
C813   C596    1.440   1_565 S
C814   S861    1.779   .     S
C814   C816    1.416   .     A
C815   S862    1.779   .     S
C815   C817    1.415   .     A
C816   O851    1.371   .     S
C816   N839    1.376   .     A
C817   O853    1.372   .     S
C817   N840    1.377   .     A
C818   C820    1.407   .     A
C818   H836    1.081   .     S
C818   N839    1.363   .     A
C819   N840    1.362   .     A
C819   H837    1.081   .     S
C820   H838    1.081   .     S
H824   O698    0.991   1_655 S
H825   O843    0.992   .     S
H826   O844    0.992   .     S
H827   O847    0.991   .     S
H828   O850    0.991   .     S
H829   O851    0.988   .     S
H830   O853    0.988   .     S
N839   Zn864   2.008   .     S
N840   Zn863   2.008   .     S
O841   Zn863   2.000   .     S
O845   S429    1.503   1_556 S
O846   S861    1.503   .     D
O847   S429    1.683   1_556 S
O848   S862    1.503   .     D
O849   S862    1.503   .     D
O852   Zn864   2.000   .     S
O854   Zn864   2.002   .     S
O855   Zn863   2.002   .     S
O856   Zn863   1.979   .     S
O857   Zn864   1.979   .     S
O858   Zn864   1.994   .     S
O859   Zn863   1.994   .     S
O860   C655    1.390   1_655 S
O860   H679    0.990   1_655 S
S862   O418    1.683   1_556 S
