data_str_m3_o1_o5_pcu_sym.90
_audit_creation_date              2020-01-03
_audit_creation_method            'Materials Studio'
_symmetry_space_group_name_H-M    'P1'
_symmetry_Int_Tables_number       1
_symmetry_cell_setting            triclinic
loop_
_symmetry_equiv_pos_as_xyz
  x,y,z
_cell_length_a                    31.8623
_cell_length_b                    30.2776
_cell_length_c                    26.5063
_cell_angle_alpha                 90.1815
_cell_angle_beta                  93.2845
_cell_angle_gamma                 90.2655
loop_
_atom_site_label
_atom_site_type_symbol
_atom_site_fract_x
_atom_site_fract_y
_atom_site_fract_z
_atom_site_U_iso_or_equiv
_atom_site_adp_type
_atom_site_occupancy
C1     C     0.08695   0.16647   0.16677   0.00000  Uiso   1.00
C2     C     0.02335   0.19539   0.19913   0.00000  Uiso   1.00
C3     C     0.29068   0.16638   0.16736   0.00000  Uiso   1.00
C4     C     0.04276   0.16574   0.16779   0.00000  Uiso   1.00
C5     C     0.18797   0.02349   0.20456   0.00000  Uiso   1.00
C6     C     0.13946   0.30972   0.13522   0.00000  Uiso   1.00
C7     C     0.14619   0.02284   0.12843   0.00000  Uiso   1.00
C8     C     0.19404   0.31016   0.19832   0.00000  Uiso   1.00
C9     C     0.19739   0.04180   0.25785   0.00000  Uiso   1.00
C10    C     0.23844   0.06870   0.26684   0.00000  Uiso   1.00
C11    C     0.24747   0.07879   0.32299   0.00000  Uiso   1.00
C12    C     0.24640   0.16669   0.16696   0.00000  Uiso   1.00
C13    C     0.10058   0.28822   0.11006   0.00000  Uiso   1.00
C14    C     0.06437   0.28696   0.14622   0.00000  Uiso   1.00
C15    C     0.04085   0.33055   0.14995   0.00000  Uiso   1.00
C16    C     0.14110   0.03954   0.07437   0.00000  Uiso   1.00
C17    C     0.09958   0.06375   0.06145   0.00000  Uiso   1.00
C18    C     0.09275   0.07131   0.00469   0.00000  Uiso   1.00
C19    C     0.23524   0.29112   0.22023   0.00000  Uiso   1.00
C20    C     0.23237   0.26483   0.26967   0.00000  Uiso   1.00
C21    C     0.26800   0.27617   0.30868   0.00000  Uiso   1.00
C22    C     0.16649   0.16667   0.07319   0.00000  Uiso   1.00
C23    C     0.16660   0.16675   0.26013   0.00000  Uiso   1.00
C24    C     0.16645   0.16690   0.02190   0.00000  Uiso   1.00
C25    C     0.16650   0.16703   0.31141   0.00000  Uiso   1.00
C26    C     0.01987   0.13514   0.13773   0.00000  Uiso   1.00
C27    C     0.31364   0.19600   0.19850   0.00000  Uiso   1.00
C28    C     0.31014   0.13544   0.13752   0.00000  Uiso   1.00
H29    H     0.03507   0.11175   0.11400   0.00000  Uiso   1.00
H30    H     0.16965   0.05936   0.27049   0.00000  Uiso   1.00
H31    H     0.19917   0.01394   0.28490   0.00000  Uiso   1.00
H32    H     0.06275   0.02455   0.16134   0.00000  Uiso   1.00
H33    H     0.02374   0.00483   0.11339   0.00000  Uiso   1.00
H34    H     0.01724   0.32756   0.17902   0.00000  Uiso   1.00
H35    H     0.04133   0.26143   0.13241   0.00000  Uiso   1.00
H36    H     0.07658   0.27795   0.18488   0.00000  Uiso   1.00
H37    H     0.08934   0.30478   0.07472   0.00000  Uiso   1.00
H38    H     0.10802   0.25460   0.09750   0.00000  Uiso   1.00
H39    H     0.11912   0.09067   0.32385   0.00000  Uiso   1.00
H40    H     0.29852   0.21883   0.22277   0.00000  Uiso   1.00
H41    H     0.09033   0.03922   0.31759   0.00000  Uiso   1.00
H42    H     0.06314   0.08989   0.33012   0.00000  Uiso   1.00
H43    H     0.07267   0.04437   0.07365   0.00000  Uiso   1.00
H44    H     0.09897   0.09591   0.08086   0.00000  Uiso   1.00
H45    H     0.16905   0.05875   0.06486   0.00000  Uiso   1.00
H46    H     0.14300   0.01106   0.04799   0.00000  Uiso   1.00
H47    H     0.29903   0.27001   0.29300   0.00000  Uiso   1.00
H48    H     0.26634   0.31125   0.32006   0.00000  Uiso   1.00
H49    H     0.26525   0.25535   0.00944   0.00000  Uiso   1.00
H50    H     0.20188   0.27059   0.28688   0.00000  Uiso   1.00
H51    H     0.29206   0.11226   0.11367   0.00000  Uiso   1.00
H52    H     0.23537   0.22919   0.26152   0.00000  Uiso   1.00
H53    H     0.25069   0.27253   0.19093   0.00000  Uiso   1.00
H54    H     0.25829   0.31815   0.22652   0.00000  Uiso   1.00
H55    H     0.04142   0.21782   0.22390   0.00000  Uiso   1.00
H56    H     0.22082   0.09680   0.00500   0.00000  Uiso   1.00
H57    H     0.25249   0.04803   0.01165   0.00000  Uiso   1.00
H58    H     0.27619   0.09962   0.32813   0.00000  Uiso   1.00
H59    H     0.26583   0.05124   0.25269   0.00000  Uiso   1.00
H60    H     0.23656   0.10052   0.24741   0.00000  Uiso   1.00
N61    N     0.16667   0.28573   0.16667   0.00000  Uiso   1.00
N62    N     0.16667   0.04760   0.16667   0.00000  Uiso   1.00
O63    O     0.10559   0.20487   0.16666   0.00000  Uiso   1.00
O64    O     0.22774   0.12846   0.16667   0.00000  Uiso   1.00
O65    O     0.22774   0.20487   0.16667   0.00000  Uiso   1.00
O66    O     0.10559   0.12846   0.16666   0.00000  Uiso   1.00
O67    O     0.16667   0.20488   0.09511   0.00000  Uiso   1.00
O68    O     0.16666   0.12845   0.23822   0.00000  Uiso   1.00
O69    O     0.16666   0.20488   0.23822   0.00000  Uiso   1.00
O70    O     0.16667   0.12845   0.09511   0.00000  Uiso   1.00
Zn71   Zn    0.16667   0.21771   0.16667   0.00000  Uiso   1.00
Zn72   Zn    0.16667   0.11563   0.16667   0.00000  Uiso   1.00
C73    C     0.42029   0.16647   0.16677   0.00000  Uiso   1.00
C74    C     0.35668   0.19539   0.19913   0.00000  Uiso   1.00
C75    C     0.62401   0.16638   0.16736   0.00000  Uiso   1.00
C76    C     0.37609   0.16574   0.16779   0.00000  Uiso   1.00
C77    C     0.52130   0.02349   0.20456   0.00000  Uiso   1.00
C78    C     0.47279   0.30972   0.13522   0.00000  Uiso   1.00
C79    C     0.47952   0.02284   0.12843   0.00000  Uiso   1.00
C80    C     0.52737   0.31016   0.19832   0.00000  Uiso   1.00
C81    C     0.53072   0.04180   0.25785   0.00000  Uiso   1.00
C82    C     0.57178   0.06870   0.26684   0.00000  Uiso   1.00
C83    C     0.58080   0.07879   0.32299   0.00000  Uiso   1.00
C84    C     0.57974   0.16669   0.16696   0.00000  Uiso   1.00
C85    C     0.43392   0.28822   0.11006   0.00000  Uiso   1.00
C86    C     0.39771   0.28696   0.14622   0.00000  Uiso   1.00
C87    C     0.37419   0.33055   0.14995   0.00000  Uiso   1.00
C88    C     0.47444   0.03954   0.07437   0.00000  Uiso   1.00
C89    C     0.43292   0.06375   0.06145   0.00000  Uiso   1.00
C90    C     0.42608   0.07131   0.00469   0.00000  Uiso   1.00
C91    C     0.56858   0.29112   0.22023   0.00000  Uiso   1.00
C92    C     0.56571   0.26483   0.26967   0.00000  Uiso   1.00
C93    C     0.60134   0.27617   0.30868   0.00000  Uiso   1.00
C94    C     0.49982   0.16667   0.07319   0.00000  Uiso   1.00
C95    C     0.49993   0.16675   0.26013   0.00000  Uiso   1.00
C96    C     0.49979   0.16690   0.02190   0.00000  Uiso   1.00
C97    C     0.49984   0.16703   0.31141   0.00000  Uiso   1.00
C98    C     0.35320   0.13514   0.13773   0.00000  Uiso   1.00
C99    C     0.64697   0.19600   0.19850   0.00000  Uiso   1.00
C100   C     0.64347   0.13544   0.13752   0.00000  Uiso   1.00
H101   H     0.36840   0.11175   0.11400   0.00000  Uiso   1.00
H102   H     0.50298   0.05936   0.27049   0.00000  Uiso   1.00
H103   H     0.53250   0.01394   0.28490   0.00000  Uiso   1.00
H104   H     0.39609   0.02455   0.16134   0.00000  Uiso   1.00
H105   H     0.35708   0.00483   0.11339   0.00000  Uiso   1.00
H106   H     0.35057   0.32756   0.17902   0.00000  Uiso   1.00
H107   H     0.37466   0.26143   0.13241   0.00000  Uiso   1.00
H108   H     0.40992   0.27795   0.18488   0.00000  Uiso   1.00
H109   H     0.42268   0.30478   0.07472   0.00000  Uiso   1.00
H110   H     0.44135   0.25460   0.09750   0.00000  Uiso   1.00
H111   H     0.45245   0.09067   0.32385   0.00000  Uiso   1.00
H112   H     0.63185   0.21883   0.22277   0.00000  Uiso   1.00
H113   H     0.42367   0.03922   0.31759   0.00000  Uiso   1.00
H114   H     0.39647   0.08989   0.33012   0.00000  Uiso   1.00
H115   H     0.40600   0.04437   0.07365   0.00000  Uiso   1.00
H116   H     0.43231   0.09591   0.08086   0.00000  Uiso   1.00
H117   H     0.50239   0.05875   0.06486   0.00000  Uiso   1.00
H118   H     0.47633   0.01106   0.04799   0.00000  Uiso   1.00
H119   H     0.63236   0.27001   0.29300   0.00000  Uiso   1.00
H120   H     0.59967   0.31125   0.32006   0.00000  Uiso   1.00
H121   H     0.59858   0.25535   0.00944   0.00000  Uiso   1.00
H122   H     0.53521   0.27059   0.28688   0.00000  Uiso   1.00
H123   H     0.62540   0.11226   0.11367   0.00000  Uiso   1.00
H124   H     0.56870   0.22919   0.26152   0.00000  Uiso   1.00
H125   H     0.58403   0.27253   0.19093   0.00000  Uiso   1.00
H126   H     0.59163   0.31815   0.22652   0.00000  Uiso   1.00
H127   H     0.37475   0.21782   0.22390   0.00000  Uiso   1.00
H128   H     0.55416   0.09680   0.00500   0.00000  Uiso   1.00
H129   H     0.58582   0.04803   0.01165   0.00000  Uiso   1.00
H130   H     0.60952   0.09962   0.32813   0.00000  Uiso   1.00
H131   H     0.59916   0.05124   0.25269   0.00000  Uiso   1.00
H132   H     0.56989   0.10052   0.24741   0.00000  Uiso   1.00
N133   N     0.50000   0.28573   0.16667   0.00000  Uiso   1.00
N134   N     0.50000   0.04760   0.16667   0.00000  Uiso   1.00
O135   O     0.43892   0.20487   0.16666   0.00000  Uiso   1.00
O136   O     0.56108   0.12846   0.16667   0.00000  Uiso   1.00
O137   O     0.56108   0.20487   0.16667   0.00000  Uiso   1.00
O138   O     0.43892   0.12846   0.16666   0.00000  Uiso   1.00
O139   O     0.50000   0.20488   0.09511   0.00000  Uiso   1.00
O140   O     0.50000   0.12845   0.23822   0.00000  Uiso   1.00
O141   O     0.50000   0.20488   0.23822   0.00000  Uiso   1.00
O142   O     0.50000   0.12845   0.09511   0.00000  Uiso   1.00
Zn143  Zn    0.50000   0.21771   0.16667   0.00000  Uiso   1.00
Zn144  Zn    0.50000   0.11563   0.16667   0.00000  Uiso   1.00
C145   C     0.75362   0.16647   0.16677   0.00000  Uiso   1.00
C146   C     0.69001   0.19539   0.19913   0.00000  Uiso   1.00
C147   C     0.95735   0.16638   0.16736   0.00000  Uiso   1.00
C148   C     0.70943   0.16574   0.16779   0.00000  Uiso   1.00
C149   C     0.85464   0.02349   0.20456   0.00000  Uiso   1.00
C150   C     0.80613   0.30972   0.13522   0.00000  Uiso   1.00
C151   C     0.81286   0.02284   0.12843   0.00000  Uiso   1.00
C152   C     0.86070   0.31016   0.19832   0.00000  Uiso   1.00
C153   C     0.86405   0.04180   0.25785   0.00000  Uiso   1.00
C154   C     0.90511   0.06870   0.26684   0.00000  Uiso   1.00
C155   C     0.91413   0.07879   0.32299   0.00000  Uiso   1.00
C156   C     0.91307   0.16669   0.16696   0.00000  Uiso   1.00
C157   C     0.76725   0.28822   0.11006   0.00000  Uiso   1.00
C158   C     0.73104   0.28696   0.14622   0.00000  Uiso   1.00
C159   C     0.70752   0.33055   0.14995   0.00000  Uiso   1.00
C160   C     0.80777   0.03954   0.07437   0.00000  Uiso   1.00
C161   C     0.76625   0.06375   0.06145   0.00000  Uiso   1.00
C162   C     0.75942   0.07131   0.00469   0.00000  Uiso   1.00
C163   C     0.90191   0.29112   0.22023   0.00000  Uiso   1.00
C164   C     0.89904   0.26483   0.26967   0.00000  Uiso   1.00
C165   C     0.93467   0.27617   0.30868   0.00000  Uiso   1.00
C166   C     0.83316   0.16667   0.07319   0.00000  Uiso   1.00
C167   C     0.83326   0.16675   0.26013   0.00000  Uiso   1.00
C168   C     0.83312   0.16690   0.02190   0.00000  Uiso   1.00
C169   C     0.83317   0.16703   0.31141   0.00000  Uiso   1.00
C170   C     0.68653   0.13514   0.13773   0.00000  Uiso   1.00
C171   C     0.98031   0.19600   0.19850   0.00000  Uiso   1.00
C172   C     0.97680   0.13544   0.13752   0.00000  Uiso   1.00
H173   H     0.70174   0.11175   0.11400   0.00000  Uiso   1.00
H174   H     0.83631   0.05936   0.27049   0.00000  Uiso   1.00
H175   H     0.86584   0.01394   0.28490   0.00000  Uiso   1.00
H176   H     0.72942   0.02455   0.16134   0.00000  Uiso   1.00
H177   H     0.69041   0.00483   0.11339   0.00000  Uiso   1.00
H178   H     0.68391   0.32756   0.17902   0.00000  Uiso   1.00
H179   H     0.70799   0.26143   0.13241   0.00000  Uiso   1.00
H180   H     0.74325   0.27795   0.18488   0.00000  Uiso   1.00
H181   H     0.75601   0.30478   0.07472   0.00000  Uiso   1.00
H182   H     0.77468   0.25460   0.09750   0.00000  Uiso   1.00
H183   H     0.78579   0.09067   0.32385   0.00000  Uiso   1.00
H184   H     0.96519   0.21883   0.22277   0.00000  Uiso   1.00
H185   H     0.75700   0.03922   0.31759   0.00000  Uiso   1.00
H186   H     0.72981   0.08989   0.33012   0.00000  Uiso   1.00
H187   H     0.73933   0.04437   0.07365   0.00000  Uiso   1.00
H188   H     0.76564   0.09591   0.08086   0.00000  Uiso   1.00
H189   H     0.83572   0.05875   0.06486   0.00000  Uiso   1.00
H190   H     0.80967   0.01106   0.04799   0.00000  Uiso   1.00
H191   H     0.96569   0.27001   0.29300   0.00000  Uiso   1.00
H192   H     0.93300   0.31125   0.32006   0.00000  Uiso   1.00
H193   H     0.93192   0.25535   0.00944   0.00000  Uiso   1.00
H194   H     0.86854   0.27059   0.28688   0.00000  Uiso   1.00
H195   H     0.95873   0.11226   0.11367   0.00000  Uiso   1.00
H196   H     0.90203   0.22919   0.26152   0.00000  Uiso   1.00
H197   H     0.91736   0.27253   0.19093   0.00000  Uiso   1.00
H198   H     0.92496   0.31815   0.22652   0.00000  Uiso   1.00
H199   H     0.70808   0.21782   0.22390   0.00000  Uiso   1.00
H200   H     0.88749   0.09680   0.00500   0.00000  Uiso   1.00
H201   H     0.91916   0.04803   0.01165   0.00000  Uiso   1.00
H202   H     0.94286   0.09962   0.32813   0.00000  Uiso   1.00
H203   H     0.93250   0.05124   0.25269   0.00000  Uiso   1.00
H204   H     0.90322   0.10052   0.24741   0.00000  Uiso   1.00
N205   N     0.83333   0.28573   0.16667   0.00000  Uiso   1.00
N206   N     0.83333   0.04760   0.16667   0.00000  Uiso   1.00
O207   O     0.77226   0.20487   0.16666   0.00000  Uiso   1.00
O208   O     0.89441   0.12846   0.16667   0.00000  Uiso   1.00
O209   O     0.89441   0.20487   0.16667   0.00000  Uiso   1.00
O210   O     0.77226   0.12846   0.16666   0.00000  Uiso   1.00
O211   O     0.83334   0.20488   0.09511   0.00000  Uiso   1.00
O212   O     0.83333   0.12845   0.23822   0.00000  Uiso   1.00
O213   O     0.83333   0.20488   0.23822   0.00000  Uiso   1.00
O214   O     0.83334   0.12845   0.09511   0.00000  Uiso   1.00
Zn215  Zn    0.83333   0.21771   0.16667   0.00000  Uiso   1.00
Zn216  Zn    0.83333   0.11563   0.16667   0.00000  Uiso   1.00
C217   C     0.08695   0.49980   0.16677   0.00000  Uiso   1.00
C218   C     0.02335   0.52873   0.19913   0.00000  Uiso   1.00
C219   C     0.29068   0.49971   0.16736   0.00000  Uiso   1.00
C220   C     0.04276   0.49907   0.16779   0.00000  Uiso   1.00
C221   C     0.18797   0.35682   0.20456   0.00000  Uiso   1.00
C222   C     0.13946   0.64305   0.13522   0.00000  Uiso   1.00
C223   C     0.14619   0.35617   0.12843   0.00000  Uiso   1.00
C224   C     0.19404   0.64349   0.19832   0.00000  Uiso   1.00
C225   C     0.19739   0.37513   0.25785   0.00000  Uiso   1.00
C226   C     0.23844   0.40203   0.26684   0.00000  Uiso   1.00
C227   C     0.24747   0.41212   0.32299   0.00000  Uiso   1.00
C228   C     0.24640   0.50003   0.16696   0.00000  Uiso   1.00
C229   C     0.10058   0.62156   0.11006   0.00000  Uiso   1.00
C230   C     0.06437   0.62030   0.14622   0.00000  Uiso   1.00
C231   C     0.04085   0.66388   0.14995   0.00000  Uiso   1.00
C232   C     0.14110   0.37287   0.07437   0.00000  Uiso   1.00
C233   C     0.09958   0.39708   0.06145   0.00000  Uiso   1.00
C234   C     0.09275   0.40464   0.00469   0.00000  Uiso   1.00
C235   C     0.23524   0.62445   0.22023   0.00000  Uiso   1.00
C236   C     0.23237   0.59816   0.26967   0.00000  Uiso   1.00
C237   C     0.26800   0.60950   0.30868   0.00000  Uiso   1.00
C238   C     0.16649   0.50001   0.07319   0.00000  Uiso   1.00
C239   C     0.16660   0.50009   0.26013   0.00000  Uiso   1.00
C240   C     0.16645   0.50023   0.02190   0.00000  Uiso   1.00
C241   C     0.16650   0.50036   0.31141   0.00000  Uiso   1.00
C242   C     0.01987   0.46847   0.13773   0.00000  Uiso   1.00
C243   C     0.31364   0.52934   0.19850   0.00000  Uiso   1.00
C244   C     0.31014   0.46877   0.13752   0.00000  Uiso   1.00
H245   H     0.03507   0.44508   0.11400   0.00000  Uiso   1.00
H246   H     0.16965   0.39270   0.27049   0.00000  Uiso   1.00
H247   H     0.19917   0.34728   0.28490   0.00000  Uiso   1.00
H248   H     0.06275   0.35789   0.16134   0.00000  Uiso   1.00
H249   H     0.02374   0.33817   0.11339   0.00000  Uiso   1.00
H250   H     0.01724   0.66089   0.17902   0.00000  Uiso   1.00
H251   H     0.04133   0.59477   0.13241   0.00000  Uiso   1.00
H252   H     0.07658   0.61128   0.18488   0.00000  Uiso   1.00
H253   H     0.08934   0.63811   0.07472   0.00000  Uiso   1.00
H254   H     0.10802   0.58793   0.09750   0.00000  Uiso   1.00
H255   H     0.11912   0.42400   0.32385   0.00000  Uiso   1.00
H256   H     0.29852   0.55216   0.22277   0.00000  Uiso   1.00
H257   H     0.09033   0.37256   0.31759   0.00000  Uiso   1.00
H258   H     0.06314   0.42322   0.33012   0.00000  Uiso   1.00
H259   H     0.07267   0.37770   0.07365   0.00000  Uiso   1.00
H260   H     0.09897   0.42924   0.08086   0.00000  Uiso   1.00
H261   H     0.16905   0.39208   0.06486   0.00000  Uiso   1.00
H262   H     0.14300   0.34439   0.04799   0.00000  Uiso   1.00
H263   H     0.29903   0.60334   0.29300   0.00000  Uiso   1.00
H264   H     0.26634   0.64458   0.32006   0.00000  Uiso   1.00
H265   H     0.26525   0.58869   0.00944   0.00000  Uiso   1.00
H266   H     0.20188   0.60392   0.28688   0.00000  Uiso   1.00
H267   H     0.29206   0.44559   0.11367   0.00000  Uiso   1.00
H268   H     0.23537   0.56252   0.26152   0.00000  Uiso   1.00
H269   H     0.25069   0.60586   0.19093   0.00000  Uiso   1.00
H270   H     0.25829   0.65148   0.22652   0.00000  Uiso   1.00
H271   H     0.04142   0.55115   0.22390   0.00000  Uiso   1.00
H272   H     0.22082   0.43013   0.00500   0.00000  Uiso   1.00
H273   H     0.25249   0.38136   0.01165   0.00000  Uiso   1.00
H274   H     0.27619   0.43295   0.32813   0.00000  Uiso   1.00
H275   H     0.26583   0.38457   0.25269   0.00000  Uiso   1.00
H276   H     0.23656   0.43385   0.24741   0.00000  Uiso   1.00
N277   N     0.16667   0.61907   0.16667   0.00000  Uiso   1.00
N278   N     0.16667   0.38093   0.16667   0.00000  Uiso   1.00
O279   O     0.10559   0.53821   0.16666   0.00000  Uiso   1.00
O280   O     0.22774   0.46179   0.16667   0.00000  Uiso   1.00
O281   O     0.22774   0.53821   0.16667   0.00000  Uiso   1.00
O282   O     0.10559   0.46179   0.16666   0.00000  Uiso   1.00
O283   O     0.16667   0.53821   0.09511   0.00000  Uiso   1.00
O284   O     0.16666   0.46179   0.23822   0.00000  Uiso   1.00
O285   O     0.16666   0.53821   0.23822   0.00000  Uiso   1.00
O286   O     0.16667   0.46179   0.09511   0.00000  Uiso   1.00
Zn287  Zn    0.16667   0.55104   0.16667   0.00000  Uiso   1.00
Zn288  Zn    0.16667   0.44896   0.16667   0.00000  Uiso   1.00
C289   C     0.42029   0.49980   0.16677   0.00000  Uiso   1.00
C290   C     0.35668   0.52873   0.19913   0.00000  Uiso   1.00
C291   C     0.62401   0.49971   0.16736   0.00000  Uiso   1.00
C292   C     0.37609   0.49907   0.16779   0.00000  Uiso   1.00
C293   C     0.52130   0.35682   0.20456   0.00000  Uiso   1.00
C294   C     0.47279   0.64305   0.13522   0.00000  Uiso   1.00
C295   C     0.47952   0.35617   0.12843   0.00000  Uiso   1.00
C296   C     0.52737   0.64349   0.19832   0.00000  Uiso   1.00
C297   C     0.53072   0.37513   0.25785   0.00000  Uiso   1.00
C298   C     0.57178   0.40203   0.26684   0.00000  Uiso   1.00
C299   C     0.58080   0.41212   0.32299   0.00000  Uiso   1.00
C300   C     0.57974   0.50003   0.16696   0.00000  Uiso   1.00
C301   C     0.43392   0.62156   0.11006   0.00000  Uiso   1.00
C302   C     0.39771   0.62030   0.14622   0.00000  Uiso   1.00
C303   C     0.37419   0.66388   0.14995   0.00000  Uiso   1.00
C304   C     0.47444   0.37287   0.07437   0.00000  Uiso   1.00
C305   C     0.43292   0.39708   0.06145   0.00000  Uiso   1.00
C306   C     0.42608   0.40464   0.00469   0.00000  Uiso   1.00
C307   C     0.56858   0.62445   0.22023   0.00000  Uiso   1.00
C308   C     0.56571   0.59816   0.26967   0.00000  Uiso   1.00
C309   C     0.60134   0.60950   0.30868   0.00000  Uiso   1.00
C310   C     0.49982   0.50001   0.07319   0.00000  Uiso   1.00
C311   C     0.49993   0.50009   0.26013   0.00000  Uiso   1.00
C312   C     0.49979   0.50023   0.02190   0.00000  Uiso   1.00
C313   C     0.49984   0.50036   0.31141   0.00000  Uiso   1.00
C314   C     0.35320   0.46847   0.13773   0.00000  Uiso   1.00
C315   C     0.64697   0.52934   0.19850   0.00000  Uiso   1.00
C316   C     0.64347   0.46877   0.13752   0.00000  Uiso   1.00
H317   H     0.36840   0.44508   0.11400   0.00000  Uiso   1.00
H318   H     0.50298   0.39270   0.27049   0.00000  Uiso   1.00
H319   H     0.53250   0.34728   0.28490   0.00000  Uiso   1.00
H320   H     0.39609   0.35789   0.16134   0.00000  Uiso   1.00
H321   H     0.35708   0.33817   0.11339   0.00000  Uiso   1.00
H322   H     0.35057   0.66089   0.17902   0.00000  Uiso   1.00
H323   H     0.37466   0.59477   0.13241   0.00000  Uiso   1.00
H324   H     0.40992   0.61128   0.18488   0.00000  Uiso   1.00
H325   H     0.42268   0.63811   0.07472   0.00000  Uiso   1.00
H326   H     0.44135   0.58793   0.09750   0.00000  Uiso   1.00
H327   H     0.45245   0.42400   0.32385   0.00000  Uiso   1.00
H328   H     0.63185   0.55216   0.22277   0.00000  Uiso   1.00
H329   H     0.42367   0.37256   0.31759   0.00000  Uiso   1.00
H330   H     0.39647   0.42322   0.33012   0.00000  Uiso   1.00
H331   H     0.40600   0.37770   0.07365   0.00000  Uiso   1.00
H332   H     0.43231   0.42924   0.08086   0.00000  Uiso   1.00
H333   H     0.50239   0.39208   0.06486   0.00000  Uiso   1.00
H334   H     0.47633   0.34439   0.04799   0.00000  Uiso   1.00
H335   H     0.63236   0.60334   0.29300   0.00000  Uiso   1.00
H336   H     0.59967   0.64458   0.32006   0.00000  Uiso   1.00
H337   H     0.59858   0.58869   0.00944   0.00000  Uiso   1.00
H338   H     0.53521   0.60392   0.28688   0.00000  Uiso   1.00
H339   H     0.62540   0.44559   0.11367   0.00000  Uiso   1.00
H340   H     0.56870   0.56252   0.26152   0.00000  Uiso   1.00
H341   H     0.58403   0.60586   0.19093   0.00000  Uiso   1.00
H342   H     0.59163   0.65148   0.22652   0.00000  Uiso   1.00
H343   H     0.37475   0.55115   0.22390   0.00000  Uiso   1.00
H344   H     0.55416   0.43013   0.00500   0.00000  Uiso   1.00
H345   H     0.58582   0.38136   0.01165   0.00000  Uiso   1.00
H346   H     0.60952   0.43295   0.32813   0.00000  Uiso   1.00
H347   H     0.59916   0.38457   0.25269   0.00000  Uiso   1.00
H348   H     0.56989   0.43385   0.24741   0.00000  Uiso   1.00
N349   N     0.50000   0.61907   0.16667   0.00000  Uiso   1.00
N350   N     0.50000   0.38093   0.16667   0.00000  Uiso   1.00
O351   O     0.43892   0.53821   0.16666   0.00000  Uiso   1.00
O352   O     0.56108   0.46179   0.16667   0.00000  Uiso   1.00
O353   O     0.56108   0.53821   0.16667   0.00000  Uiso   1.00
O354   O     0.43892   0.46179   0.16666   0.00000  Uiso   1.00
O355   O     0.50000   0.53821   0.09511   0.00000  Uiso   1.00
O356   O     0.50000   0.46179   0.23822   0.00000  Uiso   1.00
O357   O     0.50000   0.53821   0.23822   0.00000  Uiso   1.00
O358   O     0.50000   0.46179   0.09511   0.00000  Uiso   1.00
Zn359  Zn    0.50000   0.55104   0.16667   0.00000  Uiso   1.00
Zn360  Zn    0.50000   0.44896   0.16667   0.00000  Uiso   1.00
C361   C     0.75362   0.49980   0.16677   0.00000  Uiso   1.00
C362   C     0.69001   0.52873   0.19913   0.00000  Uiso   1.00
C363   C     0.95735   0.49971   0.16736   0.00000  Uiso   1.00
C364   C     0.70943   0.49907   0.16779   0.00000  Uiso   1.00
C365   C     0.85464   0.35682   0.20456   0.00000  Uiso   1.00
C366   C     0.80613   0.64305   0.13522   0.00000  Uiso   1.00
C367   C     0.81286   0.35617   0.12843   0.00000  Uiso   1.00
C368   C     0.86070   0.64349   0.19832   0.00000  Uiso   1.00
C369   C     0.86405   0.37513   0.25785   0.00000  Uiso   1.00
C370   C     0.90511   0.40203   0.26684   0.00000  Uiso   1.00
C371   C     0.91413   0.41212   0.32299   0.00000  Uiso   1.00
C372   C     0.91307   0.50003   0.16696   0.00000  Uiso   1.00
C373   C     0.76725   0.62156   0.11006   0.00000  Uiso   1.00
C374   C     0.73104   0.62030   0.14622   0.00000  Uiso   1.00
C375   C     0.70752   0.66388   0.14995   0.00000  Uiso   1.00
C376   C     0.80777   0.37287   0.07437   0.00000  Uiso   1.00
C377   C     0.76625   0.39708   0.06145   0.00000  Uiso   1.00
C378   C     0.75942   0.40464   0.00469   0.00000  Uiso   1.00
C379   C     0.90191   0.62445   0.22023   0.00000  Uiso   1.00
C380   C     0.89904   0.59816   0.26967   0.00000  Uiso   1.00
C381   C     0.93467   0.60950   0.30868   0.00000  Uiso   1.00
C382   C     0.83316   0.50001   0.07319   0.00000  Uiso   1.00
C383   C     0.83326   0.50009   0.26013   0.00000  Uiso   1.00
C384   C     0.83312   0.50023   0.02190   0.00000  Uiso   1.00
C385   C     0.83317   0.50036   0.31141   0.00000  Uiso   1.00
C386   C     0.68653   0.46847   0.13773   0.00000  Uiso   1.00
C387   C     0.98031   0.52934   0.19850   0.00000  Uiso   1.00
C388   C     0.97680   0.46877   0.13752   0.00000  Uiso   1.00
H389   H     0.70174   0.44508   0.11400   0.00000  Uiso   1.00
H390   H     0.83631   0.39270   0.27049   0.00000  Uiso   1.00
H391   H     0.86584   0.34728   0.28490   0.00000  Uiso   1.00
H392   H     0.72942   0.35789   0.16134   0.00000  Uiso   1.00
H393   H     0.69041   0.33817   0.11339   0.00000  Uiso   1.00
H394   H     0.68391   0.66089   0.17902   0.00000  Uiso   1.00
H395   H     0.70799   0.59477   0.13241   0.00000  Uiso   1.00
H396   H     0.74325   0.61128   0.18488   0.00000  Uiso   1.00
H397   H     0.75601   0.63811   0.07472   0.00000  Uiso   1.00
H398   H     0.77468   0.58793   0.09750   0.00000  Uiso   1.00
H399   H     0.78579   0.42400   0.32385   0.00000  Uiso   1.00
H400   H     0.96519   0.55216   0.22277   0.00000  Uiso   1.00
H401   H     0.75700   0.37256   0.31759   0.00000  Uiso   1.00
H402   H     0.72981   0.42322   0.33012   0.00000  Uiso   1.00
H403   H     0.73933   0.37770   0.07365   0.00000  Uiso   1.00
H404   H     0.76564   0.42924   0.08086   0.00000  Uiso   1.00
H405   H     0.83572   0.39208   0.06486   0.00000  Uiso   1.00
H406   H     0.80967   0.34439   0.04799   0.00000  Uiso   1.00
H407   H     0.96569   0.60334   0.29300   0.00000  Uiso   1.00
H408   H     0.93300   0.64458   0.32006   0.00000  Uiso   1.00
H409   H     0.93192   0.58869   0.00944   0.00000  Uiso   1.00
H410   H     0.86854   0.60392   0.28688   0.00000  Uiso   1.00
H411   H     0.95873   0.44559   0.11367   0.00000  Uiso   1.00
H412   H     0.90203   0.56252   0.26152   0.00000  Uiso   1.00
H413   H     0.91736   0.60586   0.19093   0.00000  Uiso   1.00
H414   H     0.92496   0.65148   0.22652   0.00000  Uiso   1.00
H415   H     0.70808   0.55115   0.22390   0.00000  Uiso   1.00
H416   H     0.88749   0.43013   0.00500   0.00000  Uiso   1.00
H417   H     0.91916   0.38136   0.01165   0.00000  Uiso   1.00
H418   H     0.94286   0.43295   0.32813   0.00000  Uiso   1.00
H419   H     0.93250   0.38457   0.25269   0.00000  Uiso   1.00
H420   H     0.90322   0.43385   0.24741   0.00000  Uiso   1.00
N421   N     0.83333   0.61907   0.16667   0.00000  Uiso   1.00
N422   N     0.83333   0.38093   0.16667   0.00000  Uiso   1.00
O423   O     0.77226   0.53821   0.16666   0.00000  Uiso   1.00
O424   O     0.89441   0.46179   0.16667   0.00000  Uiso   1.00
O425   O     0.89441   0.53821   0.16667   0.00000  Uiso   1.00
O426   O     0.77226   0.46179   0.16666   0.00000  Uiso   1.00
O427   O     0.83334   0.53821   0.09511   0.00000  Uiso   1.00
O428   O     0.83333   0.46179   0.23822   0.00000  Uiso   1.00
O429   O     0.83333   0.53821   0.23822   0.00000  Uiso   1.00
O430   O     0.83334   0.46179   0.09511   0.00000  Uiso   1.00
Zn431  Zn    0.83333   0.55104   0.16667   0.00000  Uiso   1.00
Zn432  Zn    0.83333   0.44896   0.16667   0.00000  Uiso   1.00
C433   C     0.08695   0.83314   0.16677   0.00000  Uiso   1.00
C434   C     0.02335   0.86206   0.19913   0.00000  Uiso   1.00
C435   C     0.29068   0.83304   0.16736   0.00000  Uiso   1.00
C436   C     0.04276   0.83240   0.16779   0.00000  Uiso   1.00
C437   C     0.18797   0.69016   0.20456   0.00000  Uiso   1.00
C438   C     0.13946   0.97638   0.13522   0.00000  Uiso   1.00
C439   C     0.14619   0.68950   0.12843   0.00000  Uiso   1.00
C440   C     0.19404   0.97682   0.19832   0.00000  Uiso   1.00
C441   C     0.19739   0.70846   0.25785   0.00000  Uiso   1.00
C442   C     0.23844   0.73536   0.26684   0.00000  Uiso   1.00
C443   C     0.24747   0.74546   0.32299   0.00000  Uiso   1.00
C444   C     0.24640   0.83336   0.16696   0.00000  Uiso   1.00
C445   C     0.10058   0.95489   0.11006   0.00000  Uiso   1.00
C446   C     0.06437   0.95363   0.14622   0.00000  Uiso   1.00
C447   C     0.04085   0.99722   0.14995   0.00000  Uiso   1.00
C448   C     0.14110   0.70621   0.07437   0.00000  Uiso   1.00
C449   C     0.09958   0.73042   0.06145   0.00000  Uiso   1.00
C450   C     0.09275   0.73798   0.00469   0.00000  Uiso   1.00
C451   C     0.23524   0.95779   0.22023   0.00000  Uiso   1.00
C452   C     0.23237   0.93150   0.26967   0.00000  Uiso   1.00
C453   C     0.26800   0.94284   0.30868   0.00000  Uiso   1.00
C454   C     0.16649   0.83334   0.07319   0.00000  Uiso   1.00
C455   C     0.16660   0.83342   0.26013   0.00000  Uiso   1.00
C456   C     0.16645   0.83357   0.02190   0.00000  Uiso   1.00
C457   C     0.16650   0.83369   0.31141   0.00000  Uiso   1.00
C458   C     0.01987   0.80180   0.13773   0.00000  Uiso   1.00
C459   C     0.31364   0.86267   0.19850   0.00000  Uiso   1.00
C460   C     0.31014   0.80211   0.13752   0.00000  Uiso   1.00
H461   H     0.03507   0.77841   0.11400   0.00000  Uiso   1.00
H462   H     0.16965   0.72603   0.27049   0.00000  Uiso   1.00
H463   H     0.19917   0.68061   0.28490   0.00000  Uiso   1.00
H464   H     0.06275   0.69122   0.16134   0.00000  Uiso   1.00
H465   H     0.02374   0.67150   0.11339   0.00000  Uiso   1.00
H466   H     0.01724   0.99422   0.17902   0.00000  Uiso   1.00
H467   H     0.04133   0.92810   0.13241   0.00000  Uiso   1.00
H468   H     0.07658   0.94461   0.18488   0.00000  Uiso   1.00
H469   H     0.08934   0.97144   0.07472   0.00000  Uiso   1.00
H470   H     0.10802   0.92127   0.09750   0.00000  Uiso   1.00
H471   H     0.11912   0.75734   0.32385   0.00000  Uiso   1.00
H472   H     0.29852   0.88550   0.22277   0.00000  Uiso   1.00
H473   H     0.09033   0.70589   0.31759   0.00000  Uiso   1.00
H474   H     0.06314   0.75656   0.33012   0.00000  Uiso   1.00
H475   H     0.07267   0.71103   0.07365   0.00000  Uiso   1.00
H476   H     0.09897   0.76258   0.08086   0.00000  Uiso   1.00
H477   H     0.16905   0.72541   0.06486   0.00000  Uiso   1.00
H478   H     0.14300   0.67773   0.04799   0.00000  Uiso   1.00
H479   H     0.29903   0.93668   0.29300   0.00000  Uiso   1.00
H480   H     0.26634   0.97792   0.32006   0.00000  Uiso   1.00
H481   H     0.26525   0.92202   0.00944   0.00000  Uiso   1.00
H482   H     0.20188   0.93726   0.28688   0.00000  Uiso   1.00
H483   H     0.29206   0.77892   0.11367   0.00000  Uiso   1.00
H484   H     0.23537   0.89585   0.26152   0.00000  Uiso   1.00
H485   H     0.25069   0.93920   0.19093   0.00000  Uiso   1.00
H486   H     0.25829   0.98482   0.22652   0.00000  Uiso   1.00
H487   H     0.04142   0.88449   0.22390   0.00000  Uiso   1.00
H488   H     0.22082   0.76347   0.00500   0.00000  Uiso   1.00
H489   H     0.25249   0.71470   0.01165   0.00000  Uiso   1.00
H490   H     0.27619   0.76628   0.32813   0.00000  Uiso   1.00
H491   H     0.26583   0.71791   0.25269   0.00000  Uiso   1.00
H492   H     0.23656   0.76718   0.24741   0.00000  Uiso   1.00
N493   N     0.16667   0.95240   0.16667   0.00000  Uiso   1.00
N494   N     0.16667   0.71427   0.16667   0.00000  Uiso   1.00
O495   O     0.10559   0.87154   0.16666   0.00000  Uiso   1.00
O496   O     0.22774   0.79513   0.16667   0.00000  Uiso   1.00
O497   O     0.22774   0.87154   0.16667   0.00000  Uiso   1.00
O498   O     0.10559   0.79513   0.16666   0.00000  Uiso   1.00
O499   O     0.16667   0.87155   0.09511   0.00000  Uiso   1.00
O500   O     0.16666   0.79512   0.23822   0.00000  Uiso   1.00
O501   O     0.16666   0.87155   0.23822   0.00000  Uiso   1.00
O502   O     0.16667   0.79512   0.09511   0.00000  Uiso   1.00
Zn503  Zn    0.16667   0.88437   0.16667   0.00000  Uiso   1.00
Zn504  Zn    0.16667   0.78229   0.16667   0.00000  Uiso   1.00
C505   C     0.42029   0.83314   0.16677   0.00000  Uiso   1.00
C506   C     0.35668   0.86206   0.19913   0.00000  Uiso   1.00
C507   C     0.62401   0.83304   0.16736   0.00000  Uiso   1.00
C508   C     0.37609   0.83240   0.16779   0.00000  Uiso   1.00
C509   C     0.52130   0.69016   0.20456   0.00000  Uiso   1.00
C510   C     0.47279   0.97638   0.13522   0.00000  Uiso   1.00
C511   C     0.47952   0.68950   0.12843   0.00000  Uiso   1.00
C512   C     0.52737   0.97682   0.19832   0.00000  Uiso   1.00
C513   C     0.53072   0.70846   0.25785   0.00000  Uiso   1.00
C514   C     0.57178   0.73536   0.26684   0.00000  Uiso   1.00
C515   C     0.58080   0.74546   0.32299   0.00000  Uiso   1.00
C516   C     0.57974   0.83336   0.16696   0.00000  Uiso   1.00
C517   C     0.43392   0.95489   0.11006   0.00000  Uiso   1.00
C518   C     0.39771   0.95363   0.14622   0.00000  Uiso   1.00
C519   C     0.37419   0.99722   0.14995   0.00000  Uiso   1.00
C520   C     0.47444   0.70621   0.07437   0.00000  Uiso   1.00
C521   C     0.43292   0.73042   0.06145   0.00000  Uiso   1.00
C522   C     0.42608   0.73798   0.00469   0.00000  Uiso   1.00
C523   C     0.56858   0.95779   0.22023   0.00000  Uiso   1.00
C524   C     0.56571   0.93150   0.26967   0.00000  Uiso   1.00
C525   C     0.60134   0.94284   0.30868   0.00000  Uiso   1.00
C526   C     0.49982   0.83334   0.07319   0.00000  Uiso   1.00
C527   C     0.49993   0.83342   0.26013   0.00000  Uiso   1.00
C528   C     0.49979   0.83357   0.02190   0.00000  Uiso   1.00
C529   C     0.49984   0.83369   0.31141   0.00000  Uiso   1.00
C530   C     0.35320   0.80180   0.13773   0.00000  Uiso   1.00
C531   C     0.64697   0.86267   0.19850   0.00000  Uiso   1.00
C532   C     0.64347   0.80211   0.13752   0.00000  Uiso   1.00
H533   H     0.36840   0.77841   0.11400   0.00000  Uiso   1.00
H534   H     0.50298   0.72603   0.27049   0.00000  Uiso   1.00
H535   H     0.53250   0.68061   0.28490   0.00000  Uiso   1.00
H536   H     0.39609   0.69122   0.16134   0.00000  Uiso   1.00
H537   H     0.35708   0.67150   0.11339   0.00000  Uiso   1.00
H538   H     0.35057   0.99422   0.17902   0.00000  Uiso   1.00
H539   H     0.37466   0.92810   0.13241   0.00000  Uiso   1.00
H540   H     0.40992   0.94461   0.18488   0.00000  Uiso   1.00
H541   H     0.42268   0.97144   0.07472   0.00000  Uiso   1.00
H542   H     0.44135   0.92127   0.09750   0.00000  Uiso   1.00
H543   H     0.45245   0.75734   0.32385   0.00000  Uiso   1.00
H544   H     0.63185   0.88550   0.22277   0.00000  Uiso   1.00
H545   H     0.42367   0.70589   0.31759   0.00000  Uiso   1.00
H546   H     0.39647   0.75656   0.33012   0.00000  Uiso   1.00
H547   H     0.40600   0.71103   0.07365   0.00000  Uiso   1.00
H548   H     0.43231   0.76258   0.08086   0.00000  Uiso   1.00
H549   H     0.50239   0.72541   0.06486   0.00000  Uiso   1.00
H550   H     0.47633   0.67773   0.04799   0.00000  Uiso   1.00
H551   H     0.63236   0.93668   0.29300   0.00000  Uiso   1.00
H552   H     0.59967   0.97792   0.32006   0.00000  Uiso   1.00
H553   H     0.59858   0.92202   0.00944   0.00000  Uiso   1.00
H554   H     0.53521   0.93726   0.28688   0.00000  Uiso   1.00
H555   H     0.62540   0.77892   0.11367   0.00000  Uiso   1.00
H556   H     0.56870   0.89585   0.26152   0.00000  Uiso   1.00
H557   H     0.58403   0.93920   0.19093   0.00000  Uiso   1.00
H558   H     0.59163   0.98482   0.22652   0.00000  Uiso   1.00
H559   H     0.37475   0.88449   0.22390   0.00000  Uiso   1.00
H560   H     0.55416   0.76347   0.00500   0.00000  Uiso   1.00
H561   H     0.58582   0.71470   0.01165   0.00000  Uiso   1.00
H562   H     0.60952   0.76628   0.32813   0.00000  Uiso   1.00
H563   H     0.59916   0.71791   0.25269   0.00000  Uiso   1.00
H564   H     0.56989   0.76718   0.24741   0.00000  Uiso   1.00
N565   N     0.50000   0.95240   0.16667   0.00000  Uiso   1.00
N566   N     0.50000   0.71427   0.16667   0.00000  Uiso   1.00
O567   O     0.43892   0.87154   0.16666   0.00000  Uiso   1.00
O568   O     0.56108   0.79513   0.16667   0.00000  Uiso   1.00
O569   O     0.56108   0.87154   0.16667   0.00000  Uiso   1.00
O570   O     0.43892   0.79513   0.16666   0.00000  Uiso   1.00
O571   O     0.50000   0.87155   0.09511   0.00000  Uiso   1.00
O572   O     0.50000   0.79512   0.23822   0.00000  Uiso   1.00
O573   O     0.50000   0.87155   0.23822   0.00000  Uiso   1.00
O574   O     0.50000   0.79512   0.09511   0.00000  Uiso   1.00
Zn575  Zn    0.50000   0.88437   0.16667   0.00000  Uiso   1.00
Zn576  Zn    0.50000   0.78229   0.16667   0.00000  Uiso   1.00
C577   C     0.75362   0.83314   0.16677   0.00000  Uiso   1.00
C578   C     0.69001   0.86206   0.19913   0.00000  Uiso   1.00
C579   C     0.95735   0.83304   0.16736   0.00000  Uiso   1.00
C580   C     0.70943   0.83240   0.16779   0.00000  Uiso   1.00
C581   C     0.85464   0.69016   0.20456   0.00000  Uiso   1.00
C582   C     0.80613   0.97638   0.13522   0.00000  Uiso   1.00
C583   C     0.81286   0.68950   0.12843   0.00000  Uiso   1.00
C584   C     0.86070   0.97682   0.19832   0.00000  Uiso   1.00
C585   C     0.86405   0.70846   0.25785   0.00000  Uiso   1.00
C586   C     0.90511   0.73536   0.26684   0.00000  Uiso   1.00
C587   C     0.91413   0.74546   0.32299   0.00000  Uiso   1.00
C588   C     0.91307   0.83336   0.16696   0.00000  Uiso   1.00
C589   C     0.76725   0.95489   0.11006   0.00000  Uiso   1.00
C590   C     0.73104   0.95363   0.14622   0.00000  Uiso   1.00
C591   C     0.70752   0.99722   0.14995   0.00000  Uiso   1.00
C592   C     0.80777   0.70621   0.07437   0.00000  Uiso   1.00
C593   C     0.76625   0.73042   0.06145   0.00000  Uiso   1.00
C594   C     0.75942   0.73798   0.00469   0.00000  Uiso   1.00
C595   C     0.90191   0.95779   0.22023   0.00000  Uiso   1.00
C596   C     0.89904   0.93150   0.26967   0.00000  Uiso   1.00
C597   C     0.93467   0.94284   0.30868   0.00000  Uiso   1.00
C598   C     0.83316   0.83334   0.07319   0.00000  Uiso   1.00
C599   C     0.83326   0.83342   0.26013   0.00000  Uiso   1.00
C600   C     0.83312   0.83357   0.02190   0.00000  Uiso   1.00
C601   C     0.83317   0.83369   0.31141   0.00000  Uiso   1.00
C602   C     0.68653   0.80180   0.13773   0.00000  Uiso   1.00
C603   C     0.98031   0.86267   0.19850   0.00000  Uiso   1.00
C604   C     0.97680   0.80211   0.13752   0.00000  Uiso   1.00
H605   H     0.70174   0.77841   0.11400   0.00000  Uiso   1.00
H606   H     0.83631   0.72603   0.27049   0.00000  Uiso   1.00
H607   H     0.86584   0.68061   0.28490   0.00000  Uiso   1.00
H608   H     0.72942   0.69122   0.16134   0.00000  Uiso   1.00
H609   H     0.69041   0.67150   0.11339   0.00000  Uiso   1.00
H610   H     0.68391   0.99422   0.17902   0.00000  Uiso   1.00
H611   H     0.70799   0.92810   0.13241   0.00000  Uiso   1.00
H612   H     0.74325   0.94461   0.18488   0.00000  Uiso   1.00
H613   H     0.75601   0.97144   0.07472   0.00000  Uiso   1.00
H614   H     0.77468   0.92127   0.09750   0.00000  Uiso   1.00
H615   H     0.78579   0.75734   0.32385   0.00000  Uiso   1.00
H616   H     0.96519   0.88550   0.22277   0.00000  Uiso   1.00
H617   H     0.75700   0.70589   0.31759   0.00000  Uiso   1.00
H618   H     0.72981   0.75656   0.33012   0.00000  Uiso   1.00
H619   H     0.73933   0.71103   0.07365   0.00000  Uiso   1.00
H620   H     0.76564   0.76258   0.08086   0.00000  Uiso   1.00
H621   H     0.83572   0.72541   0.06486   0.00000  Uiso   1.00
H622   H     0.80967   0.67773   0.04799   0.00000  Uiso   1.00
H623   H     0.96569   0.93668   0.29300   0.00000  Uiso   1.00
H624   H     0.93300   0.97792   0.32006   0.00000  Uiso   1.00
H625   H     0.93192   0.92202   0.00944   0.00000  Uiso   1.00
H626   H     0.86854   0.93726   0.28688   0.00000  Uiso   1.00
H627   H     0.95873   0.77892   0.11367   0.00000  Uiso   1.00
H628   H     0.90203   0.89585   0.26152   0.00000  Uiso   1.00
H629   H     0.91736   0.93920   0.19093   0.00000  Uiso   1.00
H630   H     0.92496   0.98482   0.22652   0.00000  Uiso   1.00
H631   H     0.70808   0.88449   0.22390   0.00000  Uiso   1.00
H632   H     0.88749   0.76347   0.00500   0.00000  Uiso   1.00
H633   H     0.91916   0.71470   0.01165   0.00000  Uiso   1.00
H634   H     0.94286   0.76628   0.32813   0.00000  Uiso   1.00
H635   H     0.93250   0.71791   0.25269   0.00000  Uiso   1.00
H636   H     0.90322   0.76718   0.24741   0.00000  Uiso   1.00
N637   N     0.83333   0.95240   0.16667   0.00000  Uiso   1.00
N638   N     0.83333   0.71427   0.16667   0.00000  Uiso   1.00
O639   O     0.77226   0.87154   0.16666   0.00000  Uiso   1.00
O640   O     0.89441   0.79513   0.16667   0.00000  Uiso   1.00
O641   O     0.89441   0.87154   0.16667   0.00000  Uiso   1.00
O642   O     0.77226   0.79513   0.16666   0.00000  Uiso   1.00
O643   O     0.83334   0.87155   0.09511   0.00000  Uiso   1.00
O644   O     0.83333   0.79512   0.23822   0.00000  Uiso   1.00
O645   O     0.83333   0.87155   0.23822   0.00000  Uiso   1.00
O646   O     0.83334   0.79512   0.09511   0.00000  Uiso   1.00
Zn647  Zn    0.83333   0.88437   0.16667   0.00000  Uiso   1.00
Zn648  Zn    0.83333   0.78229   0.16667   0.00000  Uiso   1.00
C649   C     0.08695   0.16647   0.50010   0.00000  Uiso   1.00
C650   C     0.02335   0.19539   0.53247   0.00000  Uiso   1.00
C651   C     0.29068   0.16638   0.50069   0.00000  Uiso   1.00
C652   C     0.04276   0.16574   0.50112   0.00000  Uiso   1.00
C653   C     0.18797   0.02349   0.53789   0.00000  Uiso   1.00
C654   C     0.13946   0.30972   0.46855   0.00000  Uiso   1.00
C655   C     0.14619   0.02284   0.46176   0.00000  Uiso   1.00
C656   C     0.19404   0.31016   0.53165   0.00000  Uiso   1.00
C657   C     0.19739   0.04180   0.59118   0.00000  Uiso   1.00
C658   C     0.23844   0.06870   0.60018   0.00000  Uiso   1.00
C659   C     0.24747   0.07879   0.65632   0.00000  Uiso   1.00
C660   C     0.24640   0.16669   0.50029   0.00000  Uiso   1.00
C661   C     0.10058   0.28822   0.44339   0.00000  Uiso   1.00
C662   C     0.06437   0.28696   0.47955   0.00000  Uiso   1.00
C663   C     0.04085   0.33055   0.48329   0.00000  Uiso   1.00
C664   C     0.14110   0.03954   0.40771   0.00000  Uiso   1.00
C665   C     0.09958   0.06375   0.39478   0.00000  Uiso   1.00
C666   C     0.09275   0.07131   0.33803   0.00000  Uiso   1.00
C667   C     0.23524   0.29112   0.55356   0.00000  Uiso   1.00
C668   C     0.23237   0.26483   0.60300   0.00000  Uiso   1.00
C669   C     0.26800   0.27617   0.64201   0.00000  Uiso   1.00
C670   C     0.16649   0.16667   0.40653   0.00000  Uiso   1.00
C671   C     0.16660   0.16675   0.59346   0.00000  Uiso   1.00
C672   C     0.16645   0.16690   0.35524   0.00000  Uiso   1.00
C673   C     0.16650   0.16703   0.64474   0.00000  Uiso   1.00
C674   C     0.01987   0.13514   0.47107   0.00000  Uiso   1.00
C675   C     0.31364   0.19600   0.53183   0.00000  Uiso   1.00
C676   C     0.31014   0.13544   0.47086   0.00000  Uiso   1.00
H677   H     0.03507   0.11175   0.44733   0.00000  Uiso   1.00
H678   H     0.16965   0.05936   0.60382   0.00000  Uiso   1.00
H679   H     0.19917   0.01394   0.61823   0.00000  Uiso   1.00
H680   H     0.06275   0.02455   0.49467   0.00000  Uiso   1.00
H681   H     0.02374   0.00483   0.44672   0.00000  Uiso   1.00
H682   H     0.01724   0.32756   0.51235   0.00000  Uiso   1.00
H683   H     0.04133   0.26143   0.46574   0.00000  Uiso   1.00
H684   H     0.07658   0.27795   0.51822   0.00000  Uiso   1.00
H685   H     0.08934   0.30478   0.40806   0.00000  Uiso   1.00
H686   H     0.10802   0.25460   0.43084   0.00000  Uiso   1.00
H687   H     0.11912   0.09067   0.65718   0.00000  Uiso   1.00
H688   H     0.29852   0.21883   0.55611   0.00000  Uiso   1.00
H689   H     0.09033   0.03922   0.65092   0.00000  Uiso   1.00
H690   H     0.06314   0.08989   0.66345   0.00000  Uiso   1.00
H691   H     0.07267   0.04437   0.40698   0.00000  Uiso   1.00
H692   H     0.09897   0.09591   0.41419   0.00000  Uiso   1.00
H693   H     0.16905   0.05875   0.39819   0.00000  Uiso   1.00
H694   H     0.14300   0.01106   0.38132   0.00000  Uiso   1.00
H695   H     0.29903   0.27001   0.62633   0.00000  Uiso   1.00
H696   H     0.26634   0.31125   0.65339   0.00000  Uiso   1.00
H697   H     0.26525   0.25535   0.34277   0.00000  Uiso   1.00
H698   H     0.20188   0.27059   0.62021   0.00000  Uiso   1.00
H699   H     0.29206   0.11226   0.44700   0.00000  Uiso   1.00
H700   H     0.23537   0.22919   0.59486   0.00000  Uiso   1.00
H701   H     0.25069   0.27253   0.52427   0.00000  Uiso   1.00
H702   H     0.25829   0.31815   0.55985   0.00000  Uiso   1.00
H703   H     0.04142   0.21782   0.55723   0.00000  Uiso   1.00
H704   H     0.22082   0.09680   0.33834   0.00000  Uiso   1.00
H705   H     0.25249   0.04803   0.34499   0.00000  Uiso   1.00
H706   H     0.27619   0.09962   0.66147   0.00000  Uiso   1.00
H707   H     0.26583   0.05124   0.58602   0.00000  Uiso   1.00
H708   H     0.23656   0.10052   0.58074   0.00000  Uiso   1.00
N709   N     0.16667   0.28573   0.50000   0.00000  Uiso   1.00
N710   N     0.16667   0.04760   0.50000   0.00000  Uiso   1.00
O711   O     0.10559   0.20487   0.50000   0.00000  Uiso   1.00
O712   O     0.22774   0.12846   0.50000   0.00000  Uiso   1.00
O713   O     0.22774   0.20487   0.50000   0.00000  Uiso   1.00
O714   O     0.10559   0.12846   0.50000   0.00000  Uiso   1.00
O715   O     0.16667   0.20488   0.42845   0.00000  Uiso   1.00
O716   O     0.16666   0.12845   0.57155   0.00000  Uiso   1.00
O717   O     0.16666   0.20488   0.57155   0.00000  Uiso   1.00
O718   O     0.16667   0.12845   0.42845   0.00000  Uiso   1.00
Zn719  Zn    0.16667   0.21771   0.50000   0.00000  Uiso   1.00
Zn720  Zn    0.16667   0.11563   0.50000   0.00000  Uiso   1.00
C721   C     0.42029   0.16647   0.50010   0.00000  Uiso   1.00
C722   C     0.35668   0.19539   0.53247   0.00000  Uiso   1.00
C723   C     0.62401   0.16638   0.50069   0.00000  Uiso   1.00
C724   C     0.37609   0.16574   0.50112   0.00000  Uiso   1.00
C725   C     0.52130   0.02349   0.53789   0.00000  Uiso   1.00
C726   C     0.47279   0.30972   0.46855   0.00000  Uiso   1.00
C727   C     0.47952   0.02284   0.46176   0.00000  Uiso   1.00
C728   C     0.52737   0.31016   0.53165   0.00000  Uiso   1.00
C729   C     0.53072   0.04180   0.59118   0.00000  Uiso   1.00
C730   C     0.57178   0.06870   0.60018   0.00000  Uiso   1.00
C731   C     0.58080   0.07879   0.65632   0.00000  Uiso   1.00
C732   C     0.57974   0.16669   0.50029   0.00000  Uiso   1.00
C733   C     0.43392   0.28822   0.44339   0.00000  Uiso   1.00
C734   C     0.39771   0.28696   0.47955   0.00000  Uiso   1.00
C735   C     0.37419   0.33055   0.48329   0.00000  Uiso   1.00
C736   C     0.47444   0.03954   0.40771   0.00000  Uiso   1.00
C737   C     0.43292   0.06375   0.39478   0.00000  Uiso   1.00
C738   C     0.42608   0.07131   0.33803   0.00000  Uiso   1.00
C739   C     0.56858   0.29112   0.55356   0.00000  Uiso   1.00
C740   C     0.56571   0.26483   0.60300   0.00000  Uiso   1.00
C741   C     0.60134   0.27617   0.64201   0.00000  Uiso   1.00
C742   C     0.49982   0.16667   0.40653   0.00000  Uiso   1.00
C743   C     0.49993   0.16675   0.59346   0.00000  Uiso   1.00
C744   C     0.49979   0.16690   0.35524   0.00000  Uiso   1.00
C745   C     0.49984   0.16703   0.64474   0.00000  Uiso   1.00
C746   C     0.35320   0.13514   0.47107   0.00000  Uiso   1.00
C747   C     0.64697   0.19600   0.53183   0.00000  Uiso   1.00
C748   C     0.64347   0.13544   0.47086   0.00000  Uiso   1.00
H749   H     0.36840   0.11175   0.44733   0.00000  Uiso   1.00
H750   H     0.50298   0.05936   0.60382   0.00000  Uiso   1.00
H751   H     0.53250   0.01394   0.61823   0.00000  Uiso   1.00
H752   H     0.39609   0.02455   0.49467   0.00000  Uiso   1.00
H753   H     0.35708   0.00483   0.44672   0.00000  Uiso   1.00
H754   H     0.35057   0.32756   0.51235   0.00000  Uiso   1.00
H755   H     0.37466   0.26143   0.46574   0.00000  Uiso   1.00
H756   H     0.40992   0.27795   0.51822   0.00000  Uiso   1.00
H757   H     0.42268   0.30478   0.40806   0.00000  Uiso   1.00
H758   H     0.44135   0.25460   0.43084   0.00000  Uiso   1.00
H759   H     0.45245   0.09067   0.65718   0.00000  Uiso   1.00
H760   H     0.63185   0.21883   0.55611   0.00000  Uiso   1.00
H761   H     0.42367   0.03922   0.65092   0.00000  Uiso   1.00
H762   H     0.39647   0.08989   0.66345   0.00000  Uiso   1.00
H763   H     0.40600   0.04437   0.40698   0.00000  Uiso   1.00
H764   H     0.43231   0.09591   0.41419   0.00000  Uiso   1.00
H765   H     0.50239   0.05875   0.39819   0.00000  Uiso   1.00
H766   H     0.47633   0.01106   0.38132   0.00000  Uiso   1.00
H767   H     0.63236   0.27001   0.62633   0.00000  Uiso   1.00
H768   H     0.59967   0.31125   0.65339   0.00000  Uiso   1.00
H769   H     0.59858   0.25535   0.34277   0.00000  Uiso   1.00
H770   H     0.53521   0.27059   0.62021   0.00000  Uiso   1.00
H771   H     0.62540   0.11226   0.44700   0.00000  Uiso   1.00
H772   H     0.56870   0.22919   0.59486   0.00000  Uiso   1.00
H773   H     0.58403   0.27253   0.52427   0.00000  Uiso   1.00
H774   H     0.59163   0.31815   0.55985   0.00000  Uiso   1.00
H775   H     0.37475   0.21782   0.55723   0.00000  Uiso   1.00
H776   H     0.55416   0.09680   0.33834   0.00000  Uiso   1.00
H777   H     0.58582   0.04803   0.34499   0.00000  Uiso   1.00
H778   H     0.60952   0.09962   0.66147   0.00000  Uiso   1.00
H779   H     0.59916   0.05124   0.58602   0.00000  Uiso   1.00
H780   H     0.56989   0.10052   0.58074   0.00000  Uiso   1.00
N781   N     0.50000   0.28573   0.50000   0.00000  Uiso   1.00
N782   N     0.50000   0.04760   0.50000   0.00000  Uiso   1.00
O783   O     0.43892   0.20487   0.50000   0.00000  Uiso   1.00
O784   O     0.56108   0.12846   0.50000   0.00000  Uiso   1.00
O785   O     0.56108   0.20487   0.50000   0.00000  Uiso   1.00
O786   O     0.43892   0.12846   0.50000   0.00000  Uiso   1.00
O787   O     0.50000   0.20488   0.42845   0.00000  Uiso   1.00
O788   O     0.50000   0.12845   0.57155   0.00000  Uiso   1.00
O789   O     0.50000   0.20488   0.57155   0.00000  Uiso   1.00
O790   O     0.50000   0.12845   0.42845   0.00000  Uiso   1.00
Zn791  Zn    0.50000   0.21771   0.50000   0.00000  Uiso   1.00
Zn792  Zn    0.50000   0.11563   0.50000   0.00000  Uiso   1.00
C793   C     0.75362   0.16647   0.50010   0.00000  Uiso   1.00
C794   C     0.69001   0.19539   0.53247   0.00000  Uiso   1.00
C795   C     0.95735   0.16638   0.50069   0.00000  Uiso   1.00
C796   C     0.70943   0.16574   0.50112   0.00000  Uiso   1.00
C797   C     0.85464   0.02349   0.53789   0.00000  Uiso   1.00
C798   C     0.80613   0.30972   0.46855   0.00000  Uiso   1.00
C799   C     0.81286   0.02284   0.46176   0.00000  Uiso   1.00
C800   C     0.86070   0.31016   0.53165   0.00000  Uiso   1.00
C801   C     0.86405   0.04180   0.59118   0.00000  Uiso   1.00
C802   C     0.90511   0.06870   0.60018   0.00000  Uiso   1.00
C803   C     0.91413   0.07879   0.65632   0.00000  Uiso   1.00
C804   C     0.91307   0.16669   0.50029   0.00000  Uiso   1.00
C805   C     0.76725   0.28822   0.44339   0.00000  Uiso   1.00
C806   C     0.73104   0.28696   0.47955   0.00000  Uiso   1.00
C807   C     0.70752   0.33055   0.48329   0.00000  Uiso   1.00
C808   C     0.80777   0.03954   0.40771   0.00000  Uiso   1.00
C809   C     0.76625   0.06375   0.39478   0.00000  Uiso   1.00
C810   C     0.75942   0.07131   0.33803   0.00000  Uiso   1.00
C811   C     0.90191   0.29112   0.55356   0.00000  Uiso   1.00
C812   C     0.89904   0.26483   0.60300   0.00000  Uiso   1.00
C813   C     0.93467   0.27617   0.64201   0.00000  Uiso   1.00
C814   C     0.83316   0.16667   0.40653   0.00000  Uiso   1.00
C815   C     0.83326   0.16675   0.59346   0.00000  Uiso   1.00
C816   C     0.83312   0.16690   0.35524   0.00000  Uiso   1.00
C817   C     0.83317   0.16703   0.64474   0.00000  Uiso   1.00
C818   C     0.68653   0.13514   0.47107   0.00000  Uiso   1.00
C819   C     0.98031   0.19600   0.53183   0.00000  Uiso   1.00
C820   C     0.97680   0.13544   0.47086   0.00000  Uiso   1.00
H821   H     0.70174   0.11175   0.44733   0.00000  Uiso   1.00
H822   H     0.83631   0.05936   0.60382   0.00000  Uiso   1.00
H823   H     0.86584   0.01394   0.61823   0.00000  Uiso   1.00
H824   H     0.72942   0.02455   0.49467   0.00000  Uiso   1.00
H825   H     0.69041   0.00483   0.44672   0.00000  Uiso   1.00
H826   H     0.68391   0.32756   0.51235   0.00000  Uiso   1.00
H827   H     0.70799   0.26143   0.46574   0.00000  Uiso   1.00
H828   H     0.74325   0.27795   0.51822   0.00000  Uiso   1.00
H829   H     0.75601   0.30478   0.40806   0.00000  Uiso   1.00
H830   H     0.77468   0.25460   0.43084   0.00000  Uiso   1.00
H831   H     0.78579   0.09067   0.65718   0.00000  Uiso   1.00
H832   H     0.96519   0.21883   0.55611   0.00000  Uiso   1.00
H833   H     0.75700   0.03922   0.65092   0.00000  Uiso   1.00
H834   H     0.72981   0.08989   0.66345   0.00000  Uiso   1.00
H835   H     0.73933   0.04437   0.40698   0.00000  Uiso   1.00
H836   H     0.76564   0.09591   0.41419   0.00000  Uiso   1.00
H837   H     0.83572   0.05875   0.39819   0.00000  Uiso   1.00
H838   H     0.80967   0.01106   0.38132   0.00000  Uiso   1.00
H839   H     0.96569   0.27001   0.62633   0.00000  Uiso   1.00
H840   H     0.93300   0.31125   0.65339   0.00000  Uiso   1.00
H841   H     0.93192   0.25535   0.34277   0.00000  Uiso   1.00
H842   H     0.86854   0.27059   0.62021   0.00000  Uiso   1.00
H843   H     0.95873   0.11226   0.44700   0.00000  Uiso   1.00
H844   H     0.90203   0.22919   0.59486   0.00000  Uiso   1.00
H845   H     0.91736   0.27253   0.52427   0.00000  Uiso   1.00
H846   H     0.92496   0.31815   0.55985   0.00000  Uiso   1.00
H847   H     0.70808   0.21782   0.55723   0.00000  Uiso   1.00
H848   H     0.88749   0.09680   0.33834   0.00000  Uiso   1.00
H849   H     0.91916   0.04803   0.34499   0.00000  Uiso   1.00
H850   H     0.94286   0.09962   0.66147   0.00000  Uiso   1.00
H851   H     0.93250   0.05124   0.58602   0.00000  Uiso   1.00
H852   H     0.90322   0.10052   0.58074   0.00000  Uiso   1.00
N853   N     0.83333   0.28573   0.50000   0.00000  Uiso   1.00
N854   N     0.83333   0.04760   0.50000   0.00000  Uiso   1.00
O855   O     0.77226   0.20487   0.50000   0.00000  Uiso   1.00
O856   O     0.89441   0.12846   0.50000   0.00000  Uiso   1.00
O857   O     0.89441   0.20487   0.50000   0.00000  Uiso   1.00
O858   O     0.77226   0.12846   0.50000   0.00000  Uiso   1.00
O859   O     0.83334   0.20488   0.42845   0.00000  Uiso   1.00
O860   O     0.83333   0.12845   0.57155   0.00000  Uiso   1.00
O861   O     0.83333   0.20488   0.57155   0.00000  Uiso   1.00
O862   O     0.83334   0.12845   0.42845   0.00000  Uiso   1.00
Zn863  Zn    0.83333   0.21771   0.50000   0.00000  Uiso   1.00
Zn864  Zn    0.83333   0.11563   0.50000   0.00000  Uiso   1.00
C865   C     0.08695   0.49980   0.50010   0.00000  Uiso   1.00
C866   C     0.02335   0.52873   0.53247   0.00000  Uiso   1.00
C867   C     0.29068   0.49971   0.50069   0.00000  Uiso   1.00
C868   C     0.04276   0.49907   0.50112   0.00000  Uiso   1.00
C869   C     0.18797   0.35682   0.53789   0.00000  Uiso   1.00
C870   C     0.13946   0.64305   0.46855   0.00000  Uiso   1.00
C871   C     0.14619   0.35617   0.46176   0.00000  Uiso   1.00
C872   C     0.19404   0.64349   0.53165   0.00000  Uiso   1.00
C873   C     0.19739   0.37513   0.59118   0.00000  Uiso   1.00
C874   C     0.23844   0.40203   0.60018   0.00000  Uiso   1.00
C875   C     0.24747   0.41212   0.65632   0.00000  Uiso   1.00
C876   C     0.24640   0.50003   0.50029   0.00000  Uiso   1.00
C877   C     0.10058   0.62156   0.44339   0.00000  Uiso   1.00
C878   C     0.06437   0.62030   0.47955   0.00000  Uiso   1.00
C879   C     0.04085   0.66388   0.48329   0.00000  Uiso   1.00
C880   C     0.14110   0.37287   0.40771   0.00000  Uiso   1.00
C881   C     0.09958   0.39708   0.39478   0.00000  Uiso   1.00
C882   C     0.09275   0.40464   0.33803   0.00000  Uiso   1.00
C883   C     0.23524   0.62445   0.55356   0.00000  Uiso   1.00
C884   C     0.23237   0.59816   0.60300   0.00000  Uiso   1.00
C885   C     0.26800   0.60950   0.64201   0.00000  Uiso   1.00
C886   C     0.16649   0.50001   0.40653   0.00000  Uiso   1.00
C887   C     0.16660   0.50009   0.59346   0.00000  Uiso   1.00
C888   C     0.16645   0.50023   0.35524   0.00000  Uiso   1.00
C889   C     0.16650   0.50036   0.64474   0.00000  Uiso   1.00
C890   C     0.01987   0.46847   0.47107   0.00000  Uiso   1.00
C891   C     0.31364   0.52934   0.53183   0.00000  Uiso   1.00
C892   C     0.31014   0.46877   0.47086   0.00000  Uiso   1.00
H893   H     0.03507   0.44508   0.44733   0.00000  Uiso   1.00
H894   H     0.16965   0.39270   0.60382   0.00000  Uiso   1.00
H895   H     0.19917   0.34728   0.61823   0.00000  Uiso   1.00
H896   H     0.06275   0.35789   0.49467   0.00000  Uiso   1.00
H897   H     0.02374   0.33817   0.44672   0.00000  Uiso   1.00
H898   H     0.01724   0.66089   0.51235   0.00000  Uiso   1.00
H899   H     0.04133   0.59477   0.46574   0.00000  Uiso   1.00
H900   H     0.07658   0.61128   0.51822   0.00000  Uiso   1.00
H901   H     0.08934   0.63811   0.40806   0.00000  Uiso   1.00
H902   H     0.10802   0.58793   0.43084   0.00000  Uiso   1.00
H903   H     0.11912   0.42400   0.65718   0.00000  Uiso   1.00
H904   H     0.29852   0.55216   0.55611   0.00000  Uiso   1.00
H905   H     0.09033   0.37256   0.65092   0.00000  Uiso   1.00
H906   H     0.06314   0.42322   0.66345   0.00000  Uiso   1.00
H907   H     0.07267   0.37770   0.40698   0.00000  Uiso   1.00
H908   H     0.09897   0.42924   0.41419   0.00000  Uiso   1.00
H909   H     0.16905   0.39208   0.39819   0.00000  Uiso   1.00
H910   H     0.14300   0.34439   0.38132   0.00000  Uiso   1.00
H911   H     0.29903   0.60334   0.62633   0.00000  Uiso   1.00
H912   H     0.26634   0.64458   0.65339   0.00000  Uiso   1.00
H913   H     0.26525   0.58869   0.34277   0.00000  Uiso   1.00
H914   H     0.20188   0.60392   0.62021   0.00000  Uiso   1.00
H915   H     0.29206   0.44559   0.44700   0.00000  Uiso   1.00
H916   H     0.23537   0.56252   0.59486   0.00000  Uiso   1.00
H917   H     0.25069   0.60586   0.52427   0.00000  Uiso   1.00
H918   H     0.25829   0.65148   0.55985   0.00000  Uiso   1.00
H919   H     0.04142   0.55115   0.55723   0.00000  Uiso   1.00
H920   H     0.22082   0.43013   0.33834   0.00000  Uiso   1.00
H921   H     0.25249   0.38136   0.34499   0.00000  Uiso   1.00
H922   H     0.27619   0.43295   0.66147   0.00000  Uiso   1.00
H923   H     0.26583   0.38457   0.58602   0.00000  Uiso   1.00
H924   H     0.23656   0.43385   0.58074   0.00000  Uiso   1.00
N925   N     0.16667   0.61907   0.50000   0.00000  Uiso   1.00
N926   N     0.16667   0.38093   0.50000   0.00000  Uiso   1.00
O927   O     0.10559   0.53821   0.50000   0.00000  Uiso   1.00
O928   O     0.22774   0.46179   0.50000   0.00000  Uiso   1.00
O929   O     0.22774   0.53821   0.50000   0.00000  Uiso   1.00
O930   O     0.10559   0.46179   0.50000   0.00000  Uiso   1.00
O931   O     0.16667   0.53821   0.42845   0.00000  Uiso   1.00
O932   O     0.16666   0.46179   0.57155   0.00000  Uiso   1.00
O933   O     0.16666   0.53821   0.57155   0.00000  Uiso   1.00
O934   O     0.16667   0.46179   0.42845   0.00000  Uiso   1.00
Zn935  Zn    0.16667   0.55104   0.50000   0.00000  Uiso   1.00
Zn936  Zn    0.16667   0.44896   0.50000   0.00000  Uiso   1.00
C937   C     0.42029   0.49980   0.50010   0.00000  Uiso   1.00
C938   C     0.35668   0.52873   0.53247   0.00000  Uiso   1.00
C939   C     0.62401   0.49971   0.50069   0.00000  Uiso   1.00
C940   C     0.37609   0.49907   0.50112   0.00000  Uiso   1.00
C941   C     0.52130   0.35682   0.53789   0.00000  Uiso   1.00
C942   C     0.47279   0.64305   0.46855   0.00000  Uiso   1.00
C943   C     0.47952   0.35617   0.46176   0.00000  Uiso   1.00
C944   C     0.52737   0.64349   0.53165   0.00000  Uiso   1.00
C945   C     0.53072   0.37513   0.59118   0.00000  Uiso   1.00
C946   C     0.57178   0.40203   0.60018   0.00000  Uiso   1.00
C947   C     0.58080   0.41212   0.65632   0.00000  Uiso   1.00
C948   C     0.57974   0.50003   0.50029   0.00000  Uiso   1.00
C949   C     0.43392   0.62156   0.44339   0.00000  Uiso   1.00
C950   C     0.39771   0.62030   0.47955   0.00000  Uiso   1.00
C951   C     0.37419   0.66388   0.48329   0.00000  Uiso   1.00
C952   C     0.47444   0.37287   0.40771   0.00000  Uiso   1.00
C953   C     0.43292   0.39708   0.39478   0.00000  Uiso   1.00
C954   C     0.42608   0.40464   0.33803   0.00000  Uiso   1.00
C955   C     0.56858   0.62445   0.55356   0.00000  Uiso   1.00
C956   C     0.56571   0.59816   0.60300   0.00000  Uiso   1.00
C957   C     0.60134   0.60950   0.64201   0.00000  Uiso   1.00
C958   C     0.49982   0.50001   0.40653   0.00000  Uiso   1.00
C959   C     0.49993   0.50009   0.59346   0.00000  Uiso   1.00
C960   C     0.49979   0.50023   0.35524   0.00000  Uiso   1.00
C961   C     0.49984   0.50036   0.64474   0.00000  Uiso   1.00
C962   C     0.35320   0.46847   0.47107   0.00000  Uiso   1.00
C963   C     0.64697   0.52934   0.53183   0.00000  Uiso   1.00
C964   C     0.64347   0.46877   0.47086   0.00000  Uiso   1.00
H965   H     0.36840   0.44508   0.44733   0.00000  Uiso   1.00
H966   H     0.50298   0.39270   0.60382   0.00000  Uiso   1.00
H967   H     0.53250   0.34728   0.61823   0.00000  Uiso   1.00
H968   H     0.39609   0.35789   0.49467   0.00000  Uiso   1.00
H969   H     0.35708   0.33817   0.44672   0.00000  Uiso   1.00
H970   H     0.35057   0.66089   0.51235   0.00000  Uiso   1.00
H971   H     0.37466   0.59477   0.46574   0.00000  Uiso   1.00
H972   H     0.40992   0.61128   0.51822   0.00000  Uiso   1.00
H973   H     0.42268   0.63811   0.40806   0.00000  Uiso   1.00
H974   H     0.44135   0.58793   0.43084   0.00000  Uiso   1.00
H975   H     0.45245   0.42400   0.65718   0.00000  Uiso   1.00
H976   H     0.63185   0.55216   0.55611   0.00000  Uiso   1.00
H977   H     0.42367   0.37256   0.65092   0.00000  Uiso   1.00
H978   H     0.39647   0.42322   0.66345   0.00000  Uiso   1.00
H979   H     0.40600   0.37770   0.40698   0.00000  Uiso   1.00
H980   H     0.43231   0.42924   0.41419   0.00000  Uiso   1.00
H981   H     0.50239   0.39208   0.39819   0.00000  Uiso   1.00
H982   H     0.47633   0.34439   0.38132   0.00000  Uiso   1.00
H983   H     0.63236   0.60334   0.62633   0.00000  Uiso   1.00
H984   H     0.59967   0.64458   0.65339   0.00000  Uiso   1.00
H985   H     0.59858   0.58869   0.34277   0.00000  Uiso   1.00
H986   H     0.53521   0.60392   0.62021   0.00000  Uiso   1.00
H987   H     0.62540   0.44559   0.44700   0.00000  Uiso   1.00
H988   H     0.56870   0.56252   0.59486   0.00000  Uiso   1.00
H989   H     0.58403   0.60586   0.52427   0.00000  Uiso   1.00
H990   H     0.59163   0.65148   0.55985   0.00000  Uiso   1.00
H991   H     0.37475   0.55115   0.55723   0.00000  Uiso   1.00
H992   H     0.55416   0.43013   0.33834   0.00000  Uiso   1.00
H993   H     0.58582   0.38136   0.34499   0.00000  Uiso   1.00
H994   H     0.60952   0.43295   0.66147   0.00000  Uiso   1.00
H995   H     0.59916   0.38457   0.58602   0.00000  Uiso   1.00
H996   H     0.56989   0.43385   0.58074   0.00000  Uiso   1.00
N997   N     0.50000   0.61907   0.50000   0.00000  Uiso   1.00
N998   N     0.50000   0.38093   0.50000   0.00000  Uiso   1.00
O999   O     0.43892   0.53821   0.50000   0.00000  Uiso   1.00
O1000  O     0.56108   0.46179   0.50000   0.00000  Uiso   1.00
O1001  O     0.56108   0.53821   0.50000   0.00000  Uiso   1.00
O1002  O     0.43892   0.46179   0.50000   0.00000  Uiso   1.00
O1003  O     0.50000   0.53821   0.42845   0.00000  Uiso   1.00
O1004  O     0.50000   0.46179   0.57155   0.00000  Uiso   1.00
O1005  O     0.50000   0.53821   0.57155   0.00000  Uiso   1.00
O1006  O     0.50000   0.46179   0.42845   0.00000  Uiso   1.00
Zn1007 Zn    0.50000   0.55104   0.50000   0.00000  Uiso   1.00
Zn1008 Zn    0.50000   0.44896   0.50000   0.00000  Uiso   1.00
C1009  C     0.75362   0.49980   0.50010   0.00000  Uiso   1.00
C1010  C     0.69001   0.52873   0.53247   0.00000  Uiso   1.00
C1011  C     0.95735   0.49971   0.50069   0.00000  Uiso   1.00
C1012  C     0.70943   0.49907   0.50112   0.00000  Uiso   1.00
C1013  C     0.85464   0.35682   0.53789   0.00000  Uiso   1.00
C1014  C     0.80613   0.64305   0.46855   0.00000  Uiso   1.00
C1015  C     0.81286   0.35617   0.46176   0.00000  Uiso   1.00
C1016  C     0.86070   0.64349   0.53165   0.00000  Uiso   1.00
C1017  C     0.86405   0.37513   0.59118   0.00000  Uiso   1.00
C1018  C     0.90511   0.40203   0.60018   0.00000  Uiso   1.00
C1019  C     0.91413   0.41212   0.65632   0.00000  Uiso   1.00
C1020  C     0.91307   0.50003   0.50029   0.00000  Uiso   1.00
C1021  C     0.76725   0.62156   0.44339   0.00000  Uiso   1.00
C1022  C     0.73104   0.62030   0.47955   0.00000  Uiso   1.00
C1023  C     0.70752   0.66388   0.48329   0.00000  Uiso   1.00
C1024  C     0.80777   0.37287   0.40771   0.00000  Uiso   1.00
C1025  C     0.76625   0.39708   0.39478   0.00000  Uiso   1.00
C1026  C     0.75942   0.40464   0.33803   0.00000  Uiso   1.00
C1027  C     0.90191   0.62445   0.55356   0.00000  Uiso   1.00
C1028  C     0.89904   0.59816   0.60300   0.00000  Uiso   1.00
C1029  C     0.93467   0.60950   0.64201   0.00000  Uiso   1.00
C1030  C     0.83316   0.50001   0.40653   0.00000  Uiso   1.00
C1031  C     0.83326   0.50009   0.59346   0.00000  Uiso   1.00
C1032  C     0.83312   0.50023   0.35524   0.00000  Uiso   1.00
C1033  C     0.83317   0.50036   0.64474   0.00000  Uiso   1.00
C1034  C     0.68653   0.46847   0.47107   0.00000  Uiso   1.00
C1035  C     0.98031   0.52934   0.53183   0.00000  Uiso   1.00
C1036  C     0.97680   0.46877   0.47086   0.00000  Uiso   1.00
H1037  H     0.70174   0.44508   0.44733   0.00000  Uiso   1.00
H1038  H     0.83631   0.39270   0.60382   0.00000  Uiso   1.00
H1039  H     0.86584   0.34728   0.61823   0.00000  Uiso   1.00
H1040  H     0.72942   0.35789   0.49467   0.00000  Uiso   1.00
H1041  H     0.69041   0.33817   0.44672   0.00000  Uiso   1.00
H1042  H     0.68391   0.66089   0.51235   0.00000  Uiso   1.00
H1043  H     0.70799   0.59477   0.46574   0.00000  Uiso   1.00
H1044  H     0.74325   0.61128   0.51822   0.00000  Uiso   1.00
H1045  H     0.75601   0.63811   0.40806   0.00000  Uiso   1.00
H1046  H     0.77468   0.58793   0.43084   0.00000  Uiso   1.00
H1047  H     0.78579   0.42400   0.65718   0.00000  Uiso   1.00
H1048  H     0.96519   0.55216   0.55611   0.00000  Uiso   1.00
H1049  H     0.75700   0.37256   0.65092   0.00000  Uiso   1.00
H1050  H     0.72981   0.42322   0.66345   0.00000  Uiso   1.00
H1051  H     0.73933   0.37770   0.40698   0.00000  Uiso   1.00
H1052  H     0.76564   0.42924   0.41419   0.00000  Uiso   1.00
H1053  H     0.83572   0.39208   0.39819   0.00000  Uiso   1.00
H1054  H     0.80967   0.34439   0.38132   0.00000  Uiso   1.00
H1055  H     0.96569   0.60334   0.62633   0.00000  Uiso   1.00
H1056  H     0.93300   0.64458   0.65339   0.00000  Uiso   1.00
H1057  H     0.93192   0.58869   0.34277   0.00000  Uiso   1.00
H1058  H     0.86854   0.60392   0.62021   0.00000  Uiso   1.00
H1059  H     0.95873   0.44559   0.44700   0.00000  Uiso   1.00
H1060  H     0.90203   0.56252   0.59486   0.00000  Uiso   1.00
H1061  H     0.91736   0.60586   0.52427   0.00000  Uiso   1.00
H1062  H     0.92496   0.65148   0.55985   0.00000  Uiso   1.00
H1063  H     0.70808   0.55115   0.55723   0.00000  Uiso   1.00
H1064  H     0.88749   0.43013   0.33834   0.00000  Uiso   1.00
H1065  H     0.91916   0.38136   0.34499   0.00000  Uiso   1.00
H1066  H     0.94286   0.43295   0.66147   0.00000  Uiso   1.00
H1067  H     0.93250   0.38457   0.58602   0.00000  Uiso   1.00
H1068  H     0.90322   0.43385   0.58074   0.00000  Uiso   1.00
N1069  N     0.83333   0.61907   0.50000   0.00000  Uiso   1.00
N1070  N     0.83333   0.38093   0.50000   0.00000  Uiso   1.00
O1071  O     0.77226   0.53821   0.50000   0.00000  Uiso   1.00
O1072  O     0.89441   0.46179   0.50000   0.00000  Uiso   1.00
O1073  O     0.89441   0.53821   0.50000   0.00000  Uiso   1.00
O1074  O     0.77226   0.46179   0.50000   0.00000  Uiso   1.00
O1075  O     0.83334   0.53821   0.42845   0.00000  Uiso   1.00
O1076  O     0.83333   0.46179   0.57155   0.00000  Uiso   1.00
O1077  O     0.83333   0.53821   0.57155   0.00000  Uiso   1.00
O1078  O     0.83334   0.46179   0.42845   0.00000  Uiso   1.00
Zn1079 Zn    0.83333   0.55104   0.50000   0.00000  Uiso   1.00
Zn1080 Zn    0.83333   0.44896   0.50000   0.00000  Uiso   1.00
C1081  C     0.08695   0.83314   0.50010   0.00000  Uiso   1.00
C1082  C     0.02335   0.86206   0.53247   0.00000  Uiso   1.00
C1083  C     0.29068   0.83304   0.50069   0.00000  Uiso   1.00
C1084  C     0.04276   0.83240   0.50112   0.00000  Uiso   1.00
C1085  C     0.18797   0.69016   0.53789   0.00000  Uiso   1.00
C1086  C     0.13946   0.97638   0.46855   0.00000  Uiso   1.00
C1087  C     0.14619   0.68950   0.46176   0.00000  Uiso   1.00
C1088  C     0.19404   0.97682   0.53165   0.00000  Uiso   1.00
C1089  C     0.19739   0.70846   0.59118   0.00000  Uiso   1.00
C1090  C     0.23844   0.73536   0.60018   0.00000  Uiso   1.00
C1091  C     0.24747   0.74546   0.65632   0.00000  Uiso   1.00
C1092  C     0.24640   0.83336   0.50029   0.00000  Uiso   1.00
C1093  C     0.10058   0.95489   0.44339   0.00000  Uiso   1.00
C1094  C     0.06437   0.95363   0.47955   0.00000  Uiso   1.00
C1095  C     0.04085   0.99722   0.48329   0.00000  Uiso   1.00
C1096  C     0.14110   0.70621   0.40771   0.00000  Uiso   1.00
C1097  C     0.09958   0.73042   0.39478   0.00000  Uiso   1.00
C1098  C     0.09275   0.73798   0.33803   0.00000  Uiso   1.00
C1099  C     0.23524   0.95779   0.55356   0.00000  Uiso   1.00
C1100  C     0.23237   0.93150   0.60300   0.00000  Uiso   1.00
C1101  C     0.26800   0.94284   0.64201   0.00000  Uiso   1.00
C1102  C     0.16649   0.83334   0.40653   0.00000  Uiso   1.00
C1103  C     0.16660   0.83342   0.59346   0.00000  Uiso   1.00
C1104  C     0.16645   0.83357   0.35524   0.00000  Uiso   1.00
C1105  C     0.16650   0.83369   0.64474   0.00000  Uiso   1.00
C1106  C     0.01987   0.80180   0.47107   0.00000  Uiso   1.00
C1107  C     0.31364   0.86267   0.53183   0.00000  Uiso   1.00
C1108  C     0.31014   0.80211   0.47086   0.00000  Uiso   1.00
H1109  H     0.03507   0.77841   0.44733   0.00000  Uiso   1.00
H1110  H     0.16965   0.72603   0.60382   0.00000  Uiso   1.00
H1111  H     0.19917   0.68061   0.61823   0.00000  Uiso   1.00
H1112  H     0.06275   0.69122   0.49467   0.00000  Uiso   1.00
H1113  H     0.02374   0.67150   0.44672   0.00000  Uiso   1.00
H1114  H     0.01724   0.99422   0.51235   0.00000  Uiso   1.00
H1115  H     0.04133   0.92810   0.46574   0.00000  Uiso   1.00
H1116  H     0.07658   0.94461   0.51822   0.00000  Uiso   1.00
H1117  H     0.08934   0.97144   0.40806   0.00000  Uiso   1.00
H1118  H     0.10802   0.92127   0.43084   0.00000  Uiso   1.00
H1119  H     0.11912   0.75734   0.65718   0.00000  Uiso   1.00
H1120  H     0.29852   0.88550   0.55611   0.00000  Uiso   1.00
H1121  H     0.09033   0.70589   0.65092   0.00000  Uiso   1.00
H1122  H     0.06314   0.75656   0.66345   0.00000  Uiso   1.00
H1123  H     0.07267   0.71103   0.40698   0.00000  Uiso   1.00
H1124  H     0.09897   0.76258   0.41419   0.00000  Uiso   1.00
H1125  H     0.16905   0.72541   0.39819   0.00000  Uiso   1.00
H1126  H     0.14300   0.67773   0.38132   0.00000  Uiso   1.00
H1127  H     0.29903   0.93668   0.62633   0.00000  Uiso   1.00
H1128  H     0.26634   0.97792   0.65339   0.00000  Uiso   1.00
H1129  H     0.26525   0.92202   0.34277   0.00000  Uiso   1.00
H1130  H     0.20188   0.93726   0.62021   0.00000  Uiso   1.00
H1131  H     0.29206   0.77892   0.44700   0.00000  Uiso   1.00
H1132  H     0.23537   0.89585   0.59486   0.00000  Uiso   1.00
H1133  H     0.25069   0.93920   0.52427   0.00000  Uiso   1.00
H1134  H     0.25829   0.98482   0.55985   0.00000  Uiso   1.00
H1135  H     0.04142   0.88449   0.55723   0.00000  Uiso   1.00
H1136  H     0.22082   0.76347   0.33834   0.00000  Uiso   1.00
H1137  H     0.25249   0.71470   0.34499   0.00000  Uiso   1.00
H1138  H     0.27619   0.76628   0.66147   0.00000  Uiso   1.00
H1139  H     0.26583   0.71791   0.58602   0.00000  Uiso   1.00
H1140  H     0.23656   0.76718   0.58074   0.00000  Uiso   1.00
N1141  N     0.16667   0.95240   0.50000   0.00000  Uiso   1.00
N1142  N     0.16667   0.71427   0.50000   0.00000  Uiso   1.00
O1143  O     0.10559   0.87154   0.50000   0.00000  Uiso   1.00
O1144  O     0.22774   0.79513   0.50000   0.00000  Uiso   1.00
O1145  O     0.22774   0.87154   0.50000   0.00000  Uiso   1.00
O1146  O     0.10559   0.79513   0.50000   0.00000  Uiso   1.00
O1147  O     0.16667   0.87155   0.42845   0.00000  Uiso   1.00
O1148  O     0.16666   0.79512   0.57155   0.00000  Uiso   1.00
O1149  O     0.16666   0.87155   0.57155   0.00000  Uiso   1.00
O1150  O     0.16667   0.79512   0.42845   0.00000  Uiso   1.00
Zn1151 Zn    0.16667   0.88437   0.50000   0.00000  Uiso   1.00
Zn1152 Zn    0.16667   0.78229   0.50000   0.00000  Uiso   1.00
C1153  C     0.42029   0.83314   0.50010   0.00000  Uiso   1.00
C1154  C     0.35668   0.86206   0.53247   0.00000  Uiso   1.00
C1155  C     0.62401   0.83304   0.50069   0.00000  Uiso   1.00
C1156  C     0.37609   0.83240   0.50112   0.00000  Uiso   1.00
C1157  C     0.52130   0.69016   0.53789   0.00000  Uiso   1.00
C1158  C     0.47279   0.97638   0.46855   0.00000  Uiso   1.00
C1159  C     0.47952   0.68950   0.46176   0.00000  Uiso   1.00
C1160  C     0.52737   0.97682   0.53165   0.00000  Uiso   1.00
C1161  C     0.53072   0.70846   0.59118   0.00000  Uiso   1.00
C1162  C     0.57178   0.73536   0.60018   0.00000  Uiso   1.00
C1163  C     0.58080   0.74546   0.65632   0.00000  Uiso   1.00
C1164  C     0.57974   0.83336   0.50029   0.00000  Uiso   1.00
C1165  C     0.43392   0.95489   0.44339   0.00000  Uiso   1.00
C1166  C     0.39771   0.95363   0.47955   0.00000  Uiso   1.00
C1167  C     0.37419   0.99722   0.48329   0.00000  Uiso   1.00
C1168  C     0.47444   0.70621   0.40771   0.00000  Uiso   1.00
C1169  C     0.43292   0.73042   0.39478   0.00000  Uiso   1.00
C1170  C     0.42608   0.73798   0.33803   0.00000  Uiso   1.00
C1171  C     0.56858   0.95779   0.55356   0.00000  Uiso   1.00
C1172  C     0.56571   0.93150   0.60300   0.00000  Uiso   1.00
C1173  C     0.60134   0.94284   0.64201   0.00000  Uiso   1.00
C1174  C     0.49982   0.83334   0.40653   0.00000  Uiso   1.00
C1175  C     0.49993   0.83342   0.59346   0.00000  Uiso   1.00
C1176  C     0.49979   0.83357   0.35524   0.00000  Uiso   1.00
C1177  C     0.49984   0.83369   0.64474   0.00000  Uiso   1.00
C1178  C     0.35320   0.80180   0.47107   0.00000  Uiso   1.00
C1179  C     0.64697   0.86267   0.53183   0.00000  Uiso   1.00
C1180  C     0.64347   0.80211   0.47086   0.00000  Uiso   1.00
H1181  H     0.36840   0.77841   0.44733   0.00000  Uiso   1.00
H1182  H     0.50298   0.72603   0.60382   0.00000  Uiso   1.00
H1183  H     0.53250   0.68061   0.61823   0.00000  Uiso   1.00
H1184  H     0.39609   0.69122   0.49467   0.00000  Uiso   1.00
H1185  H     0.35708   0.67150   0.44672   0.00000  Uiso   1.00
H1186  H     0.35057   0.99422   0.51235   0.00000  Uiso   1.00
H1187  H     0.37466   0.92810   0.46574   0.00000  Uiso   1.00
H1188  H     0.40992   0.94461   0.51822   0.00000  Uiso   1.00
H1189  H     0.42268   0.97144   0.40806   0.00000  Uiso   1.00
H1190  H     0.44135   0.92127   0.43084   0.00000  Uiso   1.00
H1191  H     0.45245   0.75734   0.65718   0.00000  Uiso   1.00
H1192  H     0.63185   0.88550   0.55611   0.00000  Uiso   1.00
H1193  H     0.42367   0.70589   0.65092   0.00000  Uiso   1.00
H1194  H     0.39647   0.75656   0.66345   0.00000  Uiso   1.00
H1195  H     0.40600   0.71103   0.40698   0.00000  Uiso   1.00
H1196  H     0.43231   0.76258   0.41419   0.00000  Uiso   1.00
H1197  H     0.50239   0.72541   0.39819   0.00000  Uiso   1.00
H1198  H     0.47633   0.67773   0.38132   0.00000  Uiso   1.00
H1199  H     0.63236   0.93668   0.62633   0.00000  Uiso   1.00
H1200  H     0.59967   0.97792   0.65339   0.00000  Uiso   1.00
H1201  H     0.59858   0.92202   0.34277   0.00000  Uiso   1.00
H1202  H     0.53521   0.93726   0.62021   0.00000  Uiso   1.00
H1203  H     0.62540   0.77892   0.44700   0.00000  Uiso   1.00
H1204  H     0.56870   0.89585   0.59486   0.00000  Uiso   1.00
H1205  H     0.58403   0.93920   0.52427   0.00000  Uiso   1.00
H1206  H     0.59163   0.98482   0.55985   0.00000  Uiso   1.00
H1207  H     0.37475   0.88449   0.55723   0.00000  Uiso   1.00
H1208  H     0.55416   0.76347   0.33834   0.00000  Uiso   1.00
H1209  H     0.58582   0.71470   0.34499   0.00000  Uiso   1.00
H1210  H     0.60952   0.76628   0.66147   0.00000  Uiso   1.00
H1211  H     0.59916   0.71791   0.58602   0.00000  Uiso   1.00
H1212  H     0.56989   0.76718   0.58074   0.00000  Uiso   1.00
N1213  N     0.50000   0.95240   0.50000   0.00000  Uiso   1.00
N1214  N     0.50000   0.71427   0.50000   0.00000  Uiso   1.00
O1215  O     0.43892   0.87154   0.50000   0.00000  Uiso   1.00
O1216  O     0.56108   0.79513   0.50000   0.00000  Uiso   1.00
O1217  O     0.56108   0.87154   0.50000   0.00000  Uiso   1.00
O1218  O     0.43892   0.79513   0.50000   0.00000  Uiso   1.00
O1219  O     0.50000   0.87155   0.42845   0.00000  Uiso   1.00
O1220  O     0.50000   0.79512   0.57155   0.00000  Uiso   1.00
O1221  O     0.50000   0.87155   0.57155   0.00000  Uiso   1.00
O1222  O     0.50000   0.79512   0.42845   0.00000  Uiso   1.00
Zn1223 Zn    0.50000   0.88437   0.50000   0.00000  Uiso   1.00
Zn1224 Zn    0.50000   0.78229   0.50000   0.00000  Uiso   1.00
C1225  C     0.75362   0.83314   0.50010   0.00000  Uiso   1.00
C1226  C     0.69001   0.86206   0.53247   0.00000  Uiso   1.00
C1227  C     0.95735   0.83304   0.50069   0.00000  Uiso   1.00
C1228  C     0.70943   0.83240   0.50112   0.00000  Uiso   1.00
C1229  C     0.85464   0.69016   0.53789   0.00000  Uiso   1.00
C1230  C     0.80613   0.97638   0.46855   0.00000  Uiso   1.00
C1231  C     0.81286   0.68950   0.46176   0.00000  Uiso   1.00
C1232  C     0.86070   0.97682   0.53165   0.00000  Uiso   1.00
C1233  C     0.86405   0.70846   0.59118   0.00000  Uiso   1.00
C1234  C     0.90511   0.73536   0.60018   0.00000  Uiso   1.00
C1235  C     0.91413   0.74546   0.65632   0.00000  Uiso   1.00
C1236  C     0.91307   0.83336   0.50029   0.00000  Uiso   1.00
C1237  C     0.76725   0.95489   0.44339   0.00000  Uiso   1.00
C1238  C     0.73104   0.95363   0.47955   0.00000  Uiso   1.00
C1239  C     0.70752   0.99722   0.48329   0.00000  Uiso   1.00
C1240  C     0.80777   0.70621   0.40771   0.00000  Uiso   1.00
C1241  C     0.76625   0.73042   0.39478   0.00000  Uiso   1.00
C1242  C     0.75942   0.73798   0.33803   0.00000  Uiso   1.00
C1243  C     0.90191   0.95779   0.55356   0.00000  Uiso   1.00
C1244  C     0.89904   0.93150   0.60300   0.00000  Uiso   1.00
C1245  C     0.93467   0.94284   0.64201   0.00000  Uiso   1.00
C1246  C     0.83316   0.83334   0.40653   0.00000  Uiso   1.00
C1247  C     0.83326   0.83342   0.59346   0.00000  Uiso   1.00
C1248  C     0.83312   0.83357   0.35524   0.00000  Uiso   1.00
C1249  C     0.83317   0.83369   0.64474   0.00000  Uiso   1.00
C1250  C     0.68653   0.80180   0.47107   0.00000  Uiso   1.00
C1251  C     0.98031   0.86267   0.53183   0.00000  Uiso   1.00
C1252  C     0.97680   0.80211   0.47086   0.00000  Uiso   1.00
H1253  H     0.70174   0.77841   0.44733   0.00000  Uiso   1.00
H1254  H     0.83631   0.72603   0.60382   0.00000  Uiso   1.00
H1255  H     0.86584   0.68061   0.61823   0.00000  Uiso   1.00
H1256  H     0.72942   0.69122   0.49467   0.00000  Uiso   1.00
H1257  H     0.69041   0.67150   0.44672   0.00000  Uiso   1.00
H1258  H     0.68391   0.99422   0.51235   0.00000  Uiso   1.00
H1259  H     0.70799   0.92810   0.46574   0.00000  Uiso   1.00
H1260  H     0.74325   0.94461   0.51822   0.00000  Uiso   1.00
H1261  H     0.75601   0.97144   0.40806   0.00000  Uiso   1.00
H1262  H     0.77468   0.92127   0.43084   0.00000  Uiso   1.00
H1263  H     0.78579   0.75734   0.65718   0.00000  Uiso   1.00
H1264  H     0.96519   0.88550   0.55611   0.00000  Uiso   1.00
H1265  H     0.75700   0.70589   0.65092   0.00000  Uiso   1.00
H1266  H     0.72981   0.75656   0.66345   0.00000  Uiso   1.00
H1267  H     0.73933   0.71103   0.40698   0.00000  Uiso   1.00
H1268  H     0.76564   0.76258   0.41419   0.00000  Uiso   1.00
H1269  H     0.83572   0.72541   0.39819   0.00000  Uiso   1.00
H1270  H     0.80967   0.67773   0.38132   0.00000  Uiso   1.00
H1271  H     0.96569   0.93668   0.62633   0.00000  Uiso   1.00
H1272  H     0.93300   0.97792   0.65339   0.00000  Uiso   1.00
H1273  H     0.93192   0.92202   0.34277   0.00000  Uiso   1.00
H1274  H     0.86854   0.93726   0.62021   0.00000  Uiso   1.00
H1275  H     0.95873   0.77892   0.44700   0.00000  Uiso   1.00
H1276  H     0.90203   0.89585   0.59486   0.00000  Uiso   1.00
H1277  H     0.91736   0.93920   0.52427   0.00000  Uiso   1.00
H1278  H     0.92496   0.98482   0.55985   0.00000  Uiso   1.00
H1279  H     0.70808   0.88449   0.55723   0.00000  Uiso   1.00
H1280  H     0.88749   0.76347   0.33834   0.00000  Uiso   1.00
H1281  H     0.91916   0.71470   0.34499   0.00000  Uiso   1.00
H1282  H     0.94286   0.76628   0.66147   0.00000  Uiso   1.00
H1283  H     0.93250   0.71791   0.58602   0.00000  Uiso   1.00
H1284  H     0.90322   0.76718   0.58074   0.00000  Uiso   1.00
N1285  N     0.83333   0.95240   0.50000   0.00000  Uiso   1.00
N1286  N     0.83333   0.71427   0.50000   0.00000  Uiso   1.00
O1287  O     0.77226   0.87154   0.50000   0.00000  Uiso   1.00
O1288  O     0.89441   0.79513   0.50000   0.00000  Uiso   1.00
O1289  O     0.89441   0.87154   0.50000   0.00000  Uiso   1.00
O1290  O     0.77226   0.79513   0.50000   0.00000  Uiso   1.00
O1291  O     0.83334   0.87155   0.42845   0.00000  Uiso   1.00
O1292  O     0.83333   0.79512   0.57155   0.00000  Uiso   1.00
O1293  O     0.83333   0.87155   0.57155   0.00000  Uiso   1.00
O1294  O     0.83334   0.79512   0.42845   0.00000  Uiso   1.00
Zn1295 Zn    0.83333   0.88437   0.50000   0.00000  Uiso   1.00
Zn1296 Zn    0.83333   0.78229   0.50000   0.00000  Uiso   1.00
C1297  C     0.08695   0.16647   0.83343   0.00000  Uiso   1.00
C1298  C     0.02335   0.19539   0.86580   0.00000  Uiso   1.00
C1299  C     0.29068   0.16638   0.83403   0.00000  Uiso   1.00
C1300  C     0.04276   0.16574   0.83445   0.00000  Uiso   1.00
C1301  C     0.18797   0.02349   0.87123   0.00000  Uiso   1.00
C1302  C     0.13946   0.30972   0.80189   0.00000  Uiso   1.00
C1303  C     0.14619   0.02284   0.79510   0.00000  Uiso   1.00
C1304  C     0.19404   0.31016   0.86499   0.00000  Uiso   1.00
C1305  C     0.19739   0.04180   0.92452   0.00000  Uiso   1.00
C1306  C     0.23844   0.06870   0.93351   0.00000  Uiso   1.00
C1307  C     0.24747   0.07879   0.98966   0.00000  Uiso   1.00
C1308  C     0.24640   0.16669   0.83363   0.00000  Uiso   1.00
C1309  C     0.10058   0.28822   0.77672   0.00000  Uiso   1.00
C1310  C     0.06437   0.28696   0.81288   0.00000  Uiso   1.00
C1311  C     0.04085   0.33055   0.81662   0.00000  Uiso   1.00
C1312  C     0.14110   0.03954   0.74104   0.00000  Uiso   1.00
C1313  C     0.09958   0.06375   0.72811   0.00000  Uiso   1.00
C1314  C     0.09275   0.07131   0.67136   0.00000  Uiso   1.00
C1315  C     0.23524   0.29112   0.88690   0.00000  Uiso   1.00
C1316  C     0.23237   0.26483   0.93634   0.00000  Uiso   1.00
C1317  C     0.26800   0.27617   0.97534   0.00000  Uiso   1.00
C1318  C     0.16649   0.16667   0.73986   0.00000  Uiso   1.00
C1319  C     0.16660   0.16675   0.92679   0.00000  Uiso   1.00
C1320  C     0.16645   0.16690   0.68857   0.00000  Uiso   1.00
C1321  C     0.16650   0.16703   0.97807   0.00000  Uiso   1.00
C1322  C     0.01987   0.13514   0.80440   0.00000  Uiso   1.00
C1323  C     0.31364   0.19600   0.86517   0.00000  Uiso   1.00
C1324  C     0.31014   0.13544   0.80419   0.00000  Uiso   1.00
H1325  H     0.03507   0.11175   0.78066   0.00000  Uiso   1.00
H1326  H     0.16965   0.05936   0.93715   0.00000  Uiso   1.00
H1327  H     0.19917   0.01394   0.95156   0.00000  Uiso   1.00
H1328  H     0.06275   0.02455   0.82800   0.00000  Uiso   1.00
H1329  H     0.02374   0.00483   0.78006   0.00000  Uiso   1.00
H1330  H     0.01724   0.32756   0.84568   0.00000  Uiso   1.00
H1331  H     0.04133   0.26143   0.79907   0.00000  Uiso   1.00
H1332  H     0.07658   0.27795   0.85155   0.00000  Uiso   1.00
H1333  H     0.08934   0.30478   0.74139   0.00000  Uiso   1.00
H1334  H     0.10802   0.25460   0.76417   0.00000  Uiso   1.00
H1335  H     0.11912   0.09067   0.99051   0.00000  Uiso   1.00
H1336  H     0.29852   0.21883   0.88944   0.00000  Uiso   1.00
H1337  H     0.09033   0.03922   0.98426   0.00000  Uiso   1.00
H1338  H     0.06314   0.08989   0.99678   0.00000  Uiso   1.00
H1339  H     0.07267   0.04437   0.74032   0.00000  Uiso   1.00
H1340  H     0.09897   0.09591   0.74752   0.00000  Uiso   1.00
H1341  H     0.16905   0.05875   0.73152   0.00000  Uiso   1.00
H1342  H     0.14300   0.01106   0.71466   0.00000  Uiso   1.00
H1343  H     0.29903   0.27001   0.95967   0.00000  Uiso   1.00
H1344  H     0.26634   0.31125   0.98672   0.00000  Uiso   1.00
H1345  H     0.26525   0.25535   0.67610   0.00000  Uiso   1.00
H1346  H     0.20188   0.27059   0.95355   0.00000  Uiso   1.00
H1347  H     0.29206   0.11226   0.78034   0.00000  Uiso   1.00
H1348  H     0.23537   0.22919   0.92819   0.00000  Uiso   1.00
H1349  H     0.25069   0.27253   0.85760   0.00000  Uiso   1.00
H1350  H     0.25829   0.31815   0.89319   0.00000  Uiso   1.00
H1351  H     0.04142   0.21782   0.89056   0.00000  Uiso   1.00
H1352  H     0.22082   0.09680   0.67167   0.00000  Uiso   1.00
H1353  H     0.25249   0.04803   0.67832   0.00000  Uiso   1.00
H1354  H     0.27619   0.09962   0.99480   0.00000  Uiso   1.00
H1355  H     0.26583   0.05124   0.91935   0.00000  Uiso   1.00
H1356  H     0.23656   0.10052   0.91407   0.00000  Uiso   1.00
N1357  N     0.16667   0.28573   0.83333   0.00000  Uiso   1.00
N1358  N     0.16667   0.04760   0.83333   0.00000  Uiso   1.00
O1359  O     0.10559   0.20487   0.83333   0.00000  Uiso   1.00
O1360  O     0.22774   0.12846   0.83334   0.00000  Uiso   1.00
O1361  O     0.22774   0.20487   0.83334   0.00000  Uiso   1.00
O1362  O     0.10559   0.12846   0.83333   0.00000  Uiso   1.00
O1363  O     0.16667   0.20488   0.76178   0.00000  Uiso   1.00
O1364  O     0.16666   0.12845   0.90489   0.00000  Uiso   1.00
O1365  O     0.16666   0.20488   0.90489   0.00000  Uiso   1.00
O1366  O     0.16667   0.12845   0.76178   0.00000  Uiso   1.00
Zn1367 Zn    0.16667   0.21771   0.83333   0.00000  Uiso   1.00
Zn1368 Zn    0.16667   0.11563   0.83333   0.00000  Uiso   1.00
C1369  C     0.42029   0.16647   0.83343   0.00000  Uiso   1.00
C1370  C     0.35668   0.19539   0.86580   0.00000  Uiso   1.00
C1371  C     0.62401   0.16638   0.83403   0.00000  Uiso   1.00
C1372  C     0.37609   0.16574   0.83445   0.00000  Uiso   1.00
C1373  C     0.52130   0.02349   0.87123   0.00000  Uiso   1.00
C1374  C     0.47279   0.30972   0.80189   0.00000  Uiso   1.00
C1375  C     0.47952   0.02284   0.79510   0.00000  Uiso   1.00
C1376  C     0.52737   0.31016   0.86499   0.00000  Uiso   1.00
C1377  C     0.53072   0.04180   0.92452   0.00000  Uiso   1.00
C1378  C     0.57178   0.06870   0.93351   0.00000  Uiso   1.00
C1379  C     0.58080   0.07879   0.98966   0.00000  Uiso   1.00
C1380  C     0.57974   0.16669   0.83363   0.00000  Uiso   1.00
C1381  C     0.43392   0.28822   0.77672   0.00000  Uiso   1.00
C1382  C     0.39771   0.28696   0.81288   0.00000  Uiso   1.00
C1383  C     0.37419   0.33055   0.81662   0.00000  Uiso   1.00
C1384  C     0.47444   0.03954   0.74104   0.00000  Uiso   1.00
C1385  C     0.43292   0.06375   0.72811   0.00000  Uiso   1.00
C1386  C     0.42608   0.07131   0.67136   0.00000  Uiso   1.00
C1387  C     0.56858   0.29112   0.88690   0.00000  Uiso   1.00
C1388  C     0.56571   0.26483   0.93634   0.00000  Uiso   1.00
C1389  C     0.60134   0.27617   0.97534   0.00000  Uiso   1.00
C1390  C     0.49982   0.16667   0.73986   0.00000  Uiso   1.00
C1391  C     0.49993   0.16675   0.92679   0.00000  Uiso   1.00
C1392  C     0.49979   0.16690   0.68857   0.00000  Uiso   1.00
C1393  C     0.49984   0.16703   0.97807   0.00000  Uiso   1.00
C1394  C     0.35320   0.13514   0.80440   0.00000  Uiso   1.00
C1395  C     0.64697   0.19600   0.86517   0.00000  Uiso   1.00
C1396  C     0.64347   0.13544   0.80419   0.00000  Uiso   1.00
H1397  H     0.36840   0.11175   0.78066   0.00000  Uiso   1.00
H1398  H     0.50298   0.05936   0.93715   0.00000  Uiso   1.00
H1399  H     0.53250   0.01394   0.95156   0.00000  Uiso   1.00
H1400  H     0.39609   0.02455   0.82800   0.00000  Uiso   1.00
H1401  H     0.35708   0.00483   0.78006   0.00000  Uiso   1.00
H1402  H     0.35057   0.32756   0.84568   0.00000  Uiso   1.00
H1403  H     0.37466   0.26143   0.79907   0.00000  Uiso   1.00
H1404  H     0.40992   0.27795   0.85155   0.00000  Uiso   1.00
H1405  H     0.42268   0.30478   0.74139   0.00000  Uiso   1.00
H1406  H     0.44135   0.25460   0.76417   0.00000  Uiso   1.00
H1407  H     0.45245   0.09067   0.99051   0.00000  Uiso   1.00
H1408  H     0.63185   0.21883   0.88944   0.00000  Uiso   1.00
H1409  H     0.42367   0.03922   0.98426   0.00000  Uiso   1.00
H1410  H     0.39647   0.08989   0.99678   0.00000  Uiso   1.00
H1411  H     0.40600   0.04437   0.74032   0.00000  Uiso   1.00
H1412  H     0.43231   0.09591   0.74752   0.00000  Uiso   1.00
H1413  H     0.50239   0.05875   0.73152   0.00000  Uiso   1.00
H1414  H     0.47633   0.01106   0.71466   0.00000  Uiso   1.00
H1415  H     0.63236   0.27001   0.95967   0.00000  Uiso   1.00
H1416  H     0.59967   0.31125   0.98672   0.00000  Uiso   1.00
H1417  H     0.59858   0.25535   0.67610   0.00000  Uiso   1.00
H1418  H     0.53521   0.27059   0.95355   0.00000  Uiso   1.00
H1419  H     0.62540   0.11226   0.78034   0.00000  Uiso   1.00
H1420  H     0.56870   0.22919   0.92819   0.00000  Uiso   1.00
H1421  H     0.58403   0.27253   0.85760   0.00000  Uiso   1.00
H1422  H     0.59163   0.31815   0.89319   0.00000  Uiso   1.00
H1423  H     0.37475   0.21782   0.89056   0.00000  Uiso   1.00
H1424  H     0.55416   0.09680   0.67167   0.00000  Uiso   1.00
H1425  H     0.58582   0.04803   0.67832   0.00000  Uiso   1.00
H1426  H     0.60952   0.09962   0.99480   0.00000  Uiso   1.00
H1427  H     0.59916   0.05124   0.91935   0.00000  Uiso   1.00
H1428  H     0.56989   0.10052   0.91407   0.00000  Uiso   1.00
N1429  N     0.50000   0.28573   0.83333   0.00000  Uiso   1.00
N1430  N     0.50000   0.04760   0.83333   0.00000  Uiso   1.00
O1431  O     0.43892   0.20487   0.83333   0.00000  Uiso   1.00
O1432  O     0.56108   0.12846   0.83334   0.00000  Uiso   1.00
O1433  O     0.56108   0.20487   0.83334   0.00000  Uiso   1.00
O1434  O     0.43892   0.12846   0.83333   0.00000  Uiso   1.00
O1435  O     0.50000   0.20488   0.76178   0.00000  Uiso   1.00
O1436  O     0.50000   0.12845   0.90489   0.00000  Uiso   1.00
O1437  O     0.50000   0.20488   0.90489   0.00000  Uiso   1.00
O1438  O     0.50000   0.12845   0.76178   0.00000  Uiso   1.00
Zn1439 Zn    0.50000   0.21771   0.83333   0.00000  Uiso   1.00
Zn1440 Zn    0.50000   0.11563   0.83333   0.00000  Uiso   1.00
C1441  C     0.75362   0.16647   0.83343   0.00000  Uiso   1.00
C1442  C     0.69001   0.19539   0.86580   0.00000  Uiso   1.00
C1443  C     0.95735   0.16638   0.83403   0.00000  Uiso   1.00
C1444  C     0.70943   0.16574   0.83445   0.00000  Uiso   1.00
C1445  C     0.85464   0.02349   0.87123   0.00000  Uiso   1.00
C1446  C     0.80613   0.30972   0.80189   0.00000  Uiso   1.00
C1447  C     0.81286   0.02284   0.79510   0.00000  Uiso   1.00
C1448  C     0.86070   0.31016   0.86499   0.00000  Uiso   1.00
C1449  C     0.86405   0.04180   0.92452   0.00000  Uiso   1.00
C1450  C     0.90511   0.06870   0.93351   0.00000  Uiso   1.00
C1451  C     0.91413   0.07879   0.98966   0.00000  Uiso   1.00
C1452  C     0.91307   0.16669   0.83363   0.00000  Uiso   1.00
C1453  C     0.76725   0.28822   0.77672   0.00000  Uiso   1.00
C1454  C     0.73104   0.28696   0.81288   0.00000  Uiso   1.00
C1455  C     0.70752   0.33055   0.81662   0.00000  Uiso   1.00
C1456  C     0.80777   0.03954   0.74104   0.00000  Uiso   1.00
C1457  C     0.76625   0.06375   0.72811   0.00000  Uiso   1.00
C1458  C     0.75942   0.07131   0.67136   0.00000  Uiso   1.00
C1459  C     0.90191   0.29112   0.88690   0.00000  Uiso   1.00
C1460  C     0.89904   0.26483   0.93634   0.00000  Uiso   1.00
C1461  C     0.93467   0.27617   0.97534   0.00000  Uiso   1.00
C1462  C     0.83316   0.16667   0.73986   0.00000  Uiso   1.00
C1463  C     0.83326   0.16675   0.92679   0.00000  Uiso   1.00
C1464  C     0.83312   0.16690   0.68857   0.00000  Uiso   1.00
C1465  C     0.83317   0.16703   0.97807   0.00000  Uiso   1.00
C1466  C     0.68653   0.13514   0.80440   0.00000  Uiso   1.00
C1467  C     0.98031   0.19600   0.86517   0.00000  Uiso   1.00
C1468  C     0.97680   0.13544   0.80419   0.00000  Uiso   1.00
H1469  H     0.70174   0.11175   0.78066   0.00000  Uiso   1.00
H1470  H     0.83631   0.05936   0.93715   0.00000  Uiso   1.00
H1471  H     0.86584   0.01394   0.95156   0.00000  Uiso   1.00
H1472  H     0.72942   0.02455   0.82800   0.00000  Uiso   1.00
H1473  H     0.69041   0.00483   0.78006   0.00000  Uiso   1.00
H1474  H     0.68391   0.32756   0.84568   0.00000  Uiso   1.00
H1475  H     0.70799   0.26143   0.79907   0.00000  Uiso   1.00
H1476  H     0.74325   0.27795   0.85155   0.00000  Uiso   1.00
H1477  H     0.75601   0.30478   0.74139   0.00000  Uiso   1.00
H1478  H     0.77468   0.25460   0.76417   0.00000  Uiso   1.00
H1479  H     0.78579   0.09067   0.99051   0.00000  Uiso   1.00
H1480  H     0.96519   0.21883   0.88944   0.00000  Uiso   1.00
H1481  H     0.75700   0.03922   0.98426   0.00000  Uiso   1.00
H1482  H     0.72981   0.08989   0.99678   0.00000  Uiso   1.00
H1483  H     0.73933   0.04437   0.74032   0.00000  Uiso   1.00
H1484  H     0.76564   0.09591   0.74752   0.00000  Uiso   1.00
H1485  H     0.83572   0.05875   0.73152   0.00000  Uiso   1.00
H1486  H     0.80967   0.01106   0.71466   0.00000  Uiso   1.00
H1487  H     0.96569   0.27001   0.95967   0.00000  Uiso   1.00
H1488  H     0.93300   0.31125   0.98672   0.00000  Uiso   1.00
H1489  H     0.93192   0.25535   0.67610   0.00000  Uiso   1.00
H1490  H     0.86854   0.27059   0.95355   0.00000  Uiso   1.00
H1491  H     0.95873   0.11226   0.78034   0.00000  Uiso   1.00
H1492  H     0.90203   0.22919   0.92819   0.00000  Uiso   1.00
H1493  H     0.91736   0.27253   0.85760   0.00000  Uiso   1.00
H1494  H     0.92496   0.31815   0.89319   0.00000  Uiso   1.00
H1495  H     0.70808   0.21782   0.89056   0.00000  Uiso   1.00
H1496  H     0.88749   0.09680   0.67167   0.00000  Uiso   1.00
H1497  H     0.91916   0.04803   0.67832   0.00000  Uiso   1.00
H1498  H     0.94286   0.09962   0.99480   0.00000  Uiso   1.00
H1499  H     0.93250   0.05124   0.91935   0.00000  Uiso   1.00
H1500  H     0.90322   0.10052   0.91407   0.00000  Uiso   1.00
N1501  N     0.83333   0.28573   0.83333   0.00000  Uiso   1.00
N1502  N     0.83333   0.04760   0.83333   0.00000  Uiso   1.00
O1503  O     0.77226   0.20487   0.83333   0.00000  Uiso   1.00
O1504  O     0.89441   0.12846   0.83334   0.00000  Uiso   1.00
O1505  O     0.89441   0.20487   0.83334   0.00000  Uiso   1.00
O1506  O     0.77226   0.12846   0.83333   0.00000  Uiso   1.00
O1507  O     0.83334   0.20488   0.76178   0.00000  Uiso   1.00
O1508  O     0.83333   0.12845   0.90489   0.00000  Uiso   1.00
O1509  O     0.83333   0.20488   0.90489   0.00000  Uiso   1.00
O1510  O     0.83334   0.12845   0.76178   0.00000  Uiso   1.00
Zn1511 Zn    0.83333   0.21771   0.83333   0.00000  Uiso   1.00
Zn1512 Zn    0.83333   0.11563   0.83333   0.00000  Uiso   1.00
C1513  C     0.08695   0.49980   0.83343   0.00000  Uiso   1.00
C1514  C     0.02335   0.52873   0.86580   0.00000  Uiso   1.00
C1515  C     0.29068   0.49971   0.83403   0.00000  Uiso   1.00
C1516  C     0.04276   0.49907   0.83445   0.00000  Uiso   1.00
C1517  C     0.18797   0.35682   0.87123   0.00000  Uiso   1.00
C1518  C     0.13946   0.64305   0.80189   0.00000  Uiso   1.00
C1519  C     0.14619   0.35617   0.79510   0.00000  Uiso   1.00
C1520  C     0.19404   0.64349   0.86499   0.00000  Uiso   1.00
C1521  C     0.19739   0.37513   0.92452   0.00000  Uiso   1.00
C1522  C     0.23844   0.40203   0.93351   0.00000  Uiso   1.00
C1523  C     0.24747   0.41212   0.98966   0.00000  Uiso   1.00
C1524  C     0.24640   0.50003   0.83363   0.00000  Uiso   1.00
C1525  C     0.10058   0.62156   0.77672   0.00000  Uiso   1.00
C1526  C     0.06437   0.62030   0.81288   0.00000  Uiso   1.00
C1527  C     0.04085   0.66388   0.81662   0.00000  Uiso   1.00
C1528  C     0.14110   0.37287   0.74104   0.00000  Uiso   1.00
C1529  C     0.09958   0.39708   0.72811   0.00000  Uiso   1.00
C1530  C     0.09275   0.40464   0.67136   0.00000  Uiso   1.00
C1531  C     0.23524   0.62445   0.88690   0.00000  Uiso   1.00
C1532  C     0.23237   0.59816   0.93634   0.00000  Uiso   1.00
C1533  C     0.26800   0.60950   0.97534   0.00000  Uiso   1.00
C1534  C     0.16649   0.50001   0.73986   0.00000  Uiso   1.00
C1535  C     0.16660   0.50009   0.92679   0.00000  Uiso   1.00
C1536  C     0.16645   0.50023   0.68857   0.00000  Uiso   1.00
C1537  C     0.16650   0.50036   0.97807   0.00000  Uiso   1.00
C1538  C     0.01987   0.46847   0.80440   0.00000  Uiso   1.00
C1539  C     0.31364   0.52934   0.86517   0.00000  Uiso   1.00
C1540  C     0.31014   0.46877   0.80419   0.00000  Uiso   1.00
H1541  H     0.03507   0.44508   0.78066   0.00000  Uiso   1.00
H1542  H     0.16965   0.39270   0.93715   0.00000  Uiso   1.00
H1543  H     0.19917   0.34728   0.95156   0.00000  Uiso   1.00
H1544  H     0.06275   0.35789   0.82800   0.00000  Uiso   1.00
H1545  H     0.02374   0.33817   0.78006   0.00000  Uiso   1.00
H1546  H     0.01724   0.66089   0.84568   0.00000  Uiso   1.00
H1547  H     0.04133   0.59477   0.79907   0.00000  Uiso   1.00
H1548  H     0.07658   0.61128   0.85155   0.00000  Uiso   1.00
H1549  H     0.08934   0.63811   0.74139   0.00000  Uiso   1.00
H1550  H     0.10802   0.58793   0.76417   0.00000  Uiso   1.00
H1551  H     0.11912   0.42400   0.99051   0.00000  Uiso   1.00
H1552  H     0.29852   0.55216   0.88944   0.00000  Uiso   1.00
H1553  H     0.09033   0.37256   0.98426   0.00000  Uiso   1.00
H1554  H     0.06314   0.42322   0.99678   0.00000  Uiso   1.00
H1555  H     0.07267   0.37770   0.74032   0.00000  Uiso   1.00
H1556  H     0.09897   0.42924   0.74752   0.00000  Uiso   1.00
H1557  H     0.16905   0.39208   0.73152   0.00000  Uiso   1.00
H1558  H     0.14300   0.34439   0.71466   0.00000  Uiso   1.00
H1559  H     0.29903   0.60334   0.95967   0.00000  Uiso   1.00
H1560  H     0.26634   0.64458   0.98672   0.00000  Uiso   1.00
H1561  H     0.26525   0.58869   0.67610   0.00000  Uiso   1.00
H1562  H     0.20188   0.60392   0.95355   0.00000  Uiso   1.00
H1563  H     0.29206   0.44559   0.78034   0.00000  Uiso   1.00
H1564  H     0.23537   0.56252   0.92819   0.00000  Uiso   1.00
H1565  H     0.25069   0.60586   0.85760   0.00000  Uiso   1.00
H1566  H     0.25829   0.65148   0.89319   0.00000  Uiso   1.00
H1567  H     0.04142   0.55115   0.89056   0.00000  Uiso   1.00
H1568  H     0.22082   0.43013   0.67167   0.00000  Uiso   1.00
H1569  H     0.25249   0.38136   0.67832   0.00000  Uiso   1.00
H1570  H     0.27619   0.43295   0.99480   0.00000  Uiso   1.00
H1571  H     0.26583   0.38457   0.91935   0.00000  Uiso   1.00
H1572  H     0.23656   0.43385   0.91407   0.00000  Uiso   1.00
N1573  N     0.16667   0.61907   0.83333   0.00000  Uiso   1.00
N1574  N     0.16667   0.38093   0.83333   0.00000  Uiso   1.00
O1575  O     0.10559   0.53821   0.83333   0.00000  Uiso   1.00
O1576  O     0.22774   0.46179   0.83334   0.00000  Uiso   1.00
O1577  O     0.22774   0.53821   0.83334   0.00000  Uiso   1.00
O1578  O     0.10559   0.46179   0.83333   0.00000  Uiso   1.00
O1579  O     0.16667   0.53821   0.76178   0.00000  Uiso   1.00
O1580  O     0.16666   0.46179   0.90489   0.00000  Uiso   1.00
O1581  O     0.16666   0.53821   0.90489   0.00000  Uiso   1.00
O1582  O     0.16667   0.46179   0.76178   0.00000  Uiso   1.00
Zn1583 Zn    0.16667   0.55104   0.83333   0.00000  Uiso   1.00
Zn1584 Zn    0.16667   0.44896   0.83333   0.00000  Uiso   1.00
C1585  C     0.42029   0.49980   0.83343   0.00000  Uiso   1.00
C1586  C     0.35668   0.52873   0.86580   0.00000  Uiso   1.00
C1587  C     0.62401   0.49971   0.83403   0.00000  Uiso   1.00
C1588  C     0.37609   0.49907   0.83445   0.00000  Uiso   1.00
C1589  C     0.52130   0.35682   0.87123   0.00000  Uiso   1.00
C1590  C     0.47279   0.64305   0.80189   0.00000  Uiso   1.00
C1591  C     0.47952   0.35617   0.79510   0.00000  Uiso   1.00
C1592  C     0.52737   0.64349   0.86499   0.00000  Uiso   1.00
C1593  C     0.53072   0.37513   0.92452   0.00000  Uiso   1.00
C1594  C     0.57178   0.40203   0.93351   0.00000  Uiso   1.00
C1595  C     0.58080   0.41212   0.98966   0.00000  Uiso   1.00
C1596  C     0.57974   0.50003   0.83363   0.00000  Uiso   1.00
C1597  C     0.43392   0.62156   0.77672   0.00000  Uiso   1.00
C1598  C     0.39771   0.62030   0.81288   0.00000  Uiso   1.00
C1599  C     0.37419   0.66388   0.81662   0.00000  Uiso   1.00
C1600  C     0.47444   0.37287   0.74104   0.00000  Uiso   1.00
C1601  C     0.43292   0.39708   0.72811   0.00000  Uiso   1.00
C1602  C     0.42608   0.40464   0.67136   0.00000  Uiso   1.00
C1603  C     0.56858   0.62445   0.88690   0.00000  Uiso   1.00
C1604  C     0.56571   0.59816   0.93634   0.00000  Uiso   1.00
C1605  C     0.60134   0.60950   0.97534   0.00000  Uiso   1.00
C1606  C     0.49982   0.50001   0.73986   0.00000  Uiso   1.00
C1607  C     0.49993   0.50009   0.92679   0.00000  Uiso   1.00
C1608  C     0.49979   0.50023   0.68857   0.00000  Uiso   1.00
C1609  C     0.49984   0.50036   0.97807   0.00000  Uiso   1.00
C1610  C     0.35320   0.46847   0.80440   0.00000  Uiso   1.00
C1611  C     0.64697   0.52934   0.86517   0.00000  Uiso   1.00
C1612  C     0.64347   0.46877   0.80419   0.00000  Uiso   1.00
H1613  H     0.36840   0.44508   0.78066   0.00000  Uiso   1.00
H1614  H     0.50298   0.39270   0.93715   0.00000  Uiso   1.00
H1615  H     0.53250   0.34728   0.95156   0.00000  Uiso   1.00
H1616  H     0.39609   0.35789   0.82800   0.00000  Uiso   1.00
H1617  H     0.35708   0.33817   0.78006   0.00000  Uiso   1.00
H1618  H     0.35057   0.66089   0.84568   0.00000  Uiso   1.00
H1619  H     0.37466   0.59477   0.79907   0.00000  Uiso   1.00
H1620  H     0.40992   0.61128   0.85155   0.00000  Uiso   1.00
H1621  H     0.42268   0.63811   0.74139   0.00000  Uiso   1.00
H1622  H     0.44135   0.58793   0.76417   0.00000  Uiso   1.00
H1623  H     0.45245   0.42400   0.99051   0.00000  Uiso   1.00
H1624  H     0.63185   0.55216   0.88944   0.00000  Uiso   1.00
H1625  H     0.42367   0.37256   0.98426   0.00000  Uiso   1.00
H1626  H     0.39647   0.42322   0.99678   0.00000  Uiso   1.00
H1627  H     0.40600   0.37770   0.74032   0.00000  Uiso   1.00
H1628  H     0.43231   0.42924   0.74752   0.00000  Uiso   1.00
H1629  H     0.50239   0.39208   0.73152   0.00000  Uiso   1.00
H1630  H     0.47633   0.34439   0.71466   0.00000  Uiso   1.00
H1631  H     0.63236   0.60334   0.95967   0.00000  Uiso   1.00
H1632  H     0.59967   0.64458   0.98672   0.00000  Uiso   1.00
H1633  H     0.59858   0.58869   0.67610   0.00000  Uiso   1.00
H1634  H     0.53521   0.60392   0.95355   0.00000  Uiso   1.00
H1635  H     0.62540   0.44559   0.78034   0.00000  Uiso   1.00
H1636  H     0.56870   0.56252   0.92819   0.00000  Uiso   1.00
H1637  H     0.58403   0.60586   0.85760   0.00000  Uiso   1.00
H1638  H     0.59163   0.65148   0.89319   0.00000  Uiso   1.00
H1639  H     0.37475   0.55115   0.89056   0.00000  Uiso   1.00
H1640  H     0.55416   0.43013   0.67167   0.00000  Uiso   1.00
H1641  H     0.58582   0.38136   0.67832   0.00000  Uiso   1.00
H1642  H     0.60952   0.43295   0.99480   0.00000  Uiso   1.00
H1643  H     0.59916   0.38457   0.91935   0.00000  Uiso   1.00
H1644  H     0.56989   0.43385   0.91407   0.00000  Uiso   1.00
N1645  N     0.50000   0.61907   0.83333   0.00000  Uiso   1.00
N1646  N     0.50000   0.38093   0.83333   0.00000  Uiso   1.00
O1647  O     0.43892   0.53821   0.83333   0.00000  Uiso   1.00
O1648  O     0.56108   0.46179   0.83334   0.00000  Uiso   1.00
O1649  O     0.56108   0.53821   0.83334   0.00000  Uiso   1.00
O1650  O     0.43892   0.46179   0.83333   0.00000  Uiso   1.00
O1651  O     0.50000   0.53821   0.76178   0.00000  Uiso   1.00
O1652  O     0.50000   0.46179   0.90489   0.00000  Uiso   1.00
O1653  O     0.50000   0.53821   0.90489   0.00000  Uiso   1.00
O1654  O     0.50000   0.46179   0.76178   0.00000  Uiso   1.00
Zn1655 Zn    0.50000   0.55104   0.83333   0.00000  Uiso   1.00
Zn1656 Zn    0.50000   0.44896   0.83333   0.00000  Uiso   1.00
C1657  C     0.75362   0.49980   0.83343   0.00000  Uiso   1.00
C1658  C     0.69001   0.52873   0.86580   0.00000  Uiso   1.00
C1659  C     0.95735   0.49971   0.83403   0.00000  Uiso   1.00
C1660  C     0.70943   0.49907   0.83445   0.00000  Uiso   1.00
C1661  C     0.85464   0.35682   0.87123   0.00000  Uiso   1.00
C1662  C     0.80613   0.64305   0.80189   0.00000  Uiso   1.00
C1663  C     0.81286   0.35617   0.79510   0.00000  Uiso   1.00
C1664  C     0.86070   0.64349   0.86499   0.00000  Uiso   1.00
C1665  C     0.86405   0.37513   0.92452   0.00000  Uiso   1.00
C1666  C     0.90511   0.40203   0.93351   0.00000  Uiso   1.00
C1667  C     0.91413   0.41212   0.98966   0.00000  Uiso   1.00
C1668  C     0.91307   0.50003   0.83363   0.00000  Uiso   1.00
C1669  C     0.76725   0.62156   0.77672   0.00000  Uiso   1.00
C1670  C     0.73104   0.62030   0.81288   0.00000  Uiso   1.00
C1671  C     0.70752   0.66388   0.81662   0.00000  Uiso   1.00
C1672  C     0.80777   0.37287   0.74104   0.00000  Uiso   1.00
C1673  C     0.76625   0.39708   0.72811   0.00000  Uiso   1.00
C1674  C     0.75942   0.40464   0.67136   0.00000  Uiso   1.00
C1675  C     0.90191   0.62445   0.88690   0.00000  Uiso   1.00
C1676  C     0.89904   0.59816   0.93634   0.00000  Uiso   1.00
C1677  C     0.93467   0.60950   0.97534   0.00000  Uiso   1.00
C1678  C     0.83316   0.50001   0.73986   0.00000  Uiso   1.00
C1679  C     0.83326   0.50009   0.92679   0.00000  Uiso   1.00
C1680  C     0.83312   0.50023   0.68857   0.00000  Uiso   1.00
C1681  C     0.83317   0.50036   0.97807   0.00000  Uiso   1.00
C1682  C     0.68653   0.46847   0.80440   0.00000  Uiso   1.00
C1683  C     0.98031   0.52934   0.86517   0.00000  Uiso   1.00
C1684  C     0.97680   0.46877   0.80419   0.00000  Uiso   1.00
H1685  H     0.70174   0.44508   0.78066   0.00000  Uiso   1.00
H1686  H     0.83631   0.39270   0.93715   0.00000  Uiso   1.00
H1687  H     0.86584   0.34728   0.95156   0.00000  Uiso   1.00
H1688  H     0.72942   0.35789   0.82800   0.00000  Uiso   1.00
H1689  H     0.69041   0.33817   0.78006   0.00000  Uiso   1.00
H1690  H     0.68391   0.66089   0.84568   0.00000  Uiso   1.00
H1691  H     0.70799   0.59477   0.79907   0.00000  Uiso   1.00
H1692  H     0.74325   0.61128   0.85155   0.00000  Uiso   1.00
H1693  H     0.75601   0.63811   0.74139   0.00000  Uiso   1.00
H1694  H     0.77468   0.58793   0.76417   0.00000  Uiso   1.00
H1695  H     0.78579   0.42400   0.99051   0.00000  Uiso   1.00
H1696  H     0.96519   0.55216   0.88944   0.00000  Uiso   1.00
H1697  H     0.75700   0.37256   0.98426   0.00000  Uiso   1.00
H1698  H     0.72981   0.42322   0.99678   0.00000  Uiso   1.00
H1699  H     0.73933   0.37770   0.74032   0.00000  Uiso   1.00
H1700  H     0.76564   0.42924   0.74752   0.00000  Uiso   1.00
H1701  H     0.83572   0.39208   0.73152   0.00000  Uiso   1.00
H1702  H     0.80967   0.34439   0.71466   0.00000  Uiso   1.00
H1703  H     0.96569   0.60334   0.95967   0.00000  Uiso   1.00
H1704  H     0.93300   0.64458   0.98672   0.00000  Uiso   1.00
H1705  H     0.93192   0.58869   0.67610   0.00000  Uiso   1.00
H1706  H     0.86854   0.60392   0.95355   0.00000  Uiso   1.00
H1707  H     0.95873   0.44559   0.78034   0.00000  Uiso   1.00
H1708  H     0.90203   0.56252   0.92819   0.00000  Uiso   1.00
H1709  H     0.91736   0.60586   0.85760   0.00000  Uiso   1.00
H1710  H     0.92496   0.65148   0.89319   0.00000  Uiso   1.00
H1711  H     0.70808   0.55115   0.89056   0.00000  Uiso   1.00
H1712  H     0.88749   0.43013   0.67167   0.00000  Uiso   1.00
H1713  H     0.91916   0.38136   0.67832   0.00000  Uiso   1.00
H1714  H     0.94286   0.43295   0.99480   0.00000  Uiso   1.00
H1715  H     0.93250   0.38457   0.91935   0.00000  Uiso   1.00
H1716  H     0.90322   0.43385   0.91407   0.00000  Uiso   1.00
N1717  N     0.83333   0.61907   0.83333   0.00000  Uiso   1.00
N1718  N     0.83333   0.38093   0.83333   0.00000  Uiso   1.00
O1719  O     0.77226   0.53821   0.83333   0.00000  Uiso   1.00
O1720  O     0.89441   0.46179   0.83334   0.00000  Uiso   1.00
O1721  O     0.89441   0.53821   0.83334   0.00000  Uiso   1.00
O1722  O     0.77226   0.46179   0.83333   0.00000  Uiso   1.00
O1723  O     0.83334   0.53821   0.76178   0.00000  Uiso   1.00
O1724  O     0.83333   0.46179   0.90489   0.00000  Uiso   1.00
O1725  O     0.83333   0.53821   0.90489   0.00000  Uiso   1.00
O1726  O     0.83334   0.46179   0.76178   0.00000  Uiso   1.00
Zn1727 Zn    0.83333   0.55104   0.83333   0.00000  Uiso   1.00
Zn1728 Zn    0.83333   0.44896   0.83333   0.00000  Uiso   1.00
C1729  C     0.08695   0.83314   0.83343   0.00000  Uiso   1.00
C1730  C     0.02335   0.86206   0.86580   0.00000  Uiso   1.00
C1731  C     0.29068   0.83304   0.83403   0.00000  Uiso   1.00
C1732  C     0.04276   0.83240   0.83445   0.00000  Uiso   1.00
C1733  C     0.18797   0.69016   0.87123   0.00000  Uiso   1.00
C1734  C     0.13946   0.97638   0.80189   0.00000  Uiso   1.00
C1735  C     0.14619   0.68950   0.79510   0.00000  Uiso   1.00
C1736  C     0.19404   0.97682   0.86499   0.00000  Uiso   1.00
C1737  C     0.19739   0.70846   0.92452   0.00000  Uiso   1.00
C1738  C     0.23844   0.73536   0.93351   0.00000  Uiso   1.00
C1739  C     0.24747   0.74546   0.98966   0.00000  Uiso   1.00
C1740  C     0.24640   0.83336   0.83363   0.00000  Uiso   1.00
C1741  C     0.10058   0.95489   0.77672   0.00000  Uiso   1.00
C1742  C     0.06437   0.95363   0.81288   0.00000  Uiso   1.00
C1743  C     0.04085   0.99722   0.81662   0.00000  Uiso   1.00
C1744  C     0.14110   0.70621   0.74104   0.00000  Uiso   1.00
C1745  C     0.09958   0.73042   0.72811   0.00000  Uiso   1.00
C1746  C     0.09275   0.73798   0.67136   0.00000  Uiso   1.00
C1747  C     0.23524   0.95779   0.88690   0.00000  Uiso   1.00
C1748  C     0.23237   0.93150   0.93634   0.00000  Uiso   1.00
C1749  C     0.26800   0.94284   0.97534   0.00000  Uiso   1.00
C1750  C     0.16649   0.83334   0.73986   0.00000  Uiso   1.00
C1751  C     0.16660   0.83342   0.92679   0.00000  Uiso   1.00
C1752  C     0.16645   0.83357   0.68857   0.00000  Uiso   1.00
C1753  C     0.16650   0.83369   0.97807   0.00000  Uiso   1.00
C1754  C     0.01987   0.80180   0.80440   0.00000  Uiso   1.00
C1755  C     0.31364   0.86267   0.86517   0.00000  Uiso   1.00
C1756  C     0.31014   0.80211   0.80419   0.00000  Uiso   1.00
H1757  H     0.03507   0.77841   0.78066   0.00000  Uiso   1.00
H1758  H     0.16965   0.72603   0.93715   0.00000  Uiso   1.00
H1759  H     0.19917   0.68061   0.95156   0.00000  Uiso   1.00
H1760  H     0.06275   0.69122   0.82800   0.00000  Uiso   1.00
H1761  H     0.02374   0.67150   0.78006   0.00000  Uiso   1.00
H1762  H     0.01724   0.99422   0.84568   0.00000  Uiso   1.00
H1763  H     0.04133   0.92810   0.79907   0.00000  Uiso   1.00
H1764  H     0.07658   0.94461   0.85155   0.00000  Uiso   1.00
H1765  H     0.08934   0.97144   0.74139   0.00000  Uiso   1.00
H1766  H     0.10802   0.92127   0.76417   0.00000  Uiso   1.00
H1767  H     0.11912   0.75734   0.99051   0.00000  Uiso   1.00
H1768  H     0.29852   0.88550   0.88944   0.00000  Uiso   1.00
H1769  H     0.09033   0.70589   0.98426   0.00000  Uiso   1.00
H1770  H     0.06314   0.75656   0.99678   0.00000  Uiso   1.00
H1771  H     0.07267   0.71103   0.74032   0.00000  Uiso   1.00
H1772  H     0.09897   0.76258   0.74752   0.00000  Uiso   1.00
H1773  H     0.16905   0.72541   0.73152   0.00000  Uiso   1.00
H1774  H     0.14300   0.67773   0.71466   0.00000  Uiso   1.00
H1775  H     0.29903   0.93668   0.95967   0.00000  Uiso   1.00
H1776  H     0.26634   0.97792   0.98672   0.00000  Uiso   1.00
H1777  H     0.26525   0.92202   0.67610   0.00000  Uiso   1.00
H1778  H     0.20188   0.93726   0.95355   0.00000  Uiso   1.00
H1779  H     0.29206   0.77892   0.78034   0.00000  Uiso   1.00
H1780  H     0.23537   0.89585   0.92819   0.00000  Uiso   1.00
H1781  H     0.25069   0.93920   0.85760   0.00000  Uiso   1.00
H1782  H     0.25829   0.98482   0.89319   0.00000  Uiso   1.00
H1783  H     0.04142   0.88449   0.89056   0.00000  Uiso   1.00
H1784  H     0.22082   0.76347   0.67167   0.00000  Uiso   1.00
H1785  H     0.25249   0.71470   0.67832   0.00000  Uiso   1.00
H1786  H     0.27619   0.76628   0.99480   0.00000  Uiso   1.00
H1787  H     0.26583   0.71791   0.91935   0.00000  Uiso   1.00
H1788  H     0.23656   0.76718   0.91407   0.00000  Uiso   1.00
N1789  N     0.16667   0.95240   0.83333   0.00000  Uiso   1.00
N1790  N     0.16667   0.71427   0.83333   0.00000  Uiso   1.00
O1791  O     0.10559   0.87154   0.83333   0.00000  Uiso   1.00
O1792  O     0.22774   0.79513   0.83334   0.00000  Uiso   1.00
O1793  O     0.22774   0.87154   0.83334   0.00000  Uiso   1.00
O1794  O     0.10559   0.79513   0.83333   0.00000  Uiso   1.00
O1795  O     0.16667   0.87155   0.76178   0.00000  Uiso   1.00
O1796  O     0.16666   0.79512   0.90489   0.00000  Uiso   1.00
O1797  O     0.16666   0.87155   0.90489   0.00000  Uiso   1.00
O1798  O     0.16667   0.79512   0.76178   0.00000  Uiso   1.00
Zn1799 Zn    0.16667   0.88437   0.83333   0.00000  Uiso   1.00
Zn1800 Zn    0.16667   0.78229   0.83333   0.00000  Uiso   1.00
C1801  C     0.42029   0.83314   0.83343   0.00000  Uiso   1.00
C1802  C     0.35668   0.86206   0.86580   0.00000  Uiso   1.00
C1803  C     0.62401   0.83304   0.83403   0.00000  Uiso   1.00
C1804  C     0.37609   0.83240   0.83445   0.00000  Uiso   1.00
C1805  C     0.52130   0.69016   0.87123   0.00000  Uiso   1.00
C1806  C     0.47279   0.97638   0.80189   0.00000  Uiso   1.00
C1807  C     0.47952   0.68950   0.79510   0.00000  Uiso   1.00
C1808  C     0.52737   0.97682   0.86499   0.00000  Uiso   1.00
C1809  C     0.53072   0.70846   0.92452   0.00000  Uiso   1.00
C1810  C     0.57178   0.73536   0.93351   0.00000  Uiso   1.00
C1811  C     0.58080   0.74546   0.98966   0.00000  Uiso   1.00
C1812  C     0.57974   0.83336   0.83363   0.00000  Uiso   1.00
C1813  C     0.43392   0.95489   0.77672   0.00000  Uiso   1.00
C1814  C     0.39771   0.95363   0.81288   0.00000  Uiso   1.00
C1815  C     0.37419   0.99722   0.81662   0.00000  Uiso   1.00
C1816  C     0.47444   0.70621   0.74104   0.00000  Uiso   1.00
C1817  C     0.43292   0.73042   0.72811   0.00000  Uiso   1.00
C1818  C     0.42608   0.73798   0.67136   0.00000  Uiso   1.00
C1819  C     0.56858   0.95779   0.88690   0.00000  Uiso   1.00
C1820  C     0.56571   0.93150   0.93634   0.00000  Uiso   1.00
C1821  C     0.60134   0.94284   0.97534   0.00000  Uiso   1.00
C1822  C     0.49982   0.83334   0.73986   0.00000  Uiso   1.00
C1823  C     0.49993   0.83342   0.92679   0.00000  Uiso   1.00
C1824  C     0.49979   0.83357   0.68857   0.00000  Uiso   1.00
C1825  C     0.49984   0.83369   0.97807   0.00000  Uiso   1.00
C1826  C     0.35320   0.80180   0.80440   0.00000  Uiso   1.00
C1827  C     0.64697   0.86267   0.86517   0.00000  Uiso   1.00
C1828  C     0.64347   0.80211   0.80419   0.00000  Uiso   1.00
H1829  H     0.36840   0.77841   0.78066   0.00000  Uiso   1.00
H1830  H     0.50298   0.72603   0.93715   0.00000  Uiso   1.00
H1831  H     0.53250   0.68061   0.95156   0.00000  Uiso   1.00
H1832  H     0.39609   0.69122   0.82800   0.00000  Uiso   1.00
H1833  H     0.35708   0.67150   0.78006   0.00000  Uiso   1.00
H1834  H     0.35057   0.99422   0.84568   0.00000  Uiso   1.00
H1835  H     0.37466   0.92810   0.79907   0.00000  Uiso   1.00
H1836  H     0.40992   0.94461   0.85155   0.00000  Uiso   1.00
H1837  H     0.42268   0.97144   0.74139   0.00000  Uiso   1.00
H1838  H     0.44135   0.92127   0.76417   0.00000  Uiso   1.00
H1839  H     0.45245   0.75734   0.99051   0.00000  Uiso   1.00
H1840  H     0.63185   0.88550   0.88944   0.00000  Uiso   1.00
H1841  H     0.42367   0.70589   0.98426   0.00000  Uiso   1.00
H1842  H     0.39647   0.75656   0.99678   0.00000  Uiso   1.00
H1843  H     0.40600   0.71103   0.74032   0.00000  Uiso   1.00
H1844  H     0.43231   0.76258   0.74752   0.00000  Uiso   1.00
H1845  H     0.50239   0.72541   0.73152   0.00000  Uiso   1.00
H1846  H     0.47633   0.67773   0.71466   0.00000  Uiso   1.00
H1847  H     0.63236   0.93668   0.95967   0.00000  Uiso   1.00
H1848  H     0.59967   0.97792   0.98672   0.00000  Uiso   1.00
H1849  H     0.59858   0.92202   0.67610   0.00000  Uiso   1.00
H1850  H     0.53521   0.93726   0.95355   0.00000  Uiso   1.00
H1851  H     0.62540   0.77892   0.78034   0.00000  Uiso   1.00
H1852  H     0.56870   0.89585   0.92819   0.00000  Uiso   1.00
H1853  H     0.58403   0.93920   0.85760   0.00000  Uiso   1.00
H1854  H     0.59163   0.98482   0.89319   0.00000  Uiso   1.00
H1855  H     0.37475   0.88449   0.89056   0.00000  Uiso   1.00
H1856  H     0.55416   0.76347   0.67167   0.00000  Uiso   1.00
H1857  H     0.58582   0.71470   0.67832   0.00000  Uiso   1.00
H1858  H     0.60952   0.76628   0.99480   0.00000  Uiso   1.00
H1859  H     0.59916   0.71791   0.91935   0.00000  Uiso   1.00
H1860  H     0.56989   0.76718   0.91407   0.00000  Uiso   1.00
N1861  N     0.50000   0.95240   0.83333   0.00000  Uiso   1.00
N1862  N     0.50000   0.71427   0.83333   0.00000  Uiso   1.00
O1863  O     0.43892   0.87154   0.83333   0.00000  Uiso   1.00
O1864  O     0.56108   0.79513   0.83334   0.00000  Uiso   1.00
O1865  O     0.56108   0.87154   0.83334   0.00000  Uiso   1.00
O1866  O     0.43892   0.79513   0.83333   0.00000  Uiso   1.00
O1867  O     0.50000   0.87155   0.76178   0.00000  Uiso   1.00
O1868  O     0.50000   0.79512   0.90489   0.00000  Uiso   1.00
O1869  O     0.50000   0.87155   0.90489   0.00000  Uiso   1.00
O1870  O     0.50000   0.79512   0.76178   0.00000  Uiso   1.00
Zn1871 Zn    0.50000   0.88437   0.83333   0.00000  Uiso   1.00
Zn1872 Zn    0.50000   0.78229   0.83333   0.00000  Uiso   1.00
C1873  C     0.75362   0.83314   0.83343   0.00000  Uiso   1.00
C1874  C     0.69001   0.86206   0.86580   0.00000  Uiso   1.00
C1875  C     0.95735   0.83304   0.83403   0.00000  Uiso   1.00
C1876  C     0.70943   0.83240   0.83445   0.00000  Uiso   1.00
C1877  C     0.85464   0.69016   0.87123   0.00000  Uiso   1.00
C1878  C     0.80613   0.97638   0.80189   0.00000  Uiso   1.00
C1879  C     0.81286   0.68950   0.79510   0.00000  Uiso   1.00
C1880  C     0.86070   0.97682   0.86499   0.00000  Uiso   1.00
C1881  C     0.86405   0.70846   0.92452   0.00000  Uiso   1.00
C1882  C     0.90511   0.73536   0.93351   0.00000  Uiso   1.00
C1883  C     0.91413   0.74546   0.98966   0.00000  Uiso   1.00
C1884  C     0.91307   0.83336   0.83363   0.00000  Uiso   1.00
C1885  C     0.76725   0.95489   0.77672   0.00000  Uiso   1.00
C1886  C     0.73104   0.95363   0.81288   0.00000  Uiso   1.00
C1887  C     0.70752   0.99722   0.81662   0.00000  Uiso   1.00
C1888  C     0.80777   0.70621   0.74104   0.00000  Uiso   1.00
C1889  C     0.76625   0.73042   0.72811   0.00000  Uiso   1.00
C1890  C     0.75942   0.73798   0.67136   0.00000  Uiso   1.00
C1891  C     0.90191   0.95779   0.88690   0.00000  Uiso   1.00
C1892  C     0.89904   0.93150   0.93634   0.00000  Uiso   1.00
C1893  C     0.93467   0.94284   0.97534   0.00000  Uiso   1.00
C1894  C     0.83316   0.83334   0.73986   0.00000  Uiso   1.00
C1895  C     0.83326   0.83342   0.92679   0.00000  Uiso   1.00
C1896  C     0.83312   0.83357   0.68857   0.00000  Uiso   1.00
C1897  C     0.83317   0.83369   0.97807   0.00000  Uiso   1.00
C1898  C     0.68653   0.80180   0.80440   0.00000  Uiso   1.00
C1899  C     0.98031   0.86267   0.86517   0.00000  Uiso   1.00
C1900  C     0.97680   0.80211   0.80419   0.00000  Uiso   1.00
H1901  H     0.70174   0.77841   0.78066   0.00000  Uiso   1.00
H1902  H     0.83631   0.72603   0.93715   0.00000  Uiso   1.00
H1903  H     0.86584   0.68061   0.95156   0.00000  Uiso   1.00
H1904  H     0.72942   0.69122   0.82800   0.00000  Uiso   1.00
H1905  H     0.69041   0.67150   0.78006   0.00000  Uiso   1.00
H1906  H     0.68391   0.99422   0.84568   0.00000  Uiso   1.00
H1907  H     0.70799   0.92810   0.79907   0.00000  Uiso   1.00
H1908  H     0.74325   0.94461   0.85155   0.00000  Uiso   1.00
H1909  H     0.75601   0.97144   0.74139   0.00000  Uiso   1.00
H1910  H     0.77468   0.92127   0.76417   0.00000  Uiso   1.00
H1911  H     0.78579   0.75734   0.99051   0.00000  Uiso   1.00
H1912  H     0.96519   0.88550   0.88944   0.00000  Uiso   1.00
H1913  H     0.75700   0.70589   0.98426   0.00000  Uiso   1.00
H1914  H     0.72981   0.75656   0.99678   0.00000  Uiso   1.00
H1915  H     0.73933   0.71103   0.74032   0.00000  Uiso   1.00
H1916  H     0.76564   0.76258   0.74752   0.00000  Uiso   1.00
H1917  H     0.83572   0.72541   0.73152   0.00000  Uiso   1.00
H1918  H     0.80967   0.67773   0.71466   0.00000  Uiso   1.00
H1919  H     0.96569   0.93668   0.95967   0.00000  Uiso   1.00
H1920  H     0.93300   0.97792   0.98672   0.00000  Uiso   1.00
H1921  H     0.93192   0.92202   0.67610   0.00000  Uiso   1.00
H1922  H     0.86854   0.93726   0.95355   0.00000  Uiso   1.00
H1923  H     0.95873   0.77892   0.78034   0.00000  Uiso   1.00
H1924  H     0.90203   0.89585   0.92819   0.00000  Uiso   1.00
H1925  H     0.91736   0.93920   0.85760   0.00000  Uiso   1.00
H1926  H     0.92496   0.98482   0.89319   0.00000  Uiso   1.00
H1927  H     0.70808   0.88449   0.89056   0.00000  Uiso   1.00
H1928  H     0.88749   0.76347   0.67167   0.00000  Uiso   1.00
H1929  H     0.91916   0.71470   0.67832   0.00000  Uiso   1.00
H1930  H     0.94286   0.76628   0.99480   0.00000  Uiso   1.00
H1931  H     0.93250   0.71791   0.91935   0.00000  Uiso   1.00
H1932  H     0.90322   0.76718   0.91407   0.00000  Uiso   1.00
N1933  N     0.83333   0.95240   0.83333   0.00000  Uiso   1.00
N1934  N     0.83333   0.71427   0.83333   0.00000  Uiso   1.00
O1935  O     0.77226   0.87154   0.83333   0.00000  Uiso   1.00
O1936  O     0.89441   0.79513   0.83334   0.00000  Uiso   1.00
O1937  O     0.89441   0.87154   0.83334   0.00000  Uiso   1.00
O1938  O     0.77226   0.79513   0.83333   0.00000  Uiso   1.00
O1939  O     0.83334   0.87155   0.76178   0.00000  Uiso   1.00
O1940  O     0.83333   0.79512   0.90489   0.00000  Uiso   1.00
O1941  O     0.83333   0.87155   0.90489   0.00000  Uiso   1.00
O1942  O     0.83334   0.79512   0.76178   0.00000  Uiso   1.00
Zn1943 Zn    0.83333   0.88437   0.83333   0.00000  Uiso   1.00
Zn1944 Zn    0.83333   0.78229   0.83333   0.00000  Uiso   1.00
loop_
_geom_bond_atom_site_label_1
_geom_bond_atom_site_label_2
_geom_bond_distance
_geom_bond_site_symmetry_2
_ccdc_geom_bond_type
C1     C4      1.410   .     S
C1     O63     1.303   .     A
C1     O66     1.298   .     A
C2     C4      1.392   .     A
C2     H55     1.083   .     S
C2     C171    1.371   1_455 S
C3     C27     1.393   .     A
C3     C28     1.394   .     A
C3     C12     1.410   .     S
C4     C26     1.396   .     A
C5     C9      1.529   .     S
C5     N62     1.391   .     A
C5     C440    1.437   1_545 S
C6     C13     1.516   .     S
C6     N61     1.379   .     A
C6     C223    1.435   .     S
C7     N62     1.389   .     A
C7     C16     1.521   .     S
C7     C438    1.435   1_545 S
C8     N61     1.385   .     A
C8     C19     1.522   .     S
C8     C221    1.437   .     S
C9     C10     1.544   .     S
C9     H30     1.102   .     S
C9     H31     1.108   .     S
C10    H59     1.106   .     S
C10    C11     1.529   .     S
C10    H60     1.094   .     S
C11    H58     1.111   .     S
C11    H704    1.107   .     S
C11    H705    1.108   .     S
C12    O64     1.299   .     A
C12    O65     1.302   .     A
C13    C14     1.542   .     S
C13    H38     1.101   .     S
C13    H37     1.106   .     S
C14    C15     1.526   .     S
C14    H36     1.111   .     S
C14    H35     1.110   .     S
C15    H34     1.111   .     S
C15    H248    1.110   .     S
C15    H249    1.110   .     S
C16    H45     1.103   .     S
C16    H46     1.113   .     S
C16    C17     1.537   .     S
C17    H43     1.101   .     S
C17    H44     1.101   .     S
C17    C18     1.526   .     S
C18    H1335   1.106   1_554 S
C18    H1337   1.111   1_554 S
C18    H1338   1.111   1_554 S
C19    C20     1.542   .     S
C19    H53     1.098   .     S
C19    H54     1.103   .     S
C20    H52     1.106   .     S
C20    H50     1.111   .     S
C20    C21     1.528   .     S
C21    H48     1.106   .     S
C21    H47     1.110   .     S
C21    H697    1.111   .     S
C22    C24     1.359   .     S
C22    O67     1.293   .     A
C22    O70     1.296   .     A
C23    O68     1.295   .     A
C23    C25     1.359   .     S
C23    O69     1.294   .     A
C24    C1321   1.162   1_554 S
C25    C672    1.162   .     S
C26    H29     1.080   .     S
C26    C172    1.372   1_455 S
C27    H40     1.077   .     S
C27    C74     1.371   .     S
C28    H51     1.084   .     S
C28    C98     1.372   .     S
H32    C447    1.110   1_545 S
H33    C447    1.110   1_545 S
H39    C666    1.106   .     S
H41    C666    1.111   .     S
H42    C666    1.111   .     S
H49    C1317   1.111   1_554 S
H56    C1307   1.107   1_554 S
H57    C1307   1.108   1_554 S
N61    Zn71    2.060   .     S
N62    Zn72    2.060   .     S
O63    Zn71    1.983   .     S
O64    Zn72    1.983   .     S
O65    Zn71    1.986   .     S
O66    Zn72    1.986   .     S
O67    Zn71    1.935   .     S
O68    Zn72    1.935   .     S
O69    Zn71    1.937   .     S
O70    Zn72    1.937   .     S
C73    C76     1.410   .     S
C73    O135    1.303   .     A
C73    O138    1.298   .     A
C74    C76     1.392   .     A
C74    H127    1.083   .     S
C75    C99     1.393   .     A
C75    C100    1.394   .     A
C75    C84     1.410   .     S
C76    C98     1.396   .     A
C77    C81     1.529   .     S
C77    N134    1.391   .     A
C77    C512    1.437   1_545 S
C78    C85     1.516   .     S
C78    N133    1.379   .     A
C78    C295    1.435   .     S
C79    N134    1.389   .     A
C79    C88     1.521   .     S
C79    C510    1.435   1_545 S
C80    N133    1.385   .     A
C80    C91     1.522   .     S
C80    C293    1.437   .     S
C81    C82     1.544   .     S
C81    H102    1.102   .     S
C81    H103    1.108   .     S
C82    H131    1.106   .     S
C82    C83     1.529   .     S
C82    H132    1.094   .     S
C83    H130    1.111   .     S
C83    H776    1.107   .     S
C83    H777    1.108   .     S
C84    O136    1.299   .     A
C84    O137    1.302   .     A
C85    C86     1.542   .     S
C85    H110    1.101   .     S
C85    H109    1.106   .     S
C86    C87     1.526   .     S
C86    H108    1.111   .     S
C86    H107    1.110   .     S
C87    H106    1.111   .     S
C87    H320    1.110   .     S
C87    H321    1.110   .     S
C88    H117    1.103   .     S
C88    H118    1.113   .     S
C88    C89     1.537   .     S
C89    H115    1.101   .     S
C89    H116    1.101   .     S
C89    C90     1.526   .     S
C90    H1407   1.106   1_554 S
C90    H1409   1.111   1_554 S
C90    H1410   1.111   1_554 S
C91    C92     1.542   .     S
C91    H125    1.098   .     S
C91    H126    1.103   .     S
C92    H124    1.106   .     S
C92    H122    1.111   .     S
C92    C93     1.528   .     S
C93    H120    1.106   .     S
C93    H119    1.110   .     S
C93    H769    1.111   .     S
C94    C96     1.359   .     S
C94    O139    1.293   .     A
C94    O142    1.296   .     A
C95    O140    1.295   .     A
C95    C97     1.359   .     S
C95    O141    1.294   .     A
C96    C1393   1.162   1_554 S
C97    C744    1.162   .     S
C98    H101    1.080   .     S
C99    H112    1.077   .     S
C99    C146    1.371   .     S
C100   H123    1.084   .     S
C100   C170    1.372   .     S
H104   C519    1.110   1_545 S
H105   C519    1.110   1_545 S
H111   C738    1.106   .     S
H113   C738    1.111   .     S
H114   C738    1.111   .     S
H121   C1389   1.111   1_554 S
H128   C1379   1.107   1_554 S
H129   C1379   1.108   1_554 S
N133   Zn143   2.060   .     S
N134   Zn144   2.060   .     S
O135   Zn143   1.983   .     S
O136   Zn144   1.983   .     S
O137   Zn143   1.986   .     S
O138   Zn144   1.986   .     S
O139   Zn143   1.935   .     S
O140   Zn144   1.935   .     S
O141   Zn143   1.937   .     S
O142   Zn144   1.937   .     S
C145   C148    1.410   .     S
C145   O207    1.303   .     A
C145   O210    1.298   .     A
C146   C148    1.392   .     A
C146   H199    1.083   .     S
C147   C171    1.393   .     A
C147   C172    1.394   .     A
C147   C156    1.410   .     S
C148   C170    1.396   .     A
C149   C153    1.529   .     S
C149   N206    1.391   .     A
C149   C584    1.437   1_545 S
C150   C157    1.516   .     S
C150   N205    1.379   .     A
C150   C367    1.435   .     S
C151   N206    1.389   .     A
C151   C160    1.521   .     S
C151   C582    1.435   1_545 S
C152   N205    1.385   .     A
C152   C163    1.522   .     S
C152   C365    1.437   .     S
C153   C154    1.544   .     S
C153   H174    1.102   .     S
C153   H175    1.108   .     S
C154   H203    1.106   .     S
C154   C155    1.529   .     S
C154   H204    1.094   .     S
C155   H202    1.111   .     S
C155   H848    1.107   .     S
C155   H849    1.108   .     S
C156   O208    1.299   .     A
C156   O209    1.302   .     A
C157   C158    1.542   .     S
C157   H182    1.101   .     S
C157   H181    1.106   .     S
C158   C159    1.526   .     S
C158   H180    1.111   .     S
C158   H179    1.110   .     S
C159   H178    1.111   .     S
C159   H392    1.110   .     S
C159   H393    1.110   .     S
C160   H189    1.103   .     S
C160   H190    1.113   .     S
C160   C161    1.537   .     S
C161   H187    1.101   .     S
C161   H188    1.101   .     S
C161   C162    1.526   .     S
C162   H1479   1.106   1_554 S
C162   H1481   1.111   1_554 S
C162   H1482   1.111   1_554 S
C163   C164    1.542   .     S
C163   H197    1.098   .     S
C163   H198    1.103   .     S
C164   H196    1.106   .     S
C164   H194    1.111   .     S
C164   C165    1.528   .     S
C165   H192    1.106   .     S
C165   H191    1.110   .     S
C165   H841    1.111   .     S
C166   C168    1.359   .     S
C166   O211    1.293   .     A
C166   O214    1.296   .     A
C167   O212    1.295   .     A
C167   C169    1.359   .     S
C167   O213    1.294   .     A
C168   C1465   1.162   1_554 S
C169   C816    1.162   .     S
C170   H173    1.080   .     S
C171   H184    1.077   .     S
C171   C2      1.371   1_655 S
C172   H195    1.084   .     S
C172   C26     1.372   1_655 S
H176   C591    1.110   1_545 S
H177   C591    1.110   1_545 S
H183   C810    1.106   .     S
H185   C810    1.111   .     S
H186   C810    1.111   .     S
H193   C1461   1.111   1_554 S
H200   C1451   1.107   1_554 S
H201   C1451   1.108   1_554 S
N205   Zn215   2.060   .     S
N206   Zn216   2.060   .     S
O207   Zn215   1.983   .     S
O208   Zn216   1.983   .     S
O209   Zn215   1.986   .     S
O210   Zn216   1.986   .     S
O211   Zn215   1.935   .     S
O212   Zn216   1.935   .     S
O213   Zn215   1.937   .     S
O214   Zn216   1.937   .     S
C217   C220    1.410   .     S
C217   O279    1.303   .     A
C217   O282    1.298   .     A
C218   C220    1.392   .     A
C218   H271    1.083   .     S
C218   C387    1.371   1_455 S
C219   C243    1.393   .     A
C219   C244    1.394   .     A
C219   C228    1.410   .     S
C220   C242    1.396   .     A
C221   C225    1.529   .     S
C221   N278    1.391   .     A
C222   C229    1.516   .     S
C222   N277    1.379   .     A
C222   C439    1.435   .     S
C223   N278    1.389   .     A
C223   C232    1.521   .     S
C224   N277    1.385   .     A
C224   C235    1.522   .     S
C224   C437    1.437   .     S
C225   C226    1.544   .     S
C225   H246    1.102   .     S
C225   H247    1.108   .     S
C226   H275    1.106   .     S
C226   C227    1.529   .     S
C226   H276    1.094   .     S
C227   H274    1.111   .     S
C227   H920    1.107   .     S
C227   H921    1.108   .     S
C228   O280    1.299   .     A
C228   O281    1.302   .     A
C229   C230    1.542   .     S
C229   H254    1.101   .     S
C229   H253    1.106   .     S
C230   C231    1.526   .     S
C230   H252    1.111   .     S
C230   H251    1.110   .     S
C231   H250    1.111   .     S
C231   H464    1.110   .     S
C231   H465    1.110   .     S
C232   H261    1.103   .     S
C232   H262    1.113   .     S
C232   C233    1.537   .     S
C233   H259    1.101   .     S
C233   H260    1.101   .     S
C233   C234    1.526   .     S
C234   H1551   1.106   1_554 S
C234   H1553   1.111   1_554 S
C234   H1554   1.111   1_554 S
C235   C236    1.542   .     S
C235   H269    1.098   .     S
C235   H270    1.103   .     S
C236   H268    1.106   .     S
C236   H266    1.111   .     S
C236   C237    1.528   .     S
C237   H264    1.106   .     S
C237   H263    1.110   .     S
C237   H913    1.111   .     S
C238   C240    1.359   .     S
C238   O283    1.293   .     A
C238   O286    1.296   .     A
C239   O284    1.295   .     A
C239   C241    1.359   .     S
C239   O285    1.294   .     A
C240   C1537   1.162   1_554 S
C241   C888    1.162   .     S
C242   H245    1.080   .     S
C242   C388    1.372   1_455 S
C243   H256    1.077   .     S
C243   C290    1.371   .     S
C244   H267    1.084   .     S
C244   C314    1.372   .     S
H255   C882    1.106   .     S
H257   C882    1.111   .     S
H258   C882    1.111   .     S
H265   C1533   1.111   1_554 S
H272   C1523   1.107   1_554 S
H273   C1523   1.108   1_554 S
N277   Zn287   2.060   .     S
N278   Zn288   2.060   .     S
O279   Zn287   1.983   .     S
O280   Zn288   1.983   .     S
O281   Zn287   1.986   .     S
O282   Zn288   1.986   .     S
O283   Zn287   1.935   .     S
O284   Zn288   1.935   .     S
O285   Zn287   1.937   .     S
O286   Zn288   1.937   .     S
C289   C292    1.410   .     S
C289   O351    1.303   .     A
C289   O354    1.298   .     A
C290   C292    1.392   .     A
C290   H343    1.083   .     S
C291   C315    1.393   .     A
C291   C316    1.394   .     A
C291   C300    1.410   .     S
C292   C314    1.396   .     A
C293   C297    1.529   .     S
C293   N350    1.391   .     A
C294   C301    1.516   .     S
C294   N349    1.379   .     A
C294   C511    1.435   .     S
C295   N350    1.389   .     A
C295   C304    1.521   .     S
C296   N349    1.385   .     A
C296   C307    1.522   .     S
C296   C509    1.437   .     S
C297   C298    1.544   .     S
C297   H318    1.102   .     S
C297   H319    1.108   .     S
C298   H347    1.106   .     S
C298   C299    1.529   .     S
C298   H348    1.094   .     S
C299   H346    1.111   .     S
C299   H992    1.107   .     S
C299   H993    1.108   .     S
C300   O352    1.299   .     A
C300   O353    1.302   .     A
C301   C302    1.542   .     S
C301   H326    1.101   .     S
C301   H325    1.106   .     S
C302   C303    1.526   .     S
C302   H324    1.111   .     S
C302   H323    1.110   .     S
C303   H322    1.111   .     S
C303   H536    1.110   .     S
C303   H537    1.110   .     S
C304   H333    1.103   .     S
C304   H334    1.113   .     S
C304   C305    1.537   .     S
C305   H331    1.101   .     S
C305   H332    1.101   .     S
C305   C306    1.526   .     S
C306   H1623   1.106   1_554 S
C306   H1625   1.111   1_554 S
C306   H1626   1.111   1_554 S
C307   C308    1.542   .     S
C307   H341    1.098   .     S
C307   H342    1.103   .     S
C308   H340    1.106   .     S
C308   H338    1.111   .     S
C308   C309    1.528   .     S
C309   H336    1.106   .     S
C309   H335    1.110   .     S
C309   H985    1.111   .     S
C310   C312    1.359   .     S
C310   O355    1.293   .     A
C310   O358    1.296   .     A
C311   O356    1.295   .     A
C311   C313    1.359   .     S
C311   O357    1.294   .     A
C312   C1609   1.162   1_554 S
C313   C960    1.162   .     S
C314   H317    1.080   .     S
C315   H328    1.077   .     S
C315   C362    1.371   .     S
C316   H339    1.084   .     S
C316   C386    1.372   .     S
H327   C954    1.106   .     S
H329   C954    1.111   .     S
H330   C954    1.111   .     S
H337   C1605   1.111   1_554 S
H344   C1595   1.107   1_554 S
H345   C1595   1.108   1_554 S
N349   Zn359   2.060   .     S
N350   Zn360   2.060   .     S
O351   Zn359   1.983   .     S
O352   Zn360   1.983   .     S
O353   Zn359   1.986   .     S
O354   Zn360   1.986   .     S
O355   Zn359   1.935   .     S
O356   Zn360   1.935   .     S
O357   Zn359   1.937   .     S
O358   Zn360   1.937   .     S
C361   C364    1.410   .     S
C361   O423    1.303   .     A
C361   O426    1.298   .     A
C362   C364    1.392   .     A
C362   H415    1.083   .     S
C363   C387    1.393   .     A
C363   C388    1.394   .     A
C363   C372    1.410   .     S
C364   C386    1.396   .     A
C365   C369    1.529   .     S
C365   N422    1.391   .     A
C366   C373    1.516   .     S
C366   N421    1.379   .     A
C366   C583    1.435   .     S
C367   N422    1.389   .     A
C367   C376    1.521   .     S
C368   N421    1.385   .     A
C368   C379    1.522   .     S
C368   C581    1.437   .     S
C369   C370    1.544   .     S
C369   H390    1.102   .     S
C369   H391    1.108   .     S
C370   H419    1.106   .     S
C370   C371    1.529   .     S
C370   H420    1.094   .     S
C371   H418    1.111   .     S
C371   H1064   1.107   .     S
C371   H1065   1.108   .     S
C372   O424    1.299   .     A
C372   O425    1.302   .     A
C373   C374    1.542   .     S
C373   H398    1.101   .     S
C373   H397    1.106   .     S
C374   C375    1.526   .     S
C374   H396    1.111   .     S
C374   H395    1.110   .     S
C375   H394    1.111   .     S
C375   H608    1.110   .     S
C375   H609    1.110   .     S
C376   H405    1.103   .     S
C376   H406    1.113   .     S
C376   C377    1.537   .     S
C377   H403    1.101   .     S
C377   H404    1.101   .     S
C377   C378    1.526   .     S
C378   H1695   1.106   1_554 S
C378   H1697   1.111   1_554 S
C378   H1698   1.111   1_554 S
C379   C380    1.542   .     S
C379   H413    1.098   .     S
C379   H414    1.103   .     S
C380   H412    1.106   .     S
C380   H410    1.111   .     S
C380   C381    1.528   .     S
C381   H408    1.106   .     S
C381   H407    1.110   .     S
C381   H1057   1.111   .     S
C382   C384    1.359   .     S
C382   O427    1.293   .     A
C382   O430    1.296   .     A
C383   O428    1.295   .     A
C383   C385    1.359   .     S
C383   O429    1.294   .     A
C384   C1681   1.162   1_554 S
C385   C1032   1.162   .     S
C386   H389    1.080   .     S
C387   H400    1.077   .     S
C387   C218    1.371   1_655 S
C388   H411    1.084   .     S
C388   C242    1.372   1_655 S
H399   C1026   1.106   .     S
H401   C1026   1.111   .     S
H402   C1026   1.111   .     S
H409   C1677   1.111   1_554 S
H416   C1667   1.107   1_554 S
H417   C1667   1.108   1_554 S
N421   Zn431   2.060   .     S
N422   Zn432   2.060   .     S
O423   Zn431   1.983   .     S
O424   Zn432   1.983   .     S
O425   Zn431   1.986   .     S
O426   Zn432   1.986   .     S
O427   Zn431   1.935   .     S
O428   Zn432   1.935   .     S
O429   Zn431   1.937   .     S
O430   Zn432   1.937   .     S
C433   C436    1.410   .     S
C433   O495    1.303   .     A
C433   O498    1.298   .     A
C434   C436    1.392   .     A
C434   H487    1.083   .     S
C434   C603    1.371   1_455 S
C435   C459    1.393   .     A
C435   C460    1.394   .     A
C435   C444    1.410   .     S
C436   C458    1.396   .     A
C437   C441    1.529   .     S
C437   N494    1.391   .     A
C438   C445    1.516   .     S
C438   N493    1.379   .     A
C438   C7      1.435   1_565 S
C439   N494    1.389   .     A
C439   C448    1.521   .     S
C440   N493    1.385   .     A
C440   C451    1.522   .     S
C440   C5      1.437   1_565 S
C441   C442    1.544   .     S
C441   H462    1.102   .     S
C441   H463    1.108   .     S
C442   H491    1.106   .     S
C442   C443    1.529   .     S
C442   H492    1.094   .     S
C443   H490    1.111   .     S
C443   H1136   1.107   .     S
C443   H1137   1.108   .     S
C444   O496    1.299   .     A
C444   O497    1.302   .     A
C445   C446    1.542   .     S
C445   H470    1.101   .     S
C445   H469    1.106   .     S
C446   C447    1.526   .     S
C446   H468    1.111   .     S
C446   H467    1.110   .     S
C447   H466    1.111   .     S
C447   H32     1.110   1_565 S
C447   H33     1.110   1_565 S
C448   H477    1.103   .     S
C448   H478    1.113   .     S
C448   C449    1.537   .     S
C449   H475    1.101   .     S
C449   H476    1.101   .     S
C449   C450    1.526   .     S
C450   H1767   1.106   1_554 S
C450   H1769   1.111   1_554 S
C450   H1770   1.111   1_554 S
C451   C452    1.542   .     S
C451   H485    1.098   .     S
C451   H486    1.103   .     S
C452   H484    1.106   .     S
C452   H482    1.111   .     S
C452   C453    1.528   .     S
C453   H480    1.106   .     S
C453   H479    1.110   .     S
C453   H1129   1.111   .     S
C454   C456    1.359   .     S
C454   O499    1.293   .     A
C454   O502    1.296   .     A
C455   O500    1.295   .     A
C455   C457    1.359   .     S
C455   O501    1.294   .     A
C456   C1753   1.162   1_554 S
C457   C1104   1.162   .     S
C458   H461    1.080   .     S
C458   C604    1.372   1_455 S
C459   H472    1.077   .     S
C459   C506    1.371   .     S
C460   H483    1.084   .     S
C460   C530    1.372   .     S
H471   C1098   1.106   .     S
H473   C1098   1.111   .     S
H474   C1098   1.111   .     S
H481   C1749   1.111   1_554 S
H488   C1739   1.107   1_554 S
H489   C1739   1.108   1_554 S
N493   Zn503   2.060   .     S
N494   Zn504   2.060   .     S
O495   Zn503   1.983   .     S
O496   Zn504   1.983   .     S
O497   Zn503   1.986   .     S
O498   Zn504   1.986   .     S
O499   Zn503   1.935   .     S
O500   Zn504   1.935   .     S
O501   Zn503   1.937   .     S
O502   Zn504   1.937   .     S
C505   C508    1.410   .     S
C505   O567    1.303   .     A
C505   O570    1.298   .     A
C506   C508    1.392   .     A
C506   H559    1.083   .     S
C507   C531    1.393   .     A
C507   C532    1.394   .     A
C507   C516    1.410   .     S
C508   C530    1.396   .     A
C509   C513    1.529   .     S
C509   N566    1.391   .     A
C510   C517    1.516   .     S
C510   N565    1.379   .     A
C510   C79     1.435   1_565 S
C511   N566    1.389   .     A
C511   C520    1.521   .     S
C512   N565    1.385   .     A
C512   C523    1.522   .     S
C512   C77     1.437   1_565 S
C513   C514    1.544   .     S
C513   H534    1.102   .     S
C513   H535    1.108   .     S
C514   H563    1.106   .     S
C514   C515    1.529   .     S
C514   H564    1.094   .     S
C515   H562    1.111   .     S
C515   H1208   1.107   .     S
C515   H1209   1.108   .     S
C516   O568    1.299   .     A
C516   O569    1.302   .     A
C517   C518    1.542   .     S
C517   H542    1.101   .     S
C517   H541    1.106   .     S
C518   C519    1.526   .     S
C518   H540    1.111   .     S
C518   H539    1.110   .     S
C519   H538    1.111   .     S
C519   H104    1.110   1_565 S
C519   H105    1.110   1_565 S
C520   H549    1.103   .     S
C520   H550    1.113   .     S
C520   C521    1.537   .     S
C521   H547    1.101   .     S
C521   H548    1.101   .     S
C521   C522    1.526   .     S
C522   H1839   1.106   1_554 S
C522   H1841   1.111   1_554 S
C522   H1842   1.111   1_554 S
C523   C524    1.542   .     S
C523   H557    1.098   .     S
C523   H558    1.103   .     S
C524   H556    1.106   .     S
C524   H554    1.111   .     S
C524   C525    1.528   .     S
C525   H552    1.106   .     S
C525   H551    1.110   .     S
C525   H1201   1.111   .     S
C526   C528    1.359   .     S
C526   O571    1.293   .     A
C526   O574    1.296   .     A
C527   O572    1.295   .     A
C527   C529    1.359   .     S
C527   O573    1.294   .     A
C528   C1825   1.162   1_554 S
C529   C1176   1.162   .     S
C530   H533    1.080   .     S
C531   H544    1.077   .     S
C531   C578    1.371   .     S
C532   H555    1.084   .     S
C532   C602    1.372   .     S
H543   C1170   1.106   .     S
H545   C1170   1.111   .     S
H546   C1170   1.111   .     S
H553   C1821   1.111   1_554 S
H560   C1811   1.107   1_554 S
H561   C1811   1.108   1_554 S
N565   Zn575   2.060   .     S
N566   Zn576   2.060   .     S
O567   Zn575   1.983   .     S
O568   Zn576   1.983   .     S
O569   Zn575   1.986   .     S
O570   Zn576   1.986   .     S
O571   Zn575   1.935   .     S
O572   Zn576   1.935   .     S
O573   Zn575   1.937   .     S
O574   Zn576   1.937   .     S
C577   C580    1.410   .     S
C577   O639    1.303   .     A
C577   O642    1.298   .     A
C578   C580    1.392   .     A
C578   H631    1.083   .     S
C579   C603    1.393   .     A
C579   C604    1.394   .     A
C579   C588    1.410   .     S
C580   C602    1.396   .     A
C581   C585    1.529   .     S
C581   N638    1.391   .     A
C582   C589    1.516   .     S
C582   N637    1.379   .     A
C582   C151    1.435   1_565 S
C583   N638    1.389   .     A
C583   C592    1.521   .     S
C584   N637    1.385   .     A
C584   C595    1.522   .     S
C584   C149    1.437   1_565 S
C585   C586    1.544   .     S
C585   H606    1.102   .     S
C585   H607    1.108   .     S
C586   H635    1.106   .     S
C586   C587    1.529   .     S
C586   H636    1.094   .     S
C587   H634    1.111   .     S
C587   H1280   1.107   .     S
C587   H1281   1.108   .     S
C588   O640    1.299   .     A
C588   O641    1.302   .     A
C589   C590    1.542   .     S
C589   H614    1.101   .     S
C589   H613    1.106   .     S
C590   C591    1.526   .     S
C590   H612    1.111   .     S
C590   H611    1.110   .     S
C591   H610    1.111   .     S
C591   H176    1.110   1_565 S
C591   H177    1.110   1_565 S
C592   H621    1.103   .     S
C592   H622    1.113   .     S
C592   C593    1.537   .     S
C593   H619    1.101   .     S
C593   H620    1.101   .     S
C593   C594    1.526   .     S
C594   H1911   1.106   1_554 S
C594   H1913   1.111   1_554 S
C594   H1914   1.111   1_554 S
C595   C596    1.542   .     S
C595   H629    1.098   .     S
C595   H630    1.103   .     S
C596   H628    1.106   .     S
C596   H626    1.111   .     S
C596   C597    1.528   .     S
C597   H624    1.106   .     S
C597   H623    1.110   .     S
C597   H1273   1.111   .     S
C598   C600    1.359   .     S
C598   O643    1.293   .     A
C598   O646    1.296   .     A
C599   O644    1.295   .     A
C599   C601    1.359   .     S
C599   O645    1.294   .     A
C600   C1897   1.162   1_554 S
C601   C1248   1.162   .     S
C602   H605    1.080   .     S
C603   H616    1.077   .     S
C603   C434    1.371   1_655 S
C604   H627    1.084   .     S
C604   C458    1.372   1_655 S
H615   C1242   1.106   .     S
H617   C1242   1.111   .     S
H618   C1242   1.111   .     S
H625   C1893   1.111   1_554 S
H632   C1883   1.107   1_554 S
H633   C1883   1.108   1_554 S
N637   Zn647   2.060   .     S
N638   Zn648   2.060   .     S
O639   Zn647   1.983   .     S
O640   Zn648   1.983   .     S
O641   Zn647   1.986   .     S
O642   Zn648   1.986   .     S
O643   Zn647   1.935   .     S
O644   Zn648   1.935   .     S
O645   Zn647   1.937   .     S
O646   Zn648   1.937   .     S
C649   C652    1.410   .     S
C649   O711    1.303   .     A
C649   O714    1.298   .     A
C650   C652    1.392   .     A
C650   H703    1.083   .     S
C650   C819    1.371   1_455 S
C651   C675    1.393   .     A
C651   C676    1.394   .     A
C651   C660    1.410   .     S
C652   C674    1.396   .     A
C653   C657    1.529   .     S
C653   N710    1.391   .     A
C653   C1088   1.437   1_545 S
C654   C661    1.516   .     S
C654   N709    1.379   .     A
C654   C871    1.435   .     S
C655   N710    1.389   .     A
C655   C664    1.521   .     S
C655   C1086   1.435   1_545 S
C656   N709    1.385   .     A
C656   C667    1.522   .     S
C656   C869    1.437   .     S
C657   C658    1.544   .     S
C657   H678    1.102   .     S
C657   H679    1.108   .     S
C658   H707    1.106   .     S
C658   C659    1.529   .     S
C658   H708    1.094   .     S
C659   H706    1.111   .     S
C659   H1352   1.107   .     S
C659   H1353   1.108   .     S
C660   O712    1.299   .     A
C660   O713    1.302   .     A
C661   C662    1.542   .     S
C661   H686    1.101   .     S
C661   H685    1.106   .     S
C662   C663    1.526   .     S
C662   H684    1.111   .     S
C662   H683    1.110   .     S
C663   H682    1.111   .     S
C663   H896    1.110   .     S
C663   H897    1.110   .     S
C664   H693    1.103   .     S
C664   H694    1.113   .     S
C664   C665    1.537   .     S
C665   H691    1.101   .     S
C665   H692    1.101   .     S
C665   C666    1.526   .     S
C667   C668    1.542   .     S
C667   H701    1.098   .     S
C667   H702    1.103   .     S
C668   H700    1.106   .     S
C668   H698    1.111   .     S
C668   C669    1.528   .     S
C669   H696    1.106   .     S
C669   H695    1.110   .     S
C669   H1345   1.111   .     S
C670   C672    1.359   .     S
C670   O715    1.293   .     A
C670   O718    1.296   .     A
C671   O716    1.295   .     A
C671   C673    1.359   .     S
C671   O717    1.294   .     A
C673   C1320   1.162   .     S
C674   H677    1.080   .     S
C674   C820    1.372   1_455 S
C675   H688    1.077   .     S
C675   C722    1.371   .     S
C676   H699    1.084   .     S
C676   C746    1.372   .     S
H680   C1095   1.110   1_545 S
H681   C1095   1.110   1_545 S
H687   C1314   1.106   .     S
H689   C1314   1.111   .     S
H690   C1314   1.111   .     S
N709   Zn719   2.060   .     S
N710   Zn720   2.060   .     S
O711   Zn719   1.983   .     S
O712   Zn720   1.983   .     S
O713   Zn719   1.986   .     S
O714   Zn720   1.986   .     S
O715   Zn719   1.935   .     S
O716   Zn720   1.935   .     S
O717   Zn719   1.937   .     S
O718   Zn720   1.937   .     S
C721   C724    1.410   .     S
C721   O783    1.303   .     A
C721   O786    1.298   .     A
C722   C724    1.392   .     A
C722   H775    1.083   .     S
C723   C747    1.393   .     A
C723   C748    1.394   .     A
C723   C732    1.410   .     S
C724   C746    1.396   .     A
C725   C729    1.529   .     S
C725   N782    1.391   .     A
C725   C1160   1.437   1_545 S
C726   C733    1.516   .     S
C726   N781    1.379   .     A
C726   C943    1.435   .     S
C727   N782    1.389   .     A
C727   C736    1.521   .     S
C727   C1158   1.435   1_545 S
C728   N781    1.385   .     A
C728   C739    1.522   .     S
C728   C941    1.437   .     S
C729   C730    1.544   .     S
C729   H750    1.102   .     S
C729   H751    1.108   .     S
C730   H779    1.106   .     S
C730   C731    1.529   .     S
C730   H780    1.094   .     S
C731   H778    1.111   .     S
C731   H1424   1.107   .     S
C731   H1425   1.108   .     S
C732   O784    1.299   .     A
C732   O785    1.302   .     A
C733   C734    1.542   .     S
C733   H758    1.101   .     S
C733   H757    1.106   .     S
C734   C735    1.526   .     S
C734   H756    1.111   .     S
C734   H755    1.110   .     S
C735   H754    1.111   .     S
C735   H968    1.110   .     S
C735   H969    1.110   .     S
C736   H765    1.103   .     S
C736   H766    1.113   .     S
C736   C737    1.537   .     S
C737   H763    1.101   .     S
C737   H764    1.101   .     S
C737   C738    1.526   .     S
C739   C740    1.542   .     S
C739   H773    1.098   .     S
C739   H774    1.103   .     S
C740   H772    1.106   .     S
C740   H770    1.111   .     S
C740   C741    1.528   .     S
C741   H768    1.106   .     S
C741   H767    1.110   .     S
C741   H1417   1.111   .     S
C742   C744    1.359   .     S
C742   O787    1.293   .     A
C742   O790    1.296   .     A
C743   O788    1.295   .     A
C743   C745    1.359   .     S
C743   O789    1.294   .     A
C745   C1392   1.162   .     S
C746   H749    1.080   .     S
C747   H760    1.077   .     S
C747   C794    1.371   .     S
C748   H771    1.084   .     S
C748   C818    1.372   .     S
H752   C1167   1.110   1_545 S
H753   C1167   1.110   1_545 S
H759   C1386   1.106   .     S
H761   C1386   1.111   .     S
H762   C1386   1.111   .     S
N781   Zn791   2.060   .     S
N782   Zn792   2.060   .     S
O783   Zn791   1.983   .     S
O784   Zn792   1.983   .     S
O785   Zn791   1.986   .     S
O786   Zn792   1.986   .     S
O787   Zn791   1.935   .     S
O788   Zn792   1.935   .     S
O789   Zn791   1.937   .     S
O790   Zn792   1.937   .     S
C793   C796    1.410   .     S
C793   O855    1.303   .     A
C793   O858    1.298   .     A
C794   C796    1.392   .     A
C794   H847    1.083   .     S
C795   C819    1.393   .     A
C795   C820    1.394   .     A
C795   C804    1.410   .     S
C796   C818    1.396   .     A
C797   C801    1.529   .     S
C797   N854    1.391   .     A
C797   C1232   1.437   1_545 S
C798   C805    1.516   .     S
C798   N853    1.379   .     A
C798   C1015   1.435   .     S
C799   N854    1.389   .     A
C799   C808    1.521   .     S
C799   C1230   1.435   1_545 S
C800   N853    1.385   .     A
C800   C811    1.522   .     S
C800   C1013   1.437   .     S
C801   C802    1.544   .     S
C801   H822    1.102   .     S
C801   H823    1.108   .     S
C802   H851    1.106   .     S
C802   C803    1.529   .     S
C802   H852    1.094   .     S
C803   H850    1.111   .     S
C803   H1496   1.107   .     S
C803   H1497   1.108   .     S
C804   O856    1.299   .     A
C804   O857    1.302   .     A
C805   C806    1.542   .     S
C805   H830    1.101   .     S
C805   H829    1.106   .     S
C806   C807    1.526   .     S
C806   H828    1.111   .     S
C806   H827    1.110   .     S
C807   H826    1.111   .     S
C807   H1040   1.110   .     S
C807   H1041   1.110   .     S
C808   H837    1.103   .     S
C808   H838    1.113   .     S
C808   C809    1.537   .     S
C809   H835    1.101   .     S
C809   H836    1.101   .     S
C809   C810    1.526   .     S
C811   C812    1.542   .     S
C811   H845    1.098   .     S
C811   H846    1.103   .     S
C812   H844    1.106   .     S
C812   H842    1.111   .     S
C812   C813    1.528   .     S
C813   H840    1.106   .     S
C813   H839    1.110   .     S
C813   H1489   1.111   .     S
C814   C816    1.359   .     S
C814   O859    1.293   .     A
C814   O862    1.296   .     A
C815   O860    1.295   .     A
C815   C817    1.359   .     S
C815   O861    1.294   .     A
C817   C1464   1.162   .     S
C818   H821    1.080   .     S
C819   H832    1.077   .     S
C819   C650    1.371   1_655 S
C820   H843    1.084   .     S
C820   C674    1.372   1_655 S
H824   C1239   1.110   1_545 S
H825   C1239   1.110   1_545 S
H831   C1458   1.106   .     S
H833   C1458   1.111   .     S
H834   C1458   1.111   .     S
N853   Zn863   2.060   .     S
N854   Zn864   2.060   .     S
O855   Zn863   1.983   .     S
O856   Zn864   1.983   .     S
O857   Zn863   1.986   .     S
O858   Zn864   1.986   .     S
O859   Zn863   1.935   .     S
O860   Zn864   1.935   .     S
O861   Zn863   1.937   .     S
O862   Zn864   1.937   .     S
C865   C868    1.410   .     S
C865   O927    1.303   .     A
C865   O930    1.298   .     A
C866   C868    1.392   .     A
C866   H919    1.083   .     S
C866   C1035   1.371   1_455 S
C867   C891    1.393   .     A
C867   C892    1.394   .     A
C867   C876    1.410   .     S
C868   C890    1.396   .     A
C869   C873    1.529   .     S
C869   N926    1.391   .     A
C870   C877    1.516   .     S
C870   N925    1.379   .     A
C870   C1087   1.435   .     S
C871   N926    1.389   .     A
C871   C880    1.521   .     S
C872   N925    1.385   .     A
C872   C883    1.522   .     S
C872   C1085   1.437   .     S
C873   C874    1.544   .     S
C873   H894    1.102   .     S
C873   H895    1.108   .     S
C874   H923    1.106   .     S
C874   C875    1.529   .     S
C874   H924    1.094   .     S
C875   H922    1.111   .     S
C875   H1568   1.107   .     S
C875   H1569   1.108   .     S
C876   O928    1.299   .     A
C876   O929    1.302   .     A
C877   C878    1.542   .     S
C877   H902    1.101   .     S
C877   H901    1.106   .     S
C878   C879    1.526   .     S
C878   H900    1.111   .     S
C878   H899    1.110   .     S
C879   H898    1.111   .     S
C879   H1112   1.110   .     S
C879   H1113   1.110   .     S
C880   H909    1.103   .     S
C880   H910    1.113   .     S
C880   C881    1.537   .     S
C881   H907    1.101   .     S
C881   H908    1.101   .     S
C881   C882    1.526   .     S
C883   C884    1.542   .     S
C883   H917    1.098   .     S
C883   H918    1.103   .     S
C884   H916    1.106   .     S
C884   H914    1.111   .     S
C884   C885    1.528   .     S
C885   H912    1.106   .     S
C885   H911    1.110   .     S
C885   H1561   1.111   .     S
C886   C888    1.359   .     S
C886   O931    1.293   .     A
C886   O934    1.296   .     A
C887   O932    1.295   .     A
C887   C889    1.359   .     S
C887   O933    1.294   .     A
C889   C1536   1.162   .     S
C890   H893    1.080   .     S
C890   C1036   1.372   1_455 S
C891   H904    1.077   .     S
C891   C938    1.371   .     S
C892   H915    1.084   .     S
C892   C962    1.372   .     S
H903   C1530   1.106   .     S
H905   C1530   1.111   .     S
H906   C1530   1.111   .     S
N925   Zn935   2.060   .     S
N926   Zn936   2.060   .     S
O927   Zn935   1.983   .     S
O928   Zn936   1.983   .     S
O929   Zn935   1.986   .     S
O930   Zn936   1.986   .     S
O931   Zn935   1.935   .     S
O932   Zn936   1.935   .     S
O933   Zn935   1.937   .     S
O934   Zn936   1.937   .     S
C937   C940    1.410   .     S
C937   O999    1.303   .     A
C937   O1002   1.298   .     A
C938   C940    1.392   .     A
C938   H991    1.083   .     S
C939   C963    1.393   .     A
C939   C964    1.394   .     A
C939   C948    1.410   .     S
C940   C962    1.396   .     A
C941   C945    1.529   .     S
C941   N998    1.391   .     A
C942   C949    1.516   .     S
C942   N997    1.379   .     A
C942   C1159   1.435   .     S
C943   N998    1.389   .     A
C943   C952    1.521   .     S
C944   N997    1.385   .     A
C944   C955    1.522   .     S
C944   C1157   1.437   .     S
C945   C946    1.544   .     S
C945   H966    1.102   .     S
C945   H967    1.108   .     S
C946   H995    1.106   .     S
C946   C947    1.529   .     S
C946   H996    1.094   .     S
C947   H994    1.111   .     S
C947   H1640   1.107   .     S
C947   H1641   1.108   .     S
C948   O1000   1.299   .     A
C948   O1001   1.302   .     A
C949   C950    1.542   .     S
C949   H974    1.101   .     S
C949   H973    1.106   .     S
C950   C951    1.526   .     S
C950   H972    1.111   .     S
C950   H971    1.110   .     S
C951   H970    1.111   .     S
C951   H1184   1.110   .     S
C951   H1185   1.110   .     S
C952   H981    1.103   .     S
C952   H982    1.113   .     S
C952   C953    1.537   .     S
C953   H979    1.101   .     S
C953   H980    1.101   .     S
C953   C954    1.526   .     S
C955   C956    1.542   .     S
C955   H989    1.098   .     S
C955   H990    1.103   .     S
C956   H988    1.106   .     S
C956   H986    1.111   .     S
C956   C957    1.528   .     S
C957   H984    1.106   .     S
C957   H983    1.110   .     S
C957   H1633   1.111   .     S
C958   C960    1.359   .     S
C958   O1003   1.293   .     A
C958   O1006   1.296   .     A
C959   O1004   1.295   .     A
C959   C961    1.359   .     S
C959   O1005   1.294   .     A
C961   C1608   1.162   .     S
C962   H965    1.080   .     S
C963   H976    1.077   .     S
C963   C1010   1.371   .     S
C964   H987    1.084   .     S
C964   C1034   1.372   .     S
H975   C1602   1.106   .     S
H977   C1602   1.111   .     S
H978   C1602   1.111   .     S
N997   Zn1007  2.060   .     S
N998   Zn1008  2.060   .     S
O999   Zn1007  1.983   .     S
O1000  Zn1008  1.983   .     S
O1001  Zn1007  1.986   .     S
O1002  Zn1008  1.986   .     S
O1003  Zn1007  1.935   .     S
O1004  Zn1008  1.935   .     S
O1005  Zn1007  1.937   .     S
O1006  Zn1008  1.937   .     S
C1009  C1012   1.410   .     S
C1009  O1071   1.303   .     A
C1009  O1074   1.298   .     A
C1010  C1012   1.392   .     A
C1010  H1063   1.083   .     S
C1011  C1035   1.393   .     A
C1011  C1036   1.394   .     A
C1011  C1020   1.410   .     S
C1012  C1034   1.396   .     A
C1013  C1017   1.529   .     S
C1013  N1070   1.391   .     A
C1014  C1021   1.516   .     S
C1014  N1069   1.379   .     A
C1014  C1231   1.435   .     S
C1015  N1070   1.389   .     A
C1015  C1024   1.521   .     S
C1016  N1069   1.385   .     A
C1016  C1027   1.522   .     S
C1016  C1229   1.437   .     S
C1017  C1018   1.544   .     S
C1017  H1038   1.102   .     S
C1017  H1039   1.108   .     S
C1018  H1067   1.106   .     S
C1018  C1019   1.529   .     S
C1018  H1068   1.094   .     S
C1019  H1066   1.111   .     S
C1019  H1712   1.107   .     S
C1019  H1713   1.108   .     S
C1020  O1072   1.299   .     A
C1020  O1073   1.302   .     A
C1021  C1022   1.542   .     S
C1021  H1046   1.101   .     S
C1021  H1045   1.106   .     S
C1022  C1023   1.526   .     S
C1022  H1044   1.111   .     S
C1022  H1043   1.110   .     S
C1023  H1042   1.111   .     S
C1023  H1256   1.110   .     S
C1023  H1257   1.110   .     S
C1024  H1053   1.103   .     S
C1024  H1054   1.113   .     S
C1024  C1025   1.537   .     S
C1025  H1051   1.101   .     S
C1025  H1052   1.101   .     S
C1025  C1026   1.526   .     S
C1027  C1028   1.542   .     S
C1027  H1061   1.098   .     S
C1027  H1062   1.103   .     S
C1028  H1060   1.106   .     S
C1028  H1058   1.111   .     S
C1028  C1029   1.528   .     S
C1029  H1056   1.106   .     S
C1029  H1055   1.110   .     S
C1029  H1705   1.111   .     S
C1030  C1032   1.359   .     S
C1030  O1075   1.293   .     A
C1030  O1078   1.296   .     A
C1031  O1076   1.295   .     A
C1031  C1033   1.359   .     S
C1031  O1077   1.294   .     A
C1033  C1680   1.162   .     S
C1034  H1037   1.080   .     S
C1035  H1048   1.077   .     S
C1035  C866    1.371   1_655 S
C1036  H1059   1.084   .     S
C1036  C890    1.372   1_655 S
H1047  C1674   1.106   .     S
H1049  C1674   1.111   .     S
H1050  C1674   1.111   .     S
N1069  Zn1079  2.060   .     S
N1070  Zn1080  2.060   .     S
O1071  Zn1079  1.983   .     S
O1072  Zn1080  1.983   .     S
O1073  Zn1079  1.986   .     S
O1074  Zn1080  1.986   .     S
O1075  Zn1079  1.935   .     S
O1076  Zn1080  1.935   .     S
O1077  Zn1079  1.937   .     S
O1078  Zn1080  1.937   .     S
C1081  C1084   1.410   .     S
C1081  O1143   1.303   .     A
C1081  O1146   1.298   .     A
C1082  C1084   1.392   .     A
C1082  H1135   1.083   .     S
C1082  C1251   1.371   1_455 S
C1083  C1107   1.393   .     A
C1083  C1108   1.394   .     A
C1083  C1092   1.410   .     S
C1084  C1106   1.396   .     A
C1085  C1089   1.529   .     S
C1085  N1142   1.391   .     A
C1086  C1093   1.516   .     S
C1086  N1141   1.379   .     A
C1086  C655    1.435   1_565 S
C1087  N1142   1.389   .     A
C1087  C1096   1.521   .     S
C1088  N1141   1.385   .     A
C1088  C1099   1.522   .     S
C1088  C653    1.437   1_565 S
C1089  C1090   1.544   .     S
C1089  H1110   1.102   .     S
C1089  H1111   1.108   .     S
C1090  H1139   1.106   .     S
C1090  C1091   1.529   .     S
C1090  H1140   1.094   .     S
C1091  H1138   1.111   .     S
C1091  H1784   1.107   .     S
C1091  H1785   1.108   .     S
C1092  O1144   1.299   .     A
C1092  O1145   1.302   .     A
C1093  C1094   1.542   .     S
C1093  H1118   1.101   .     S
C1093  H1117   1.106   .     S
C1094  C1095   1.526   .     S
C1094  H1116   1.111   .     S
C1094  H1115   1.110   .     S
C1095  H1114   1.111   .     S
C1095  H680    1.110   1_565 S
C1095  H681    1.110   1_565 S
C1096  H1125   1.103   .     S
C1096  H1126   1.113   .     S
C1096  C1097   1.537   .     S
C1097  H1123   1.101   .     S
C1097  H1124   1.101   .     S
C1097  C1098   1.526   .     S
C1099  C1100   1.542   .     S
C1099  H1133   1.098   .     S
C1099  H1134   1.103   .     S
C1100  H1132   1.106   .     S
C1100  H1130   1.111   .     S
C1100  C1101   1.528   .     S
C1101  H1128   1.106   .     S
C1101  H1127   1.110   .     S
C1101  H1777   1.111   .     S
C1102  C1104   1.359   .     S
C1102  O1147   1.293   .     A
C1102  O1150   1.296   .     A
C1103  O1148   1.295   .     A
C1103  C1105   1.359   .     S
C1103  O1149   1.294   .     A
C1105  C1752   1.162   .     S
C1106  H1109   1.080   .     S
C1106  C1252   1.372   1_455 S
C1107  H1120   1.077   .     S
C1107  C1154   1.371   .     S
C1108  H1131   1.084   .     S
C1108  C1178   1.372   .     S
H1119  C1746   1.106   .     S
H1121  C1746   1.111   .     S
H1122  C1746   1.111   .     S
N1141  Zn1151  2.060   .     S
N1142  Zn1152  2.060   .     S
O1143  Zn1151  1.983   .     S
O1144  Zn1152  1.983   .     S
O1145  Zn1151  1.986   .     S
O1146  Zn1152  1.986   .     S
O1147  Zn1151  1.935   .     S
O1148  Zn1152  1.935   .     S
O1149  Zn1151  1.937   .     S
O1150  Zn1152  1.937   .     S
C1153  C1156   1.410   .     S
C1153  O1215   1.303   .     A
C1153  O1218   1.298   .     A
C1154  C1156   1.392   .     A
C1154  H1207   1.083   .     S
C1155  C1179   1.393   .     A
C1155  C1180   1.394   .     A
C1155  C1164   1.410   .     S
C1156  C1178   1.396   .     A
C1157  C1161   1.529   .     S
C1157  N1214   1.391   .     A
C1158  C1165   1.516   .     S
C1158  N1213   1.379   .     A
C1158  C727    1.435   1_565 S
C1159  N1214   1.389   .     A
C1159  C1168   1.521   .     S
C1160  N1213   1.385   .     A
C1160  C1171   1.522   .     S
C1160  C725    1.437   1_565 S
C1161  C1162   1.544   .     S
C1161  H1182   1.102   .     S
C1161  H1183   1.108   .     S
C1162  H1211   1.106   .     S
C1162  C1163   1.529   .     S
C1162  H1212   1.094   .     S
C1163  H1210   1.111   .     S
C1163  H1856   1.107   .     S
C1163  H1857   1.108   .     S
C1164  O1216   1.299   .     A
C1164  O1217   1.302   .     A
C1165  C1166   1.542   .     S
C1165  H1190   1.101   .     S
C1165  H1189   1.106   .     S
C1166  C1167   1.526   .     S
C1166  H1188   1.111   .     S
C1166  H1187   1.110   .     S
C1167  H1186   1.111   .     S
C1167  H752    1.110   1_565 S
C1167  H753    1.110   1_565 S
C1168  H1197   1.103   .     S
C1168  H1198   1.113   .     S
C1168  C1169   1.537   .     S
C1169  H1195   1.101   .     S
C1169  H1196   1.101   .     S
C1169  C1170   1.526   .     S
C1171  C1172   1.542   .     S
C1171  H1205   1.098   .     S
C1171  H1206   1.103   .     S
C1172  H1204   1.106   .     S
C1172  H1202   1.111   .     S
C1172  C1173   1.528   .     S
C1173  H1200   1.106   .     S
C1173  H1199   1.110   .     S
C1173  H1849   1.111   .     S
C1174  C1176   1.359   .     S
C1174  O1219   1.293   .     A
C1174  O1222   1.296   .     A
C1175  O1220   1.295   .     A
C1175  C1177   1.359   .     S
C1175  O1221   1.294   .     A
C1177  C1824   1.162   .     S
C1178  H1181   1.080   .     S
C1179  H1192   1.077   .     S
C1179  C1226   1.371   .     S
C1180  H1203   1.084   .     S
C1180  C1250   1.372   .     S
H1191  C1818   1.106   .     S
H1193  C1818   1.111   .     S
H1194  C1818   1.111   .     S
N1213  Zn1223  2.060   .     S
N1214  Zn1224  2.060   .     S
O1215  Zn1223  1.983   .     S
O1216  Zn1224  1.983   .     S
O1217  Zn1223  1.986   .     S
O1218  Zn1224  1.986   .     S
O1219  Zn1223  1.935   .     S
O1220  Zn1224  1.935   .     S
O1221  Zn1223  1.937   .     S
O1222  Zn1224  1.937   .     S
C1225  C1228   1.410   .     S
C1225  O1287   1.303   .     A
C1225  O1290   1.298   .     A
C1226  C1228   1.392   .     A
C1226  H1279   1.083   .     S
C1227  C1251   1.393   .     A
C1227  C1252   1.394   .     A
C1227  C1236   1.410   .     S
C1228  C1250   1.396   .     A
C1229  C1233   1.529   .     S
C1229  N1286   1.391   .     A
C1230  C1237   1.516   .     S
C1230  N1285   1.379   .     A
C1230  C799    1.435   1_565 S
C1231  N1286   1.389   .     A
C1231  C1240   1.521   .     S
C1232  N1285   1.385   .     A
C1232  C1243   1.522   .     S
C1232  C797    1.437   1_565 S
C1233  C1234   1.544   .     S
C1233  H1254   1.102   .     S
C1233  H1255   1.108   .     S
C1234  H1283   1.106   .     S
C1234  C1235   1.529   .     S
C1234  H1284   1.094   .     S
C1235  H1282   1.111   .     S
C1235  H1928   1.107   .     S
C1235  H1929   1.108   .     S
C1236  O1288   1.299   .     A
C1236  O1289   1.302   .     A
C1237  C1238   1.542   .     S
C1237  H1262   1.101   .     S
C1237  H1261   1.106   .     S
C1238  C1239   1.526   .     S
C1238  H1260   1.111   .     S
C1238  H1259   1.110   .     S
C1239  H1258   1.111   .     S
C1239  H824    1.110   1_565 S
C1239  H825    1.110   1_565 S
C1240  H1269   1.103   .     S
C1240  H1270   1.113   .     S
C1240  C1241   1.537   .     S
C1241  H1267   1.101   .     S
C1241  H1268   1.101   .     S
C1241  C1242   1.526   .     S
C1243  C1244   1.542   .     S
C1243  H1277   1.098   .     S
C1243  H1278   1.103   .     S
C1244  H1276   1.106   .     S
C1244  H1274   1.111   .     S
C1244  C1245   1.528   .     S
C1245  H1272   1.106   .     S
C1245  H1271   1.110   .     S
C1245  H1921   1.111   .     S
C1246  C1248   1.359   .     S
C1246  O1291   1.293   .     A
C1246  O1294   1.296   .     A
C1247  O1292   1.295   .     A
C1247  C1249   1.359   .     S
C1247  O1293   1.294   .     A
C1249  C1896   1.162   .     S
C1250  H1253   1.080   .     S
C1251  H1264   1.077   .     S
C1251  C1082   1.371   1_655 S
C1252  H1275   1.084   .     S
C1252  C1106   1.372   1_655 S
H1263  C1890   1.106   .     S
H1265  C1890   1.111   .     S
H1266  C1890   1.111   .     S
N1285  Zn1295  2.060   .     S
N1286  Zn1296  2.060   .     S
O1287  Zn1295  1.983   .     S
O1288  Zn1296  1.983   .     S
O1289  Zn1295  1.986   .     S
O1290  Zn1296  1.986   .     S
O1291  Zn1295  1.935   .     S
O1292  Zn1296  1.935   .     S
O1293  Zn1295  1.937   .     S
O1294  Zn1296  1.937   .     S
C1297  C1300   1.410   .     S
C1297  O1359   1.303   .     A
C1297  O1362   1.298   .     A
C1298  C1300   1.392   .     A
C1298  H1351   1.083   .     S
C1298  C1467   1.371   1_455 S
C1299  C1323   1.393   .     A
C1299  C1324   1.394   .     A
C1299  C1308   1.410   .     S
C1300  C1322   1.396   .     A
C1301  C1305   1.529   .     S
C1301  N1358   1.391   .     A
C1301  C1736   1.437   1_545 S
C1302  C1309   1.516   .     S
C1302  N1357   1.379   .     A
C1302  C1519   1.435   .     S
C1303  N1358   1.389   .     A
C1303  C1312   1.521   .     S
C1303  C1734   1.435   1_545 S
C1304  N1357   1.385   .     A
C1304  C1315   1.522   .     S
C1304  C1517   1.437   .     S
C1305  C1306   1.544   .     S
C1305  H1326   1.102   .     S
C1305  H1327   1.108   .     S
C1306  H1355   1.106   .     S
C1306  C1307   1.529   .     S
C1306  H1356   1.094   .     S
C1307  H1354   1.111   .     S
C1307  H56     1.107   1_556 S
C1307  H57     1.108   1_556 S
C1308  O1360   1.299   .     A
C1308  O1361   1.302   .     A
C1309  C1310   1.542   .     S
C1309  H1334   1.101   .     S
C1309  H1333   1.106   .     S
C1310  C1311   1.526   .     S
C1310  H1332   1.111   .     S
C1310  H1331   1.110   .     S
C1311  H1330   1.111   .     S
C1311  H1544   1.110   .     S
C1311  H1545   1.110   .     S
C1312  H1341   1.103   .     S
C1312  H1342   1.113   .     S
C1312  C1313   1.537   .     S
C1313  H1339   1.101   .     S
C1313  H1340   1.101   .     S
C1313  C1314   1.526   .     S
C1315  C1316   1.542   .     S
C1315  H1349   1.098   .     S
C1315  H1350   1.103   .     S
C1316  H1348   1.106   .     S
C1316  H1346   1.111   .     S
C1316  C1317   1.528   .     S
C1317  H1344   1.106   .     S
C1317  H1343   1.110   .     S
C1317  H49     1.111   1_556 S
C1318  C1320   1.359   .     S
C1318  O1363   1.293   .     A
C1318  O1366   1.296   .     A
C1319  O1364   1.295   .     A
C1319  C1321   1.359   .     S
C1319  O1365   1.294   .     A
C1321  C24     1.162   1_556 S
C1322  H1325   1.080   .     S
C1322  C1468   1.372   1_455 S
C1323  H1336   1.077   .     S
C1323  C1370   1.371   .     S
C1324  H1347   1.084   .     S
C1324  C1394   1.372   .     S
H1328  C1743   1.110   1_545 S
H1329  C1743   1.110   1_545 S
H1335  C18     1.106   1_556 S
H1337  C18     1.111   1_556 S
H1338  C18     1.111   1_556 S
N1357  Zn1367  2.060   .     S
N1358  Zn1368  2.060   .     S
O1359  Zn1367  1.983   .     S
O1360  Zn1368  1.983   .     S
O1361  Zn1367  1.986   .     S
O1362  Zn1368  1.986   .     S
O1363  Zn1367  1.935   .     S
O1364  Zn1368  1.935   .     S
O1365  Zn1367  1.937   .     S
O1366  Zn1368  1.937   .     S
C1369  C1372   1.410   .     S
C1369  O1431   1.303   .     A
C1369  O1434   1.298   .     A
C1370  C1372   1.392   .     A
C1370  H1423   1.083   .     S
C1371  C1395   1.393   .     A
C1371  C1396   1.394   .     A
C1371  C1380   1.410   .     S
C1372  C1394   1.396   .     A
C1373  C1377   1.529   .     S
C1373  N1430   1.391   .     A
C1373  C1808   1.437   1_545 S
C1374  C1381   1.516   .     S
C1374  N1429   1.379   .     A
C1374  C1591   1.435   .     S
C1375  N1430   1.389   .     A
C1375  C1384   1.521   .     S
C1375  C1806   1.435   1_545 S
C1376  N1429   1.385   .     A
C1376  C1387   1.522   .     S
C1376  C1589   1.437   .     S
C1377  C1378   1.544   .     S
C1377  H1398   1.102   .     S
C1377  H1399   1.108   .     S
C1378  H1427   1.106   .     S
C1378  C1379   1.529   .     S
C1378  H1428   1.094   .     S
C1379  H1426   1.111   .     S
C1379  H128    1.107   1_556 S
C1379  H129    1.108   1_556 S
C1380  O1432   1.299   .     A
C1380  O1433   1.302   .     A
C1381  C1382   1.542   .     S
C1381  H1406   1.101   .     S
C1381  H1405   1.106   .     S
C1382  C1383   1.526   .     S
C1382  H1404   1.111   .     S
C1382  H1403   1.110   .     S
C1383  H1402   1.111   .     S
C1383  H1616   1.110   .     S
C1383  H1617   1.110   .     S
C1384  H1413   1.103   .     S
C1384  H1414   1.113   .     S
C1384  C1385   1.537   .     S
C1385  H1411   1.101   .     S
C1385  H1412   1.101   .     S
C1385  C1386   1.526   .     S
C1387  C1388   1.542   .     S
C1387  H1421   1.098   .     S
C1387  H1422   1.103   .     S
C1388  H1420   1.106   .     S
C1388  H1418   1.111   .     S
C1388  C1389   1.528   .     S
C1389  H1416   1.106   .     S
C1389  H1415   1.110   .     S
C1389  H121    1.111   1_556 S
C1390  C1392   1.359   .     S
C1390  O1435   1.293   .     A
C1390  O1438   1.296   .     A
C1391  O1436   1.295   .     A
C1391  C1393   1.359   .     S
C1391  O1437   1.294   .     A
C1393  C96     1.162   1_556 S
C1394  H1397   1.080   .     S
C1395  H1408   1.077   .     S
C1395  C1442   1.371   .     S
C1396  H1419   1.084   .     S
C1396  C1466   1.372   .     S
H1400  C1815   1.110   1_545 S
H1401  C1815   1.110   1_545 S
H1407  C90     1.106   1_556 S
H1409  C90     1.111   1_556 S
H1410  C90     1.111   1_556 S
N1429  Zn1439  2.060   .     S
N1430  Zn1440  2.060   .     S
O1431  Zn1439  1.983   .     S
O1432  Zn1440  1.983   .     S
O1433  Zn1439  1.986   .     S
O1434  Zn1440  1.986   .     S
O1435  Zn1439  1.935   .     S
O1436  Zn1440  1.935   .     S
O1437  Zn1439  1.937   .     S
O1438  Zn1440  1.937   .     S
C1441  C1444   1.410   .     S
C1441  O1503   1.303   .     A
C1441  O1506   1.298   .     A
C1442  C1444   1.392   .     A
C1442  H1495   1.083   .     S
C1443  C1467   1.393   .     A
C1443  C1468   1.394   .     A
C1443  C1452   1.410   .     S
C1444  C1466   1.396   .     A
C1445  C1449   1.529   .     S
C1445  N1502   1.391   .     A
C1445  C1880   1.437   1_545 S
C1446  C1453   1.516   .     S
C1446  N1501   1.379   .     A
C1446  C1663   1.435   .     S
C1447  N1502   1.389   .     A
C1447  C1456   1.521   .     S
C1447  C1878   1.435   1_545 S
C1448  N1501   1.385   .     A
C1448  C1459   1.522   .     S
C1448  C1661   1.437   .     S
C1449  C1450   1.544   .     S
C1449  H1470   1.102   .     S
C1449  H1471   1.108   .     S
C1450  H1499   1.106   .     S
C1450  C1451   1.529   .     S
C1450  H1500   1.094   .     S
C1451  H1498   1.111   .     S
C1451  H200    1.107   1_556 S
C1451  H201    1.108   1_556 S
C1452  O1504   1.299   .     A
C1452  O1505   1.302   .     A
C1453  C1454   1.542   .     S
C1453  H1478   1.101   .     S
C1453  H1477   1.106   .     S
C1454  C1455   1.526   .     S
C1454  H1476   1.111   .     S
C1454  H1475   1.110   .     S
C1455  H1474   1.111   .     S
C1455  H1688   1.110   .     S
C1455  H1689   1.110   .     S
C1456  H1485   1.103   .     S
C1456  H1486   1.113   .     S
C1456  C1457   1.537   .     S
C1457  H1483   1.101   .     S
C1457  H1484   1.101   .     S
C1457  C1458   1.526   .     S
C1459  C1460   1.542   .     S
C1459  H1493   1.098   .     S
C1459  H1494   1.103   .     S
C1460  H1492   1.106   .     S
C1460  H1490   1.111   .     S
C1460  C1461   1.528   .     S
C1461  H1488   1.106   .     S
C1461  H1487   1.110   .     S
C1461  H193    1.111   1_556 S
C1462  C1464   1.359   .     S
C1462  O1507   1.293   .     A
C1462  O1510   1.296   .     A
C1463  O1508   1.295   .     A
C1463  C1465   1.359   .     S
C1463  O1509   1.294   .     A
C1465  C168    1.162   1_556 S
C1466  H1469   1.080   .     S
C1467  H1480   1.077   .     S
C1467  C1298   1.371   1_655 S
C1468  H1491   1.084   .     S
C1468  C1322   1.372   1_655 S
H1472  C1887   1.110   1_545 S
H1473  C1887   1.110   1_545 S
H1479  C162    1.106   1_556 S
H1481  C162    1.111   1_556 S
H1482  C162    1.111   1_556 S
N1501  Zn1511  2.060   .     S
N1502  Zn1512  2.060   .     S
O1503  Zn1511  1.983   .     S
O1504  Zn1512  1.983   .     S
O1505  Zn1511  1.986   .     S
O1506  Zn1512  1.986   .     S
O1507  Zn1511  1.935   .     S
O1508  Zn1512  1.935   .     S
O1509  Zn1511  1.937   .     S
O1510  Zn1512  1.937   .     S
C1513  C1516   1.410   .     S
C1513  O1575   1.303   .     A
C1513  O1578   1.298   .     A
C1514  C1516   1.392   .     A
C1514  H1567   1.083   .     S
C1514  C1683   1.371   1_455 S
C1515  C1539   1.393   .     A
C1515  C1540   1.394   .     A
C1515  C1524   1.410   .     S
C1516  C1538   1.396   .     A
C1517  C1521   1.529   .     S
C1517  N1574   1.391   .     A
C1518  C1525   1.516   .     S
C1518  N1573   1.379   .     A
C1518  C1735   1.435   .     S
C1519  N1574   1.389   .     A
C1519  C1528   1.521   .     S
C1520  N1573   1.385   .     A
C1520  C1531   1.522   .     S
C1520  C1733   1.437   .     S
C1521  C1522   1.544   .     S
C1521  H1542   1.102   .     S
C1521  H1543   1.108   .     S
C1522  H1571   1.106   .     S
C1522  C1523   1.529   .     S
C1522  H1572   1.094   .     S
C1523  H1570   1.111   .     S
C1523  H272    1.107   1_556 S
C1523  H273    1.108   1_556 S
C1524  O1576   1.299   .     A
C1524  O1577   1.302   .     A
C1525  C1526   1.542   .     S
C1525  H1550   1.101   .     S
C1525  H1549   1.106   .     S
C1526  C1527   1.526   .     S
C1526  H1548   1.111   .     S
C1526  H1547   1.110   .     S
C1527  H1546   1.111   .     S
C1527  H1760   1.110   .     S
C1527  H1761   1.110   .     S
C1528  H1557   1.103   .     S
C1528  H1558   1.113   .     S
C1528  C1529   1.537   .     S
C1529  H1555   1.101   .     S
C1529  H1556   1.101   .     S
C1529  C1530   1.526   .     S
C1531  C1532   1.542   .     S
C1531  H1565   1.098   .     S
C1531  H1566   1.103   .     S
C1532  H1564   1.106   .     S
C1532  H1562   1.111   .     S
C1532  C1533   1.528   .     S
C1533  H1560   1.106   .     S
C1533  H1559   1.110   .     S
C1533  H265    1.111   1_556 S
C1534  C1536   1.359   .     S
C1534  O1579   1.293   .     A
C1534  O1582   1.296   .     A
C1535  O1580   1.295   .     A
C1535  C1537   1.359   .     S
C1535  O1581   1.294   .     A
C1537  C240    1.162   1_556 S
C1538  H1541   1.080   .     S
C1538  C1684   1.372   1_455 S
C1539  H1552   1.077   .     S
C1539  C1586   1.371   .     S
C1540  H1563   1.084   .     S
C1540  C1610   1.372   .     S
H1551  C234    1.106   1_556 S
H1553  C234    1.111   1_556 S
H1554  C234    1.111   1_556 S
N1573  Zn1583  2.060   .     S
N1574  Zn1584  2.060   .     S
O1575  Zn1583  1.983   .     S
O1576  Zn1584  1.983   .     S
O1577  Zn1583  1.986   .     S
O1578  Zn1584  1.986   .     S
O1579  Zn1583  1.935   .     S
O1580  Zn1584  1.935   .     S
O1581  Zn1583  1.937   .     S
O1582  Zn1584  1.937   .     S
C1585  C1588   1.410   .     S
C1585  O1647   1.303   .     A
C1585  O1650   1.298   .     A
C1586  C1588   1.392   .     A
C1586  H1639   1.083   .     S
C1587  C1611   1.393   .     A
C1587  C1612   1.394   .     A
C1587  C1596   1.410   .     S
C1588  C1610   1.396   .     A
C1589  C1593   1.529   .     S
C1589  N1646   1.391   .     A
C1590  C1597   1.516   .     S
C1590  N1645   1.379   .     A
C1590  C1807   1.435   .     S
C1591  N1646   1.389   .     A
C1591  C1600   1.521   .     S
C1592  N1645   1.385   .     A
C1592  C1603   1.522   .     S
C1592  C1805   1.437   .     S
C1593  C1594   1.544   .     S
C1593  H1614   1.102   .     S
C1593  H1615   1.108   .     S
C1594  H1643   1.106   .     S
C1594  C1595   1.529   .     S
C1594  H1644   1.094   .     S
C1595  H1642   1.111   .     S
C1595  H344    1.107   1_556 S
C1595  H345    1.108   1_556 S
C1596  O1648   1.299   .     A
C1596  O1649   1.302   .     A
C1597  C1598   1.542   .     S
C1597  H1622   1.101   .     S
C1597  H1621   1.106   .     S
C1598  C1599   1.526   .     S
C1598  H1620   1.111   .     S
C1598  H1619   1.110   .     S
C1599  H1618   1.111   .     S
C1599  H1832   1.110   .     S
C1599  H1833   1.110   .     S
C1600  H1629   1.103   .     S
C1600  H1630   1.113   .     S
C1600  C1601   1.537   .     S
C1601  H1627   1.101   .     S
C1601  H1628   1.101   .     S
C1601  C1602   1.526   .     S
C1603  C1604   1.542   .     S
C1603  H1637   1.098   .     S
C1603  H1638   1.103   .     S
C1604  H1636   1.106   .     S
C1604  H1634   1.111   .     S
C1604  C1605   1.528   .     S
C1605  H1632   1.106   .     S
C1605  H1631   1.110   .     S
C1605  H337    1.111   1_556 S
C1606  C1608   1.359   .     S
C1606  O1651   1.293   .     A
C1606  O1654   1.296   .     A
C1607  O1652   1.295   .     A
C1607  C1609   1.359   .     S
C1607  O1653   1.294   .     A
C1609  C312    1.162   1_556 S
C1610  H1613   1.080   .     S
C1611  H1624   1.077   .     S
C1611  C1658   1.371   .     S
C1612  H1635   1.084   .     S
C1612  C1682   1.372   .     S
H1623  C306    1.106   1_556 S
H1625  C306    1.111   1_556 S
H1626  C306    1.111   1_556 S
N1645  Zn1655  2.060   .     S
N1646  Zn1656  2.060   .     S
O1647  Zn1655  1.983   .     S
O1648  Zn1656  1.983   .     S
O1649  Zn1655  1.986   .     S
O1650  Zn1656  1.986   .     S
O1651  Zn1655  1.935   .     S
O1652  Zn1656  1.935   .     S
O1653  Zn1655  1.937   .     S
O1654  Zn1656  1.937   .     S
C1657  C1660   1.410   .     S
C1657  O1719   1.303   .     A
C1657  O1722   1.298   .     A
C1658  C1660   1.392   .     A
C1658  H1711   1.083   .     S
C1659  C1683   1.393   .     A
C1659  C1684   1.394   .     A
C1659  C1668   1.410   .     S
C1660  C1682   1.396   .     A
C1661  C1665   1.529   .     S
C1661  N1718   1.391   .     A
C1662  C1669   1.516   .     S
C1662  N1717   1.379   .     A
C1662  C1879   1.435   .     S
C1663  N1718   1.389   .     A
C1663  C1672   1.521   .     S
C1664  N1717   1.385   .     A
C1664  C1675   1.522   .     S
C1664  C1877   1.437   .     S
C1665  C1666   1.544   .     S
C1665  H1686   1.102   .     S
C1665  H1687   1.108   .     S
C1666  H1715   1.106   .     S
C1666  C1667   1.529   .     S
C1666  H1716   1.094   .     S
C1667  H1714   1.111   .     S
C1667  H416    1.107   1_556 S
C1667  H417    1.108   1_556 S
C1668  O1720   1.299   .     A
C1668  O1721   1.302   .     A
C1669  C1670   1.542   .     S
C1669  H1694   1.101   .     S
C1669  H1693   1.106   .     S
C1670  C1671   1.526   .     S
C1670  H1692   1.111   .     S
C1670  H1691   1.110   .     S
C1671  H1690   1.111   .     S
C1671  H1904   1.110   .     S
C1671  H1905   1.110   .     S
C1672  H1701   1.103   .     S
C1672  H1702   1.113   .     S
C1672  C1673   1.537   .     S
C1673  H1699   1.101   .     S
C1673  H1700   1.101   .     S
C1673  C1674   1.526   .     S
C1675  C1676   1.542   .     S
C1675  H1709   1.098   .     S
C1675  H1710   1.103   .     S
C1676  H1708   1.106   .     S
C1676  H1706   1.111   .     S
C1676  C1677   1.528   .     S
C1677  H1704   1.106   .     S
C1677  H1703   1.110   .     S
C1677  H409    1.111   1_556 S
C1678  C1680   1.359   .     S
C1678  O1723   1.293   .     A
C1678  O1726   1.296   .     A
C1679  O1724   1.295   .     A
C1679  C1681   1.359   .     S
C1679  O1725   1.294   .     A
C1681  C384    1.162   1_556 S
C1682  H1685   1.080   .     S
C1683  H1696   1.077   .     S
C1683  C1514   1.371   1_655 S
C1684  H1707   1.084   .     S
C1684  C1538   1.372   1_655 S
H1695  C378    1.106   1_556 S
H1697  C378    1.111   1_556 S
H1698  C378    1.111   1_556 S
N1717  Zn1727  2.060   .     S
N1718  Zn1728  2.060   .     S
O1719  Zn1727  1.983   .     S
O1720  Zn1728  1.983   .     S
O1721  Zn1727  1.986   .     S
O1722  Zn1728  1.986   .     S
O1723  Zn1727  1.935   .     S
O1724  Zn1728  1.935   .     S
O1725  Zn1727  1.937   .     S
O1726  Zn1728  1.937   .     S
C1729  C1732   1.410   .     S
C1729  O1791   1.303   .     A
C1729  O1794   1.298   .     A
C1730  C1732   1.392   .     A
C1730  H1783   1.083   .     S
C1730  C1899   1.371   1_455 S
C1731  C1755   1.393   .     A
C1731  C1756   1.394   .     A
C1731  C1740   1.410   .     S
C1732  C1754   1.396   .     A
C1733  C1737   1.529   .     S
C1733  N1790   1.391   .     A
C1734  C1741   1.516   .     S
C1734  N1789   1.379   .     A
C1734  C1303   1.435   1_565 S
C1735  N1790   1.389   .     A
C1735  C1744   1.521   .     S
C1736  N1789   1.385   .     A
C1736  C1747   1.522   .     S
C1736  C1301   1.437   1_565 S
C1737  C1738   1.544   .     S
C1737  H1758   1.102   .     S
C1737  H1759   1.108   .     S
C1738  H1787   1.106   .     S
C1738  C1739   1.529   .     S
C1738  H1788   1.094   .     S
C1739  H1786   1.111   .     S
C1739  H488    1.107   1_556 S
C1739  H489    1.108   1_556 S
C1740  O1792   1.299   .     A
C1740  O1793   1.302   .     A
C1741  C1742   1.542   .     S
C1741  H1766   1.101   .     S
C1741  H1765   1.106   .     S
C1742  C1743   1.526   .     S
C1742  H1764   1.111   .     S
C1742  H1763   1.110   .     S
C1743  H1762   1.111   .     S
C1743  H1328   1.110   1_565 S
C1743  H1329   1.110   1_565 S
C1744  H1773   1.103   .     S
C1744  H1774   1.113   .     S
C1744  C1745   1.537   .     S
C1745  H1771   1.101   .     S
C1745  H1772   1.101   .     S
C1745  C1746   1.526   .     S
C1747  C1748   1.542   .     S
C1747  H1781   1.098   .     S
C1747  H1782   1.103   .     S
C1748  H1780   1.106   .     S
C1748  H1778   1.111   .     S
C1748  C1749   1.528   .     S
C1749  H1776   1.106   .     S
C1749  H1775   1.110   .     S
C1749  H481    1.111   1_556 S
C1750  C1752   1.359   .     S
C1750  O1795   1.293   .     A
C1750  O1798   1.296   .     A
C1751  O1796   1.295   .     A
C1751  C1753   1.359   .     S
C1751  O1797   1.294   .     A
C1753  C456    1.162   1_556 S
C1754  H1757   1.080   .     S
C1754  C1900   1.372   1_455 S
C1755  H1768   1.077   .     S
C1755  C1802   1.371   .     S
C1756  H1779   1.084   .     S
C1756  C1826   1.372   .     S
H1767  C450    1.106   1_556 S
H1769  C450    1.111   1_556 S
H1770  C450    1.111   1_556 S
N1789  Zn1799  2.060   .     S
N1790  Zn1800  2.060   .     S
O1791  Zn1799  1.983   .     S
O1792  Zn1800  1.983   .     S
O1793  Zn1799  1.986   .     S
O1794  Zn1800  1.986   .     S
O1795  Zn1799  1.935   .     S
O1796  Zn1800  1.935   .     S
O1797  Zn1799  1.937   .     S
O1798  Zn1800  1.937   .     S
C1801  C1804   1.410   .     S
C1801  O1863   1.303   .     A
C1801  O1866   1.298   .     A
C1802  C1804   1.392   .     A
C1802  H1855   1.083   .     S
C1803  C1827   1.393   .     A
C1803  C1828   1.394   .     A
C1803  C1812   1.410   .     S
C1804  C1826   1.396   .     A
C1805  C1809   1.529   .     S
C1805  N1862   1.391   .     A
C1806  C1813   1.516   .     S
C1806  N1861   1.379   .     A
C1806  C1375   1.435   1_565 S
C1807  N1862   1.389   .     A
C1807  C1816   1.521   .     S
C1808  N1861   1.385   .     A
C1808  C1819   1.522   .     S
C1808  C1373   1.437   1_565 S
C1809  C1810   1.544   .     S
C1809  H1830   1.102   .     S
C1809  H1831   1.108   .     S
C1810  H1859   1.106   .     S
C1810  C1811   1.529   .     S
C1810  H1860   1.094   .     S
C1811  H1858   1.111   .     S
C1811  H560    1.107   1_556 S
C1811  H561    1.108   1_556 S
C1812  O1864   1.299   .     A
C1812  O1865   1.302   .     A
C1813  C1814   1.542   .     S
C1813  H1838   1.101   .     S
C1813  H1837   1.106   .     S
C1814  C1815   1.526   .     S
C1814  H1836   1.111   .     S
C1814  H1835   1.110   .     S
C1815  H1834   1.111   .     S
C1815  H1400   1.110   1_565 S
C1815  H1401   1.110   1_565 S
C1816  H1845   1.103   .     S
C1816  H1846   1.113   .     S
C1816  C1817   1.537   .     S
C1817  H1843   1.101   .     S
C1817  H1844   1.101   .     S
C1817  C1818   1.526   .     S
C1819  C1820   1.542   .     S
C1819  H1853   1.098   .     S
C1819  H1854   1.103   .     S
C1820  H1852   1.106   .     S
C1820  H1850   1.111   .     S
C1820  C1821   1.528   .     S
C1821  H1848   1.106   .     S
C1821  H1847   1.110   .     S
C1821  H553    1.111   1_556 S
C1822  C1824   1.359   .     S
C1822  O1867   1.293   .     A
C1822  O1870   1.296   .     A
C1823  O1868   1.295   .     A
C1823  C1825   1.359   .     S
C1823  O1869   1.294   .     A
C1825  C528    1.162   1_556 S
C1826  H1829   1.080   .     S
C1827  H1840   1.077   .     S
C1827  C1874   1.371   .     S
C1828  H1851   1.084   .     S
C1828  C1898   1.372   .     S
H1839  C522    1.106   1_556 S
H1841  C522    1.111   1_556 S
H1842  C522    1.111   1_556 S
N1861  Zn1871  2.060   .     S
N1862  Zn1872  2.060   .     S
O1863  Zn1871  1.983   .     S
O1864  Zn1872  1.983   .     S
O1865  Zn1871  1.986   .     S
O1866  Zn1872  1.986   .     S
O1867  Zn1871  1.935   .     S
O1868  Zn1872  1.935   .     S
O1869  Zn1871  1.937   .     S
O1870  Zn1872  1.937   .     S
C1873  C1876   1.410   .     S
C1873  O1935   1.303   .     A
C1873  O1938   1.298   .     A
C1874  C1876   1.392   .     A
C1874  H1927   1.083   .     S
C1875  C1899   1.393   .     A
C1875  C1900   1.394   .     A
C1875  C1884   1.410   .     S
C1876  C1898   1.396   .     A
C1877  C1881   1.529   .     S
C1877  N1934   1.391   .     A
C1878  C1885   1.516   .     S
C1878  N1933   1.379   .     A
C1878  C1447   1.435   1_565 S
C1879  N1934   1.389   .     A
C1879  C1888   1.521   .     S
C1880  N1933   1.385   .     A
C1880  C1891   1.522   .     S
C1880  C1445   1.437   1_565 S
C1881  C1882   1.544   .     S
C1881  H1902   1.102   .     S
C1881  H1903   1.108   .     S
C1882  H1931   1.106   .     S
C1882  C1883   1.529   .     S
C1882  H1932   1.094   .     S
C1883  H1930   1.111   .     S
C1883  H632    1.107   1_556 S
C1883  H633    1.108   1_556 S
C1884  O1936   1.299   .     A
C1884  O1937   1.302   .     A
C1885  C1886   1.542   .     S
C1885  H1910   1.101   .     S
C1885  H1909   1.106   .     S
C1886  C1887   1.526   .     S
C1886  H1908   1.111   .     S
C1886  H1907   1.110   .     S
C1887  H1906   1.111   .     S
C1887  H1472   1.110   1_565 S
C1887  H1473   1.110   1_565 S
C1888  H1917   1.103   .     S
C1888  H1918   1.113   .     S
C1888  C1889   1.537   .     S
C1889  H1915   1.101   .     S
C1889  H1916   1.101   .     S
C1889  C1890   1.526   .     S
C1891  C1892   1.542   .     S
C1891  H1925   1.098   .     S
C1891  H1926   1.103   .     S
C1892  H1924   1.106   .     S
C1892  H1922   1.111   .     S
C1892  C1893   1.528   .     S
C1893  H1920   1.106   .     S
C1893  H1919   1.110   .     S
C1893  H625    1.111   1_556 S
C1894  C1896   1.359   .     S
C1894  O1939   1.293   .     A
C1894  O1942   1.296   .     A
C1895  O1940   1.295   .     A
C1895  C1897   1.359   .     S
C1895  O1941   1.294   .     A
C1897  C600    1.162   1_556 S
C1898  H1901   1.080   .     S
C1899  H1912   1.077   .     S
C1899  C1730   1.371   1_655 S
C1900  H1923   1.084   .     S
C1900  C1754   1.372   1_655 S
H1911  C594    1.106   1_556 S
H1913  C594    1.111   1_556 S
H1914  C594    1.111   1_556 S
N1933  Zn1943  2.060   .     S
N1934  Zn1944  2.060   .     S
O1935  Zn1943  1.983   .     S
O1936  Zn1944  1.983   .     S
O1937  Zn1943  1.986   .     S
O1938  Zn1944  1.986   .     S
O1939  Zn1943  1.935   .     S
O1940  Zn1944  1.935   .     S
O1941  Zn1943  1.937   .     S
O1942  Zn1944  1.937   .     S
