data_str_m3_o1_o10_pcu_sym.98
_audit_creation_date              2020-01-03
_audit_creation_method            'Materials Studio'
_symmetry_space_group_name_H-M    'P1'
_symmetry_Int_Tables_number       1
_symmetry_cell_setting            triclinic
loop_
_symmetry_equiv_pos_as_xyz
  x,y,z
_cell_length_a                    25.7351
_cell_length_b                    31.9236
_cell_length_c                    29.7920
_cell_angle_alpha                 88.9301
_cell_angle_beta                  98.1212
_cell_angle_gamma                 91.5506
loop_
_atom_site_label
_atom_site_type_symbol
_atom_site_fract_x
_atom_site_fract_y
_atom_site_fract_z
_atom_site_U_iso_or_equiv
_atom_site_adp_type
_atom_site_occupancy
C1     C     0.16647   0.08676   0.16690   0.00000  Uiso   1.00
C2     C     0.16686   0.24657   0.16643   0.00000  Uiso   1.00
C3     C     0.06719   0.16663   0.15485   0.00000  Uiso   1.00
C4     C     0.26614   0.16671   0.17849   0.00000  Uiso   1.00
C5     C     0.01219   0.16676   0.14847   0.00000  Uiso   1.00
C6     C     0.32115   0.16657   0.18486   0.00000  Uiso   1.00
C7     C     0.13773   0.02153   0.13057   0.00000  Uiso   1.00
C8     C     0.19560   0.31180   0.20277   0.00000  Uiso   1.00
C9     C     0.13797   0.31191   0.13024   0.00000  Uiso   1.00
C10    C     0.19536   0.02143   0.20310   0.00000  Uiso   1.00
C11    C     0.16707   0.29075   0.16624   0.00000  Uiso   1.00
C12    C     0.16626   0.04259   0.16710   0.00000  Uiso   1.00
C13    C     0.19727   0.19518   0.02621   0.00000  Uiso   1.00
C14    C     0.13607   0.13815   0.30712   0.00000  Uiso   1.00
C15    C     0.19709   0.19457   0.31187   0.00000  Uiso   1.00
C16    C     0.13624   0.13876   0.02146   0.00000  Uiso   1.00
H17    H     0.11502   0.29525   0.10255   0.00000  Uiso   1.00
H18    H     0.21831   0.03808   0.23079   0.00000  Uiso   1.00
N19    N     0.16665   0.16666   0.28573   0.00000  Uiso   1.00
N20    N     0.16668   0.16668   0.04760   0.00000  Uiso   1.00
O21    O     0.16666   0.10558   0.20487   0.00000  Uiso   1.00
O22    O     0.16667   0.22775   0.12846   0.00000  Uiso   1.00
O23    O     0.16666   0.10559   0.12843   0.00000  Uiso   1.00
O24    O     0.16667   0.22774   0.20490   0.00000  Uiso   1.00
O25    O     0.09058   0.16666   0.19595   0.00000  Uiso   1.00
O26    O     0.24275   0.16667   0.13739   0.00000  Uiso   1.00
O27    O     0.09058   0.16667   0.11950   0.00000  Uiso   1.00
O28    O     0.24275   0.16666   0.21383   0.00000  Uiso   1.00
Zn29   Zn    0.16667   0.16666   0.21771   0.00000  Uiso   1.00
Zn30   Zn    0.16667   0.16667   0.11563   0.00000  Uiso   1.00
H31    H     0.32522   0.16707   0.11385   0.00000  Uiso   1.00
H32    H     0.00811   0.16627   0.21948   0.00000  Uiso   1.00
H33    H     0.11499   0.03826   0.10281   0.00000  Uiso   1.00
H34    H     0.21834   0.29507   0.23053   0.00000  Uiso   1.00
C35    C     0.23255   0.22813   0.05142   0.00000  Uiso   1.00
C36    C     0.21150   0.27228   0.04052   0.00000  Uiso   1.00
C37    C     0.24582   0.30548   0.06750   0.00000  Uiso   1.00
H38    H     0.24782   0.29913   0.10447   0.00000  Uiso   1.00
H39    H     0.28616   0.30575   0.05826   0.00000  Uiso   1.00
H40    H     0.22887   0.00352   0.05973   0.00000  Uiso   1.00
H41    H     0.21046   0.27966   0.00381   0.00000  Uiso   1.00
H42    H     0.17082   0.27377   0.04866   0.00000  Uiso   1.00
H43    H     0.23762   0.22288   0.08808   0.00000  Uiso   1.00
H44    H     0.27247   0.22628   0.04145   0.00000  Uiso   1.00
C45    C     0.10078   0.10520   0.28191   0.00000  Uiso   1.00
C46    C     0.12183   0.06105   0.29281   0.00000  Uiso   1.00
C47    C     0.08750   0.02785   0.26583   0.00000  Uiso   1.00
H48    H     0.04716   0.02760   0.27507   0.00000  Uiso   1.00
H49    H     0.08552   0.03420   0.22887   0.00000  Uiso   1.00
H50    H     0.10444   0.32981   0.27362   0.00000  Uiso   1.00
H51    H     0.16251   0.05956   0.28468   0.00000  Uiso   1.00
H52    H     0.12287   0.05368   0.32953   0.00000  Uiso   1.00
H53    H     0.06086   0.10706   0.29188   0.00000  Uiso   1.00
H54    H     0.09571   0.11045   0.24525   0.00000  Uiso   1.00
H55    H     0.22154   0.21657   0.29564   0.00000  Uiso   1.00
H56    H     0.11180   0.11676   0.03770   0.00000  Uiso   1.00
C57    C     0.49981   0.08676   0.16690   0.00000  Uiso   1.00
C58    C     0.50019   0.24657   0.16643   0.00000  Uiso   1.00
C59    C     0.40052   0.16663   0.15485   0.00000  Uiso   1.00
C60    C     0.59948   0.16671   0.17849   0.00000  Uiso   1.00
C61    C     0.34552   0.16676   0.14847   0.00000  Uiso   1.00
C62    C     0.65448   0.16657   0.18486   0.00000  Uiso   1.00
C63    C     0.47106   0.02153   0.13057   0.00000  Uiso   1.00
C64    C     0.52894   0.31180   0.20277   0.00000  Uiso   1.00
C65    C     0.47130   0.31191   0.13024   0.00000  Uiso   1.00
C66    C     0.52869   0.02143   0.20310   0.00000  Uiso   1.00
C67    C     0.50040   0.29075   0.16624   0.00000  Uiso   1.00
C68    C     0.49959   0.04259   0.16710   0.00000  Uiso   1.00
C69    C     0.53060   0.19518   0.02621   0.00000  Uiso   1.00
C70    C     0.46940   0.13815   0.30712   0.00000  Uiso   1.00
C71    C     0.53043   0.19457   0.31187   0.00000  Uiso   1.00
C72    C     0.46957   0.13876   0.02146   0.00000  Uiso   1.00
H73    H     0.44835   0.29525   0.10255   0.00000  Uiso   1.00
H74    H     0.55164   0.03808   0.23079   0.00000  Uiso   1.00
N75    N     0.49999   0.16666   0.28573   0.00000  Uiso   1.00
N76    N     0.50001   0.16668   0.04760   0.00000  Uiso   1.00
O77    O     0.50000   0.10558   0.20487   0.00000  Uiso   1.00
O78    O     0.50000   0.22775   0.12846   0.00000  Uiso   1.00
O79    O     0.50000   0.10559   0.12843   0.00000  Uiso   1.00
O80    O     0.50000   0.22774   0.20490   0.00000  Uiso   1.00
O81    O     0.42392   0.16666   0.19595   0.00000  Uiso   1.00
O82    O     0.57608   0.16667   0.13739   0.00000  Uiso   1.00
O83    O     0.42392   0.16667   0.11950   0.00000  Uiso   1.00
O84    O     0.57608   0.16666   0.21383   0.00000  Uiso   1.00
Zn85   Zn    0.50000   0.16666   0.21771   0.00000  Uiso   1.00
Zn86   Zn    0.50000   0.16667   0.11563   0.00000  Uiso   1.00
H87    H     0.65855   0.16707   0.11385   0.00000  Uiso   1.00
H88    H     0.34145   0.16627   0.21948   0.00000  Uiso   1.00
H89    H     0.44833   0.03826   0.10281   0.00000  Uiso   1.00
H90    H     0.55167   0.29507   0.23053   0.00000  Uiso   1.00
C91    C     0.56588   0.22813   0.05142   0.00000  Uiso   1.00
C92    C     0.54483   0.27228   0.04052   0.00000  Uiso   1.00
C93    C     0.57916   0.30548   0.06750   0.00000  Uiso   1.00
H94    H     0.58116   0.29913   0.10447   0.00000  Uiso   1.00
H95    H     0.61950   0.30575   0.05826   0.00000  Uiso   1.00
H96    H     0.56221   0.00352   0.05973   0.00000  Uiso   1.00
H97    H     0.54379   0.27966   0.00381   0.00000  Uiso   1.00
H98    H     0.50415   0.27377   0.04866   0.00000  Uiso   1.00
H99    H     0.57095   0.22288   0.08808   0.00000  Uiso   1.00
H100   H     0.60581   0.22628   0.04145   0.00000  Uiso   1.00
C101   C     0.43412   0.10520   0.28191   0.00000  Uiso   1.00
C102   C     0.45516   0.06105   0.29281   0.00000  Uiso   1.00
C103   C     0.42083   0.02785   0.26583   0.00000  Uiso   1.00
H104   H     0.38049   0.02760   0.27507   0.00000  Uiso   1.00
H105   H     0.41885   0.03420   0.22887   0.00000  Uiso   1.00
H106   H     0.43777   0.32981   0.27362   0.00000  Uiso   1.00
H107   H     0.49584   0.05956   0.28468   0.00000  Uiso   1.00
H108   H     0.45620   0.05368   0.32953   0.00000  Uiso   1.00
H109   H     0.39419   0.10706   0.29188   0.00000  Uiso   1.00
H110   H     0.42905   0.11045   0.24525   0.00000  Uiso   1.00
H111   H     0.55487   0.21657   0.29564   0.00000  Uiso   1.00
H112   H     0.44513   0.11676   0.03770   0.00000  Uiso   1.00
C113   C     0.83314   0.08676   0.16690   0.00000  Uiso   1.00
C114   C     0.83353   0.24657   0.16643   0.00000  Uiso   1.00
C115   C     0.73386   0.16663   0.15485   0.00000  Uiso   1.00
C116   C     0.93281   0.16671   0.17849   0.00000  Uiso   1.00
C117   C     0.67885   0.16676   0.14847   0.00000  Uiso   1.00
C118   C     0.98781   0.16657   0.18486   0.00000  Uiso   1.00
C119   C     0.80439   0.02153   0.13057   0.00000  Uiso   1.00
C120   C     0.86227   0.31180   0.20277   0.00000  Uiso   1.00
C121   C     0.80464   0.31191   0.13024   0.00000  Uiso   1.00
C122   C     0.86203   0.02143   0.20310   0.00000  Uiso   1.00
C123   C     0.83374   0.29075   0.16624   0.00000  Uiso   1.00
C124   C     0.83293   0.04259   0.16710   0.00000  Uiso   1.00
C125   C     0.86393   0.19518   0.02621   0.00000  Uiso   1.00
C126   C     0.80273   0.13815   0.30712   0.00000  Uiso   1.00
C127   C     0.86376   0.19457   0.31187   0.00000  Uiso   1.00
C128   C     0.80291   0.13876   0.02146   0.00000  Uiso   1.00
H129   H     0.78169   0.29525   0.10255   0.00000  Uiso   1.00
H130   H     0.88498   0.03808   0.23079   0.00000  Uiso   1.00
N131   N     0.83332   0.16666   0.28573   0.00000  Uiso   1.00
N132   N     0.83335   0.16668   0.04760   0.00000  Uiso   1.00
O133   O     0.83333   0.10558   0.20487   0.00000  Uiso   1.00
O134   O     0.83334   0.22775   0.12846   0.00000  Uiso   1.00
O135   O     0.83333   0.10559   0.12843   0.00000  Uiso   1.00
O136   O     0.83334   0.22774   0.20490   0.00000  Uiso   1.00
O137   O     0.75725   0.16666   0.19595   0.00000  Uiso   1.00
O138   O     0.90942   0.16667   0.13739   0.00000  Uiso   1.00
O139   O     0.75725   0.16667   0.11950   0.00000  Uiso   1.00
O140   O     0.90942   0.16666   0.21383   0.00000  Uiso   1.00
Zn141  Zn    0.83333   0.16666   0.21771   0.00000  Uiso   1.00
Zn142  Zn    0.83333   0.16667   0.11563   0.00000  Uiso   1.00
H143   H     0.99189   0.16707   0.11385   0.00000  Uiso   1.00
H144   H     0.67478   0.16627   0.21948   0.00000  Uiso   1.00
H145   H     0.78166   0.03826   0.10281   0.00000  Uiso   1.00
H146   H     0.88500   0.29507   0.23053   0.00000  Uiso   1.00
C147   C     0.89922   0.22813   0.05142   0.00000  Uiso   1.00
C148   C     0.87816   0.27228   0.04052   0.00000  Uiso   1.00
C149   C     0.91249   0.30548   0.06750   0.00000  Uiso   1.00
H150   H     0.91449   0.29913   0.10447   0.00000  Uiso   1.00
H151   H     0.95283   0.30575   0.05826   0.00000  Uiso   1.00
H152   H     0.89554   0.00352   0.05973   0.00000  Uiso   1.00
H153   H     0.87712   0.27966   0.00381   0.00000  Uiso   1.00
H154   H     0.83748   0.27377   0.04866   0.00000  Uiso   1.00
H155   H     0.90429   0.22288   0.08808   0.00000  Uiso   1.00
H156   H     0.93914   0.22628   0.04145   0.00000  Uiso   1.00
C157   C     0.76745   0.10520   0.28191   0.00000  Uiso   1.00
C158   C     0.78850   0.06105   0.29281   0.00000  Uiso   1.00
C159   C     0.75417   0.02785   0.26583   0.00000  Uiso   1.00
H160   H     0.71382   0.02760   0.27507   0.00000  Uiso   1.00
H161   H     0.75218   0.03420   0.22887   0.00000  Uiso   1.00
H162   H     0.77111   0.32981   0.27362   0.00000  Uiso   1.00
H163   H     0.82918   0.05956   0.28468   0.00000  Uiso   1.00
H164   H     0.78953   0.05368   0.32953   0.00000  Uiso   1.00
H165   H     0.72752   0.10706   0.29188   0.00000  Uiso   1.00
H166   H     0.76238   0.11045   0.24525   0.00000  Uiso   1.00
H167   H     0.88820   0.21657   0.29564   0.00000  Uiso   1.00
H168   H     0.77846   0.11676   0.03770   0.00000  Uiso   1.00
C169   C     0.16647   0.42009   0.16690   0.00000  Uiso   1.00
C170   C     0.16686   0.57991   0.16643   0.00000  Uiso   1.00
C171   C     0.06719   0.49996   0.15485   0.00000  Uiso   1.00
C172   C     0.26614   0.50004   0.17849   0.00000  Uiso   1.00
C173   C     0.01219   0.50009   0.14847   0.00000  Uiso   1.00
C174   C     0.32115   0.49991   0.18486   0.00000  Uiso   1.00
C175   C     0.13773   0.35486   0.13057   0.00000  Uiso   1.00
C176   C     0.19560   0.64514   0.20277   0.00000  Uiso   1.00
C177   C     0.13797   0.64524   0.13024   0.00000  Uiso   1.00
C178   C     0.19536   0.35476   0.20310   0.00000  Uiso   1.00
C179   C     0.16707   0.62408   0.16624   0.00000  Uiso   1.00
C180   C     0.16626   0.37592   0.16710   0.00000  Uiso   1.00
C181   C     0.19727   0.52851   0.02621   0.00000  Uiso   1.00
C182   C     0.13607   0.47149   0.30712   0.00000  Uiso   1.00
C183   C     0.19709   0.52790   0.31187   0.00000  Uiso   1.00
C184   C     0.13624   0.47210   0.02146   0.00000  Uiso   1.00
H185   H     0.11502   0.62859   0.10255   0.00000  Uiso   1.00
H186   H     0.21831   0.37141   0.23079   0.00000  Uiso   1.00
N187   N     0.16665   0.49999   0.28573   0.00000  Uiso   1.00
N188   N     0.16668   0.50001   0.04760   0.00000  Uiso   1.00
O189   O     0.16666   0.43892   0.20487   0.00000  Uiso   1.00
O190   O     0.16667   0.56108   0.12846   0.00000  Uiso   1.00
O191   O     0.16666   0.43893   0.12843   0.00000  Uiso   1.00
O192   O     0.16667   0.56107   0.20490   0.00000  Uiso   1.00
O193   O     0.09058   0.50000   0.19595   0.00000  Uiso   1.00
O194   O     0.24275   0.50000   0.13739   0.00000  Uiso   1.00
O195   O     0.09058   0.50000   0.11950   0.00000  Uiso   1.00
O196   O     0.24275   0.50000   0.21383   0.00000  Uiso   1.00
Zn197  Zn    0.16667   0.49999   0.21771   0.00000  Uiso   1.00
Zn198  Zn    0.16667   0.50001   0.11563   0.00000  Uiso   1.00
H199   H     0.32522   0.50040   0.11385   0.00000  Uiso   1.00
H200   H     0.00811   0.49960   0.21948   0.00000  Uiso   1.00
H201   H     0.11499   0.37160   0.10281   0.00000  Uiso   1.00
H202   H     0.21834   0.62840   0.23053   0.00000  Uiso   1.00
C203   C     0.23255   0.56147   0.05142   0.00000  Uiso   1.00
C204   C     0.21150   0.60561   0.04052   0.00000  Uiso   1.00
C205   C     0.24582   0.63882   0.06750   0.00000  Uiso   1.00
H206   H     0.24782   0.63246   0.10447   0.00000  Uiso   1.00
H207   H     0.28616   0.63908   0.05826   0.00000  Uiso   1.00
H208   H     0.22887   0.33686   0.05973   0.00000  Uiso   1.00
H209   H     0.21046   0.61299   0.00381   0.00000  Uiso   1.00
H210   H     0.17082   0.60710   0.04866   0.00000  Uiso   1.00
H211   H     0.23762   0.55622   0.08808   0.00000  Uiso   1.00
H212   H     0.27247   0.55961   0.04145   0.00000  Uiso   1.00
C213   C     0.10078   0.43853   0.28191   0.00000  Uiso   1.00
C214   C     0.12183   0.39439   0.29281   0.00000  Uiso   1.00
C215   C     0.08750   0.36119   0.26583   0.00000  Uiso   1.00
H216   H     0.04716   0.36093   0.27507   0.00000  Uiso   1.00
H217   H     0.08552   0.36753   0.22887   0.00000  Uiso   1.00
H218   H     0.10444   0.66314   0.27362   0.00000  Uiso   1.00
H219   H     0.16251   0.39289   0.28468   0.00000  Uiso   1.00
H220   H     0.12287   0.38701   0.32953   0.00000  Uiso   1.00
H221   H     0.06086   0.44039   0.29188   0.00000  Uiso   1.00
H222   H     0.09571   0.44378   0.24525   0.00000  Uiso   1.00
H223   H     0.22154   0.54991   0.29564   0.00000  Uiso   1.00
H224   H     0.11180   0.45009   0.03770   0.00000  Uiso   1.00
C225   C     0.49981   0.42009   0.16690   0.00000  Uiso   1.00
C226   C     0.50019   0.57991   0.16643   0.00000  Uiso   1.00
C227   C     0.40052   0.49996   0.15485   0.00000  Uiso   1.00
C228   C     0.59948   0.50004   0.17849   0.00000  Uiso   1.00
C229   C     0.34552   0.50009   0.14847   0.00000  Uiso   1.00
C230   C     0.65448   0.49991   0.18486   0.00000  Uiso   1.00
C231   C     0.47106   0.35486   0.13057   0.00000  Uiso   1.00
C232   C     0.52894   0.64514   0.20277   0.00000  Uiso   1.00
C233   C     0.47130   0.64524   0.13024   0.00000  Uiso   1.00
C234   C     0.52869   0.35476   0.20310   0.00000  Uiso   1.00
C235   C     0.50040   0.62408   0.16624   0.00000  Uiso   1.00
C236   C     0.49959   0.37592   0.16710   0.00000  Uiso   1.00
C237   C     0.53060   0.52851   0.02621   0.00000  Uiso   1.00
C238   C     0.46940   0.47149   0.30712   0.00000  Uiso   1.00
C239   C     0.53043   0.52790   0.31187   0.00000  Uiso   1.00
C240   C     0.46957   0.47210   0.02146   0.00000  Uiso   1.00
H241   H     0.44835   0.62859   0.10255   0.00000  Uiso   1.00
H242   H     0.55164   0.37141   0.23079   0.00000  Uiso   1.00
N243   N     0.49999   0.49999   0.28573   0.00000  Uiso   1.00
N244   N     0.50001   0.50001   0.04760   0.00000  Uiso   1.00
O245   O     0.50000   0.43892   0.20487   0.00000  Uiso   1.00
O246   O     0.50000   0.56108   0.12846   0.00000  Uiso   1.00
O247   O     0.50000   0.43893   0.12843   0.00000  Uiso   1.00
O248   O     0.50000   0.56107   0.20490   0.00000  Uiso   1.00
O249   O     0.42392   0.50000   0.19595   0.00000  Uiso   1.00
O250   O     0.57608   0.50000   0.13739   0.00000  Uiso   1.00
O251   O     0.42392   0.50000   0.11950   0.00000  Uiso   1.00
O252   O     0.57608   0.50000   0.21383   0.00000  Uiso   1.00
Zn253  Zn    0.50000   0.49999   0.21771   0.00000  Uiso   1.00
Zn254  Zn    0.50000   0.50001   0.11563   0.00000  Uiso   1.00
H255   H     0.65855   0.50040   0.11385   0.00000  Uiso   1.00
H256   H     0.34145   0.49960   0.21948   0.00000  Uiso   1.00
H257   H     0.44833   0.37160   0.10281   0.00000  Uiso   1.00
H258   H     0.55167   0.62840   0.23053   0.00000  Uiso   1.00
C259   C     0.56588   0.56147   0.05142   0.00000  Uiso   1.00
C260   C     0.54483   0.60561   0.04052   0.00000  Uiso   1.00
C261   C     0.57916   0.63882   0.06750   0.00000  Uiso   1.00
H262   H     0.58116   0.63246   0.10447   0.00000  Uiso   1.00
H263   H     0.61950   0.63908   0.05826   0.00000  Uiso   1.00
H264   H     0.56221   0.33686   0.05973   0.00000  Uiso   1.00
H265   H     0.54379   0.61299   0.00381   0.00000  Uiso   1.00
H266   H     0.50415   0.60710   0.04866   0.00000  Uiso   1.00
H267   H     0.57095   0.55622   0.08808   0.00000  Uiso   1.00
H268   H     0.60581   0.55961   0.04145   0.00000  Uiso   1.00
C269   C     0.43412   0.43853   0.28191   0.00000  Uiso   1.00
C270   C     0.45516   0.39439   0.29281   0.00000  Uiso   1.00
C271   C     0.42083   0.36119   0.26583   0.00000  Uiso   1.00
H272   H     0.38049   0.36093   0.27507   0.00000  Uiso   1.00
H273   H     0.41885   0.36753   0.22887   0.00000  Uiso   1.00
H274   H     0.43777   0.66314   0.27362   0.00000  Uiso   1.00
H275   H     0.49584   0.39289   0.28468   0.00000  Uiso   1.00
H276   H     0.45620   0.38701   0.32953   0.00000  Uiso   1.00
H277   H     0.39419   0.44039   0.29188   0.00000  Uiso   1.00
H278   H     0.42905   0.44378   0.24525   0.00000  Uiso   1.00
H279   H     0.55487   0.54991   0.29564   0.00000  Uiso   1.00
H280   H     0.44513   0.45009   0.03770   0.00000  Uiso   1.00
C281   C     0.83314   0.42009   0.16690   0.00000  Uiso   1.00
C282   C     0.83353   0.57991   0.16643   0.00000  Uiso   1.00
C283   C     0.73386   0.49996   0.15485   0.00000  Uiso   1.00
C284   C     0.93281   0.50004   0.17849   0.00000  Uiso   1.00
C285   C     0.67885   0.50009   0.14847   0.00000  Uiso   1.00
C286   C     0.98781   0.49991   0.18486   0.00000  Uiso   1.00
C287   C     0.80439   0.35486   0.13057   0.00000  Uiso   1.00
C288   C     0.86227   0.64514   0.20277   0.00000  Uiso   1.00
C289   C     0.80464   0.64524   0.13024   0.00000  Uiso   1.00
C290   C     0.86203   0.35476   0.20310   0.00000  Uiso   1.00
C291   C     0.83374   0.62408   0.16624   0.00000  Uiso   1.00
C292   C     0.83293   0.37592   0.16710   0.00000  Uiso   1.00
C293   C     0.86393   0.52851   0.02621   0.00000  Uiso   1.00
C294   C     0.80273   0.47149   0.30712   0.00000  Uiso   1.00
C295   C     0.86376   0.52790   0.31187   0.00000  Uiso   1.00
C296   C     0.80291   0.47210   0.02146   0.00000  Uiso   1.00
H297   H     0.78169   0.62859   0.10255   0.00000  Uiso   1.00
H298   H     0.88498   0.37141   0.23079   0.00000  Uiso   1.00
N299   N     0.83332   0.49999   0.28573   0.00000  Uiso   1.00
N300   N     0.83335   0.50001   0.04760   0.00000  Uiso   1.00
O301   O     0.83333   0.43892   0.20487   0.00000  Uiso   1.00
O302   O     0.83334   0.56108   0.12846   0.00000  Uiso   1.00
O303   O     0.83333   0.43893   0.12843   0.00000  Uiso   1.00
O304   O     0.83334   0.56107   0.20490   0.00000  Uiso   1.00
O305   O     0.75725   0.50000   0.19595   0.00000  Uiso   1.00
O306   O     0.90942   0.50000   0.13739   0.00000  Uiso   1.00
O307   O     0.75725   0.50000   0.11950   0.00000  Uiso   1.00
O308   O     0.90942   0.50000   0.21383   0.00000  Uiso   1.00
Zn309  Zn    0.83333   0.49999   0.21771   0.00000  Uiso   1.00
Zn310  Zn    0.83333   0.50001   0.11563   0.00000  Uiso   1.00
H311   H     0.99189   0.50040   0.11385   0.00000  Uiso   1.00
H312   H     0.67478   0.49960   0.21948   0.00000  Uiso   1.00
H313   H     0.78166   0.37160   0.10281   0.00000  Uiso   1.00
H314   H     0.88500   0.62840   0.23053   0.00000  Uiso   1.00
C315   C     0.89922   0.56147   0.05142   0.00000  Uiso   1.00
C316   C     0.87816   0.60561   0.04052   0.00000  Uiso   1.00
C317   C     0.91249   0.63882   0.06750   0.00000  Uiso   1.00
H318   H     0.91449   0.63246   0.10447   0.00000  Uiso   1.00
H319   H     0.95283   0.63908   0.05826   0.00000  Uiso   1.00
H320   H     0.89554   0.33686   0.05973   0.00000  Uiso   1.00
H321   H     0.87712   0.61299   0.00381   0.00000  Uiso   1.00
H322   H     0.83748   0.60710   0.04866   0.00000  Uiso   1.00
H323   H     0.90429   0.55622   0.08808   0.00000  Uiso   1.00
H324   H     0.93914   0.55961   0.04145   0.00000  Uiso   1.00
C325   C     0.76745   0.43853   0.28191   0.00000  Uiso   1.00
C326   C     0.78850   0.39439   0.29281   0.00000  Uiso   1.00
C327   C     0.75417   0.36119   0.26583   0.00000  Uiso   1.00
H328   H     0.71382   0.36093   0.27507   0.00000  Uiso   1.00
H329   H     0.75218   0.36753   0.22887   0.00000  Uiso   1.00
H330   H     0.77111   0.66314   0.27362   0.00000  Uiso   1.00
H331   H     0.82918   0.39289   0.28468   0.00000  Uiso   1.00
H332   H     0.78953   0.38701   0.32953   0.00000  Uiso   1.00
H333   H     0.72752   0.44039   0.29188   0.00000  Uiso   1.00
H334   H     0.76238   0.44378   0.24525   0.00000  Uiso   1.00
H335   H     0.88820   0.54991   0.29564   0.00000  Uiso   1.00
H336   H     0.77846   0.45009   0.03770   0.00000  Uiso   1.00
C337   C     0.16647   0.75343   0.16690   0.00000  Uiso   1.00
C338   C     0.16686   0.91324   0.16643   0.00000  Uiso   1.00
C339   C     0.06719   0.83329   0.15485   0.00000  Uiso   1.00
C340   C     0.26614   0.83337   0.17849   0.00000  Uiso   1.00
C341   C     0.01219   0.83343   0.14847   0.00000  Uiso   1.00
C342   C     0.32115   0.83324   0.18486   0.00000  Uiso   1.00
C343   C     0.13773   0.68820   0.13057   0.00000  Uiso   1.00
C344   C     0.19560   0.97847   0.20277   0.00000  Uiso   1.00
C345   C     0.13797   0.97857   0.13024   0.00000  Uiso   1.00
C346   C     0.19536   0.68809   0.20310   0.00000  Uiso   1.00
C347   C     0.16707   0.95741   0.16624   0.00000  Uiso   1.00
C348   C     0.16626   0.70925   0.16710   0.00000  Uiso   1.00
C349   C     0.19727   0.86185   0.02621   0.00000  Uiso   1.00
C350   C     0.13607   0.80482   0.30712   0.00000  Uiso   1.00
C351   C     0.19709   0.86124   0.31187   0.00000  Uiso   1.00
C352   C     0.13624   0.80543   0.02146   0.00000  Uiso   1.00
H353   H     0.11502   0.96192   0.10255   0.00000  Uiso   1.00
H354   H     0.21831   0.70475   0.23079   0.00000  Uiso   1.00
N355   N     0.16665   0.83332   0.28573   0.00000  Uiso   1.00
N356   N     0.16668   0.83334   0.04760   0.00000  Uiso   1.00
O357   O     0.16666   0.77225   0.20487   0.00000  Uiso   1.00
O358   O     0.16667   0.89442   0.12846   0.00000  Uiso   1.00
O359   O     0.16666   0.77226   0.12843   0.00000  Uiso   1.00
O360   O     0.16667   0.89441   0.20490   0.00000  Uiso   1.00
O361   O     0.09058   0.83333   0.19595   0.00000  Uiso   1.00
O362   O     0.24275   0.83334   0.13739   0.00000  Uiso   1.00
O363   O     0.09058   0.83334   0.11950   0.00000  Uiso   1.00
O364   O     0.24275   0.83333   0.21383   0.00000  Uiso   1.00
Zn365  Zn    0.16667   0.83333   0.21771   0.00000  Uiso   1.00
Zn366  Zn    0.16667   0.83334   0.11563   0.00000  Uiso   1.00
H367   H     0.32522   0.83373   0.11385   0.00000  Uiso   1.00
H368   H     0.00811   0.83293   0.21948   0.00000  Uiso   1.00
H369   H     0.11499   0.70493   0.10281   0.00000  Uiso   1.00
H370   H     0.21834   0.96174   0.23053   0.00000  Uiso   1.00
C371   C     0.23255   0.89480   0.05142   0.00000  Uiso   1.00
C372   C     0.21150   0.93895   0.04052   0.00000  Uiso   1.00
C373   C     0.24582   0.97215   0.06750   0.00000  Uiso   1.00
H374   H     0.24782   0.96579   0.10447   0.00000  Uiso   1.00
H375   H     0.28616   0.97242   0.05826   0.00000  Uiso   1.00
H376   H     0.22887   0.67019   0.05973   0.00000  Uiso   1.00
H377   H     0.21046   0.94633   0.00381   0.00000  Uiso   1.00
H378   H     0.17082   0.94044   0.04866   0.00000  Uiso   1.00
H379   H     0.23762   0.88955   0.08808   0.00000  Uiso   1.00
H380   H     0.27247   0.89295   0.04145   0.00000  Uiso   1.00
C381   C     0.10078   0.77187   0.28191   0.00000  Uiso   1.00
C382   C     0.12183   0.72772   0.29281   0.00000  Uiso   1.00
C383   C     0.08750   0.69452   0.26583   0.00000  Uiso   1.00
H384   H     0.04716   0.69426   0.27507   0.00000  Uiso   1.00
H385   H     0.08552   0.70087   0.22887   0.00000  Uiso   1.00
H386   H     0.10444   0.99647   0.27362   0.00000  Uiso   1.00
H387   H     0.16251   0.72623   0.28468   0.00000  Uiso   1.00
H388   H     0.12287   0.72034   0.32953   0.00000  Uiso   1.00
H389   H     0.06086   0.77373   0.29188   0.00000  Uiso   1.00
H390   H     0.09571   0.77712   0.24525   0.00000  Uiso   1.00
H391   H     0.22154   0.88324   0.29564   0.00000  Uiso   1.00
H392   H     0.11180   0.78343   0.03770   0.00000  Uiso   1.00
C393   C     0.49981   0.75343   0.16690   0.00000  Uiso   1.00
C394   C     0.50019   0.91324   0.16643   0.00000  Uiso   1.00
C395   C     0.40052   0.83329   0.15485   0.00000  Uiso   1.00
C396   C     0.59948   0.83337   0.17849   0.00000  Uiso   1.00
C397   C     0.34552   0.83343   0.14847   0.00000  Uiso   1.00
C398   C     0.65448   0.83324   0.18486   0.00000  Uiso   1.00
C399   C     0.47106   0.68820   0.13057   0.00000  Uiso   1.00
C400   C     0.52894   0.97847   0.20277   0.00000  Uiso   1.00
C401   C     0.47130   0.97857   0.13024   0.00000  Uiso   1.00
C402   C     0.52869   0.68809   0.20310   0.00000  Uiso   1.00
C403   C     0.50040   0.95741   0.16624   0.00000  Uiso   1.00
C404   C     0.49959   0.70925   0.16710   0.00000  Uiso   1.00
C405   C     0.53060   0.86185   0.02621   0.00000  Uiso   1.00
C406   C     0.46940   0.80482   0.30712   0.00000  Uiso   1.00
C407   C     0.53043   0.86124   0.31187   0.00000  Uiso   1.00
C408   C     0.46957   0.80543   0.02146   0.00000  Uiso   1.00
H409   H     0.44835   0.96192   0.10255   0.00000  Uiso   1.00
H410   H     0.55164   0.70475   0.23079   0.00000  Uiso   1.00
N411   N     0.49999   0.83332   0.28573   0.00000  Uiso   1.00
N412   N     0.50001   0.83334   0.04760   0.00000  Uiso   1.00
O413   O     0.50000   0.77225   0.20487   0.00000  Uiso   1.00
O414   O     0.50000   0.89442   0.12846   0.00000  Uiso   1.00
O415   O     0.50000   0.77226   0.12843   0.00000  Uiso   1.00
O416   O     0.50000   0.89441   0.20490   0.00000  Uiso   1.00
O417   O     0.42392   0.83333   0.19595   0.00000  Uiso   1.00
O418   O     0.57608   0.83334   0.13739   0.00000  Uiso   1.00
O419   O     0.42392   0.83334   0.11950   0.00000  Uiso   1.00
O420   O     0.57608   0.83333   0.21383   0.00000  Uiso   1.00
Zn421  Zn    0.50000   0.83333   0.21771   0.00000  Uiso   1.00
Zn422  Zn    0.50000   0.83334   0.11563   0.00000  Uiso   1.00
H423   H     0.65855   0.83373   0.11385   0.00000  Uiso   1.00
H424   H     0.34145   0.83293   0.21948   0.00000  Uiso   1.00
H425   H     0.44833   0.70493   0.10281   0.00000  Uiso   1.00
H426   H     0.55167   0.96174   0.23053   0.00000  Uiso   1.00
C427   C     0.56588   0.89480   0.05142   0.00000  Uiso   1.00
C428   C     0.54483   0.93895   0.04052   0.00000  Uiso   1.00
C429   C     0.57916   0.97215   0.06750   0.00000  Uiso   1.00
H430   H     0.58116   0.96579   0.10447   0.00000  Uiso   1.00
H431   H     0.61950   0.97242   0.05826   0.00000  Uiso   1.00
H432   H     0.56221   0.67019   0.05973   0.00000  Uiso   1.00
H433   H     0.54379   0.94633   0.00381   0.00000  Uiso   1.00
H434   H     0.50415   0.94044   0.04866   0.00000  Uiso   1.00
H435   H     0.57095   0.88955   0.08808   0.00000  Uiso   1.00
H436   H     0.60581   0.89295   0.04145   0.00000  Uiso   1.00
C437   C     0.43412   0.77187   0.28191   0.00000  Uiso   1.00
C438   C     0.45516   0.72772   0.29281   0.00000  Uiso   1.00
C439   C     0.42083   0.69452   0.26583   0.00000  Uiso   1.00
H440   H     0.38049   0.69426   0.27507   0.00000  Uiso   1.00
H441   H     0.41885   0.70087   0.22887   0.00000  Uiso   1.00
H442   H     0.43777   0.99647   0.27362   0.00000  Uiso   1.00
H443   H     0.49584   0.72623   0.28468   0.00000  Uiso   1.00
H444   H     0.45620   0.72034   0.32953   0.00000  Uiso   1.00
H445   H     0.39419   0.77373   0.29188   0.00000  Uiso   1.00
H446   H     0.42905   0.77712   0.24525   0.00000  Uiso   1.00
H447   H     0.55487   0.88324   0.29564   0.00000  Uiso   1.00
H448   H     0.44513   0.78343   0.03770   0.00000  Uiso   1.00
C449   C     0.83314   0.75343   0.16690   0.00000  Uiso   1.00
C450   C     0.83353   0.91324   0.16643   0.00000  Uiso   1.00
C451   C     0.73386   0.83329   0.15485   0.00000  Uiso   1.00
C452   C     0.93281   0.83337   0.17849   0.00000  Uiso   1.00
C453   C     0.67885   0.83343   0.14847   0.00000  Uiso   1.00
C454   C     0.98781   0.83324   0.18486   0.00000  Uiso   1.00
C455   C     0.80439   0.68820   0.13057   0.00000  Uiso   1.00
C456   C     0.86227   0.97847   0.20277   0.00000  Uiso   1.00
C457   C     0.80464   0.97857   0.13024   0.00000  Uiso   1.00
C458   C     0.86203   0.68809   0.20310   0.00000  Uiso   1.00
C459   C     0.83374   0.95741   0.16624   0.00000  Uiso   1.00
C460   C     0.83293   0.70925   0.16710   0.00000  Uiso   1.00
C461   C     0.86393   0.86185   0.02621   0.00000  Uiso   1.00
C462   C     0.80273   0.80482   0.30712   0.00000  Uiso   1.00
C463   C     0.86376   0.86124   0.31187   0.00000  Uiso   1.00
C464   C     0.80291   0.80543   0.02146   0.00000  Uiso   1.00
H465   H     0.78169   0.96192   0.10255   0.00000  Uiso   1.00
H466   H     0.88498   0.70475   0.23079   0.00000  Uiso   1.00
N467   N     0.83332   0.83332   0.28573   0.00000  Uiso   1.00
N468   N     0.83335   0.83334   0.04760   0.00000  Uiso   1.00
O469   O     0.83333   0.77225   0.20487   0.00000  Uiso   1.00
O470   O     0.83334   0.89442   0.12846   0.00000  Uiso   1.00
O471   O     0.83333   0.77226   0.12843   0.00000  Uiso   1.00
O472   O     0.83334   0.89441   0.20490   0.00000  Uiso   1.00
O473   O     0.75725   0.83333   0.19595   0.00000  Uiso   1.00
O474   O     0.90942   0.83334   0.13739   0.00000  Uiso   1.00
O475   O     0.75725   0.83334   0.11950   0.00000  Uiso   1.00
O476   O     0.90942   0.83333   0.21383   0.00000  Uiso   1.00
Zn477  Zn    0.83333   0.83333   0.21771   0.00000  Uiso   1.00
Zn478  Zn    0.83333   0.83334   0.11563   0.00000  Uiso   1.00
H479   H     0.99189   0.83373   0.11385   0.00000  Uiso   1.00
H480   H     0.67478   0.83293   0.21948   0.00000  Uiso   1.00
H481   H     0.78166   0.70493   0.10281   0.00000  Uiso   1.00
H482   H     0.88500   0.96174   0.23053   0.00000  Uiso   1.00
C483   C     0.89922   0.89480   0.05142   0.00000  Uiso   1.00
C484   C     0.87816   0.93895   0.04052   0.00000  Uiso   1.00
C485   C     0.91249   0.97215   0.06750   0.00000  Uiso   1.00
H486   H     0.91449   0.96579   0.10447   0.00000  Uiso   1.00
H487   H     0.95283   0.97242   0.05826   0.00000  Uiso   1.00
H488   H     0.89554   0.67019   0.05973   0.00000  Uiso   1.00
H489   H     0.87712   0.94633   0.00381   0.00000  Uiso   1.00
H490   H     0.83748   0.94044   0.04866   0.00000  Uiso   1.00
H491   H     0.90429   0.88955   0.08808   0.00000  Uiso   1.00
H492   H     0.93914   0.89295   0.04145   0.00000  Uiso   1.00
C493   C     0.76745   0.77187   0.28191   0.00000  Uiso   1.00
C494   C     0.78850   0.72772   0.29281   0.00000  Uiso   1.00
C495   C     0.75417   0.69452   0.26583   0.00000  Uiso   1.00
H496   H     0.71382   0.69426   0.27507   0.00000  Uiso   1.00
H497   H     0.75218   0.70087   0.22887   0.00000  Uiso   1.00
H498   H     0.77111   0.99647   0.27362   0.00000  Uiso   1.00
H499   H     0.82918   0.72623   0.28468   0.00000  Uiso   1.00
H500   H     0.78953   0.72034   0.32953   0.00000  Uiso   1.00
H501   H     0.72752   0.77373   0.29188   0.00000  Uiso   1.00
H502   H     0.76238   0.77712   0.24525   0.00000  Uiso   1.00
H503   H     0.88820   0.88324   0.29564   0.00000  Uiso   1.00
H504   H     0.77846   0.78343   0.03770   0.00000  Uiso   1.00
C505   C     0.16647   0.08676   0.50024   0.00000  Uiso   1.00
C506   C     0.16686   0.24657   0.49976   0.00000  Uiso   1.00
C507   C     0.06719   0.16663   0.48818   0.00000  Uiso   1.00
C508   C     0.26614   0.16671   0.51182   0.00000  Uiso   1.00
C509   C     0.01219   0.16676   0.48180   0.00000  Uiso   1.00
C510   C     0.32115   0.16657   0.51820   0.00000  Uiso   1.00
C511   C     0.13773   0.02153   0.46390   0.00000  Uiso   1.00
C512   C     0.19560   0.31180   0.53610   0.00000  Uiso   1.00
C513   C     0.13797   0.31191   0.46357   0.00000  Uiso   1.00
C514   C     0.19536   0.02143   0.53643   0.00000  Uiso   1.00
C515   C     0.16707   0.29075   0.49957   0.00000  Uiso   1.00
C516   C     0.16626   0.04259   0.50043   0.00000  Uiso   1.00
C517   C     0.19727   0.19518   0.35955   0.00000  Uiso   1.00
C518   C     0.13607   0.13815   0.64045   0.00000  Uiso   1.00
C519   C     0.19709   0.19457   0.64521   0.00000  Uiso   1.00
C520   C     0.13624   0.13876   0.35479   0.00000  Uiso   1.00
H521   H     0.11502   0.29525   0.43588   0.00000  Uiso   1.00
H522   H     0.21831   0.03808   0.56412   0.00000  Uiso   1.00
N523   N     0.16665   0.16666   0.61907   0.00000  Uiso   1.00
N524   N     0.16668   0.16668   0.38093   0.00000  Uiso   1.00
O525   O     0.16666   0.10558   0.53821   0.00000  Uiso   1.00
O526   O     0.16667   0.22775   0.46179   0.00000  Uiso   1.00
O527   O     0.16666   0.10559   0.46176   0.00000  Uiso   1.00
O528   O     0.16667   0.22774   0.53824   0.00000  Uiso   1.00
O529   O     0.09058   0.16666   0.52928   0.00000  Uiso   1.00
O530   O     0.24275   0.16667   0.47072   0.00000  Uiso   1.00
O531   O     0.09058   0.16667   0.45284   0.00000  Uiso   1.00
O532   O     0.24275   0.16666   0.54716   0.00000  Uiso   1.00
Zn533  Zn    0.16667   0.16666   0.55104   0.00000  Uiso   1.00
Zn534  Zn    0.16667   0.16667   0.44896   0.00000  Uiso   1.00
H535   H     0.32522   0.16707   0.44718   0.00000  Uiso   1.00
H536   H     0.00811   0.16627   0.55282   0.00000  Uiso   1.00
H537   H     0.11499   0.03826   0.43614   0.00000  Uiso   1.00
H538   H     0.21834   0.29507   0.56386   0.00000  Uiso   1.00
C539   C     0.23255   0.22813   0.38475   0.00000  Uiso   1.00
C540   C     0.21150   0.27228   0.37386   0.00000  Uiso   1.00
C541   C     0.24582   0.30548   0.40083   0.00000  Uiso   1.00
H542   H     0.24782   0.29913   0.43780   0.00000  Uiso   1.00
H543   H     0.28616   0.30575   0.39159   0.00000  Uiso   1.00
H544   H     0.22887   0.00352   0.39306   0.00000  Uiso   1.00
H545   H     0.21046   0.27966   0.33714   0.00000  Uiso   1.00
H546   H     0.17082   0.27377   0.38199   0.00000  Uiso   1.00
H547   H     0.23762   0.22288   0.42142   0.00000  Uiso   1.00
H548   H     0.27247   0.22628   0.37479   0.00000  Uiso   1.00
C549   C     0.10078   0.10520   0.61525   0.00000  Uiso   1.00
C550   C     0.12183   0.06105   0.62615   0.00000  Uiso   1.00
C551   C     0.08750   0.02785   0.59917   0.00000  Uiso   1.00
H552   H     0.04716   0.02760   0.60840   0.00000  Uiso   1.00
H553   H     0.08552   0.03420   0.56220   0.00000  Uiso   1.00
H554   H     0.10444   0.32981   0.60695   0.00000  Uiso   1.00
H555   H     0.16251   0.05956   0.61801   0.00000  Uiso   1.00
H556   H     0.12287   0.05368   0.66286   0.00000  Uiso   1.00
H557   H     0.06086   0.10706   0.62521   0.00000  Uiso   1.00
H558   H     0.09571   0.11045   0.57858   0.00000  Uiso   1.00
H559   H     0.22154   0.21657   0.62897   0.00000  Uiso   1.00
H560   H     0.11180   0.11676   0.37103   0.00000  Uiso   1.00
C561   C     0.49981   0.08676   0.50024   0.00000  Uiso   1.00
C562   C     0.50019   0.24657   0.49976   0.00000  Uiso   1.00
C563   C     0.40052   0.16663   0.48818   0.00000  Uiso   1.00
C564   C     0.59948   0.16671   0.51182   0.00000  Uiso   1.00
C565   C     0.34552   0.16676   0.48180   0.00000  Uiso   1.00
C566   C     0.65448   0.16657   0.51820   0.00000  Uiso   1.00
C567   C     0.47106   0.02153   0.46390   0.00000  Uiso   1.00
C568   C     0.52894   0.31180   0.53610   0.00000  Uiso   1.00
C569   C     0.47130   0.31191   0.46357   0.00000  Uiso   1.00
C570   C     0.52869   0.02143   0.53643   0.00000  Uiso   1.00
C571   C     0.50040   0.29075   0.49957   0.00000  Uiso   1.00
C572   C     0.49959   0.04259   0.50043   0.00000  Uiso   1.00
C573   C     0.53060   0.19518   0.35955   0.00000  Uiso   1.00
C574   C     0.46940   0.13815   0.64045   0.00000  Uiso   1.00
C575   C     0.53043   0.19457   0.64521   0.00000  Uiso   1.00
C576   C     0.46957   0.13876   0.35479   0.00000  Uiso   1.00
H577   H     0.44835   0.29525   0.43588   0.00000  Uiso   1.00
H578   H     0.55164   0.03808   0.56412   0.00000  Uiso   1.00
N579   N     0.49999   0.16666   0.61907   0.00000  Uiso   1.00
N580   N     0.50001   0.16668   0.38093   0.00000  Uiso   1.00
O581   O     0.50000   0.10558   0.53821   0.00000  Uiso   1.00
O582   O     0.50000   0.22775   0.46179   0.00000  Uiso   1.00
O583   O     0.50000   0.10559   0.46176   0.00000  Uiso   1.00
O584   O     0.50000   0.22774   0.53824   0.00000  Uiso   1.00
O585   O     0.42392   0.16666   0.52928   0.00000  Uiso   1.00
O586   O     0.57608   0.16667   0.47072   0.00000  Uiso   1.00
O587   O     0.42392   0.16667   0.45284   0.00000  Uiso   1.00
O588   O     0.57608   0.16666   0.54716   0.00000  Uiso   1.00
Zn589  Zn    0.50000   0.16666   0.55104   0.00000  Uiso   1.00
Zn590  Zn    0.50000   0.16667   0.44896   0.00000  Uiso   1.00
H591   H     0.65855   0.16707   0.44718   0.00000  Uiso   1.00
H592   H     0.34145   0.16627   0.55282   0.00000  Uiso   1.00
H593   H     0.44833   0.03826   0.43614   0.00000  Uiso   1.00
H594   H     0.55167   0.29507   0.56386   0.00000  Uiso   1.00
C595   C     0.56588   0.22813   0.38475   0.00000  Uiso   1.00
C596   C     0.54483   0.27228   0.37386   0.00000  Uiso   1.00
C597   C     0.57916   0.30548   0.40083   0.00000  Uiso   1.00
H598   H     0.58116   0.29913   0.43780   0.00000  Uiso   1.00
H599   H     0.61950   0.30575   0.39159   0.00000  Uiso   1.00
H600   H     0.56221   0.00352   0.39306   0.00000  Uiso   1.00
H601   H     0.54379   0.27966   0.33714   0.00000  Uiso   1.00
H602   H     0.50415   0.27377   0.38199   0.00000  Uiso   1.00
H603   H     0.57095   0.22288   0.42142   0.00000  Uiso   1.00
H604   H     0.60581   0.22628   0.37479   0.00000  Uiso   1.00
C605   C     0.43412   0.10520   0.61525   0.00000  Uiso   1.00
C606   C     0.45516   0.06105   0.62615   0.00000  Uiso   1.00
C607   C     0.42083   0.02785   0.59917   0.00000  Uiso   1.00
H608   H     0.38049   0.02760   0.60840   0.00000  Uiso   1.00
H609   H     0.41885   0.03420   0.56220   0.00000  Uiso   1.00
H610   H     0.43777   0.32981   0.60695   0.00000  Uiso   1.00
H611   H     0.49584   0.05956   0.61801   0.00000  Uiso   1.00
H612   H     0.45620   0.05368   0.66286   0.00000  Uiso   1.00
H613   H     0.39419   0.10706   0.62521   0.00000  Uiso   1.00
H614   H     0.42905   0.11045   0.57858   0.00000  Uiso   1.00
H615   H     0.55487   0.21657   0.62897   0.00000  Uiso   1.00
H616   H     0.44513   0.11676   0.37103   0.00000  Uiso   1.00
C617   C     0.83314   0.08676   0.50024   0.00000  Uiso   1.00
C618   C     0.83353   0.24657   0.49976   0.00000  Uiso   1.00
C619   C     0.73386   0.16663   0.48818   0.00000  Uiso   1.00
C620   C     0.93281   0.16671   0.51182   0.00000  Uiso   1.00
C621   C     0.67885   0.16676   0.48180   0.00000  Uiso   1.00
C622   C     0.98781   0.16657   0.51820   0.00000  Uiso   1.00
C623   C     0.80439   0.02153   0.46390   0.00000  Uiso   1.00
C624   C     0.86227   0.31180   0.53610   0.00000  Uiso   1.00
C625   C     0.80464   0.31191   0.46357   0.00000  Uiso   1.00
C626   C     0.86203   0.02143   0.53643   0.00000  Uiso   1.00
C627   C     0.83374   0.29075   0.49957   0.00000  Uiso   1.00
C628   C     0.83293   0.04259   0.50043   0.00000  Uiso   1.00
C629   C     0.86393   0.19518   0.35955   0.00000  Uiso   1.00
C630   C     0.80273   0.13815   0.64045   0.00000  Uiso   1.00
C631   C     0.86376   0.19457   0.64521   0.00000  Uiso   1.00
C632   C     0.80291   0.13876   0.35479   0.00000  Uiso   1.00
H633   H     0.78169   0.29525   0.43588   0.00000  Uiso   1.00
H634   H     0.88498   0.03808   0.56412   0.00000  Uiso   1.00
N635   N     0.83332   0.16666   0.61907   0.00000  Uiso   1.00
N636   N     0.83335   0.16668   0.38093   0.00000  Uiso   1.00
O637   O     0.83333   0.10558   0.53821   0.00000  Uiso   1.00
O638   O     0.83334   0.22775   0.46179   0.00000  Uiso   1.00
O639   O     0.83333   0.10559   0.46176   0.00000  Uiso   1.00
O640   O     0.83334   0.22774   0.53824   0.00000  Uiso   1.00
O641   O     0.75725   0.16666   0.52928   0.00000  Uiso   1.00
O642   O     0.90942   0.16667   0.47072   0.00000  Uiso   1.00
O643   O     0.75725   0.16667   0.45284   0.00000  Uiso   1.00
O644   O     0.90942   0.16666   0.54716   0.00000  Uiso   1.00
Zn645  Zn    0.83333   0.16666   0.55104   0.00000  Uiso   1.00
Zn646  Zn    0.83333   0.16667   0.44896   0.00000  Uiso   1.00
H647   H     0.99189   0.16707   0.44718   0.00000  Uiso   1.00
H648   H     0.67478   0.16627   0.55282   0.00000  Uiso   1.00
H649   H     0.78166   0.03826   0.43614   0.00000  Uiso   1.00
H650   H     0.88500   0.29507   0.56386   0.00000  Uiso   1.00
C651   C     0.89922   0.22813   0.38475   0.00000  Uiso   1.00
C652   C     0.87816   0.27228   0.37386   0.00000  Uiso   1.00
C653   C     0.91249   0.30548   0.40083   0.00000  Uiso   1.00
H654   H     0.91449   0.29913   0.43780   0.00000  Uiso   1.00
H655   H     0.95283   0.30575   0.39159   0.00000  Uiso   1.00
H656   H     0.89554   0.00352   0.39306   0.00000  Uiso   1.00
H657   H     0.87712   0.27966   0.33714   0.00000  Uiso   1.00
H658   H     0.83748   0.27377   0.38199   0.00000  Uiso   1.00
H659   H     0.90429   0.22288   0.42142   0.00000  Uiso   1.00
H660   H     0.93914   0.22628   0.37479   0.00000  Uiso   1.00
C661   C     0.76745   0.10520   0.61525   0.00000  Uiso   1.00
C662   C     0.78850   0.06105   0.62615   0.00000  Uiso   1.00
C663   C     0.75417   0.02785   0.59917   0.00000  Uiso   1.00
H664   H     0.71382   0.02760   0.60840   0.00000  Uiso   1.00
H665   H     0.75218   0.03420   0.56220   0.00000  Uiso   1.00
H666   H     0.77111   0.32981   0.60695   0.00000  Uiso   1.00
H667   H     0.82918   0.05956   0.61801   0.00000  Uiso   1.00
H668   H     0.78953   0.05368   0.66286   0.00000  Uiso   1.00
H669   H     0.72752   0.10706   0.62521   0.00000  Uiso   1.00
H670   H     0.76238   0.11045   0.57858   0.00000  Uiso   1.00
H671   H     0.88820   0.21657   0.62897   0.00000  Uiso   1.00
H672   H     0.77846   0.11676   0.37103   0.00000  Uiso   1.00
C673   C     0.16647   0.42009   0.50024   0.00000  Uiso   1.00
C674   C     0.16686   0.57991   0.49976   0.00000  Uiso   1.00
C675   C     0.06719   0.49996   0.48818   0.00000  Uiso   1.00
C676   C     0.26614   0.50004   0.51182   0.00000  Uiso   1.00
C677   C     0.01219   0.50009   0.48180   0.00000  Uiso   1.00
C678   C     0.32115   0.49991   0.51820   0.00000  Uiso   1.00
C679   C     0.13773   0.35486   0.46390   0.00000  Uiso   1.00
C680   C     0.19560   0.64514   0.53610   0.00000  Uiso   1.00
C681   C     0.13797   0.64524   0.46357   0.00000  Uiso   1.00
C682   C     0.19536   0.35476   0.53643   0.00000  Uiso   1.00
C683   C     0.16707   0.62408   0.49957   0.00000  Uiso   1.00
C684   C     0.16626   0.37592   0.50043   0.00000  Uiso   1.00
C685   C     0.19727   0.52851   0.35955   0.00000  Uiso   1.00
C686   C     0.13607   0.47149   0.64045   0.00000  Uiso   1.00
C687   C     0.19709   0.52790   0.64521   0.00000  Uiso   1.00
C688   C     0.13624   0.47210   0.35479   0.00000  Uiso   1.00
H689   H     0.11502   0.62859   0.43588   0.00000  Uiso   1.00
H690   H     0.21831   0.37141   0.56412   0.00000  Uiso   1.00
N691   N     0.16665   0.49999   0.61907   0.00000  Uiso   1.00
N692   N     0.16668   0.50001   0.38093   0.00000  Uiso   1.00
O693   O     0.16666   0.43892   0.53821   0.00000  Uiso   1.00
O694   O     0.16667   0.56108   0.46179   0.00000  Uiso   1.00
O695   O     0.16666   0.43893   0.46176   0.00000  Uiso   1.00
O696   O     0.16667   0.56107   0.53824   0.00000  Uiso   1.00
O697   O     0.09058   0.50000   0.52928   0.00000  Uiso   1.00
O698   O     0.24275   0.50000   0.47072   0.00000  Uiso   1.00
O699   O     0.09058   0.50000   0.45284   0.00000  Uiso   1.00
O700   O     0.24275   0.50000   0.54716   0.00000  Uiso   1.00
Zn701  Zn    0.16667   0.49999   0.55104   0.00000  Uiso   1.00
Zn702  Zn    0.16667   0.50001   0.44896   0.00000  Uiso   1.00
H703   H     0.32522   0.50040   0.44718   0.00000  Uiso   1.00
H704   H     0.00811   0.49960   0.55282   0.00000  Uiso   1.00
H705   H     0.11499   0.37160   0.43614   0.00000  Uiso   1.00
H706   H     0.21834   0.62840   0.56386   0.00000  Uiso   1.00
C707   C     0.23255   0.56147   0.38475   0.00000  Uiso   1.00
C708   C     0.21150   0.60561   0.37386   0.00000  Uiso   1.00
C709   C     0.24582   0.63882   0.40083   0.00000  Uiso   1.00
H710   H     0.24782   0.63246   0.43780   0.00000  Uiso   1.00
H711   H     0.28616   0.63908   0.39159   0.00000  Uiso   1.00
H712   H     0.22887   0.33686   0.39306   0.00000  Uiso   1.00
H713   H     0.21046   0.61299   0.33714   0.00000  Uiso   1.00
H714   H     0.17082   0.60710   0.38199   0.00000  Uiso   1.00
H715   H     0.23762   0.55622   0.42142   0.00000  Uiso   1.00
H716   H     0.27247   0.55961   0.37479   0.00000  Uiso   1.00
C717   C     0.10078   0.43853   0.61525   0.00000  Uiso   1.00
C718   C     0.12183   0.39439   0.62615   0.00000  Uiso   1.00
C719   C     0.08750   0.36119   0.59917   0.00000  Uiso   1.00
H720   H     0.04716   0.36093   0.60840   0.00000  Uiso   1.00
H721   H     0.08552   0.36753   0.56220   0.00000  Uiso   1.00
H722   H     0.10444   0.66314   0.60695   0.00000  Uiso   1.00
H723   H     0.16251   0.39289   0.61801   0.00000  Uiso   1.00
H724   H     0.12287   0.38701   0.66286   0.00000  Uiso   1.00
H725   H     0.06086   0.44039   0.62521   0.00000  Uiso   1.00
H726   H     0.09571   0.44378   0.57858   0.00000  Uiso   1.00
H727   H     0.22154   0.54991   0.62897   0.00000  Uiso   1.00
H728   H     0.11180   0.45009   0.37103   0.00000  Uiso   1.00
C729   C     0.49981   0.42009   0.50024   0.00000  Uiso   1.00
C730   C     0.50019   0.57991   0.49976   0.00000  Uiso   1.00
C731   C     0.40052   0.49996   0.48818   0.00000  Uiso   1.00
C732   C     0.59948   0.50004   0.51182   0.00000  Uiso   1.00
C733   C     0.34552   0.50009   0.48180   0.00000  Uiso   1.00
C734   C     0.65448   0.49991   0.51820   0.00000  Uiso   1.00
C735   C     0.47106   0.35486   0.46390   0.00000  Uiso   1.00
C736   C     0.52894   0.64514   0.53610   0.00000  Uiso   1.00
C737   C     0.47130   0.64524   0.46357   0.00000  Uiso   1.00
C738   C     0.52869   0.35476   0.53643   0.00000  Uiso   1.00
C739   C     0.50040   0.62408   0.49957   0.00000  Uiso   1.00
C740   C     0.49959   0.37592   0.50043   0.00000  Uiso   1.00
C741   C     0.53060   0.52851   0.35955   0.00000  Uiso   1.00
C742   C     0.46940   0.47149   0.64045   0.00000  Uiso   1.00
C743   C     0.53043   0.52790   0.64521   0.00000  Uiso   1.00
C744   C     0.46957   0.47210   0.35479   0.00000  Uiso   1.00
H745   H     0.44835   0.62859   0.43588   0.00000  Uiso   1.00
H746   H     0.55164   0.37141   0.56412   0.00000  Uiso   1.00
N747   N     0.49999   0.49999   0.61907   0.00000  Uiso   1.00
N748   N     0.50001   0.50001   0.38093   0.00000  Uiso   1.00
O749   O     0.50000   0.43892   0.53821   0.00000  Uiso   1.00
O750   O     0.50000   0.56108   0.46179   0.00000  Uiso   1.00
O751   O     0.50000   0.43893   0.46176   0.00000  Uiso   1.00
O752   O     0.50000   0.56107   0.53824   0.00000  Uiso   1.00
O753   O     0.42392   0.50000   0.52928   0.00000  Uiso   1.00
O754   O     0.57608   0.50000   0.47072   0.00000  Uiso   1.00
O755   O     0.42392   0.50000   0.45284   0.00000  Uiso   1.00
O756   O     0.57608   0.50000   0.54716   0.00000  Uiso   1.00
Zn757  Zn    0.50000   0.49999   0.55104   0.00000  Uiso   1.00
Zn758  Zn    0.50000   0.50001   0.44896   0.00000  Uiso   1.00
H759   H     0.65855   0.50040   0.44718   0.00000  Uiso   1.00
H760   H     0.34145   0.49960   0.55282   0.00000  Uiso   1.00
H761   H     0.44833   0.37160   0.43614   0.00000  Uiso   1.00
H762   H     0.55167   0.62840   0.56386   0.00000  Uiso   1.00
C763   C     0.56588   0.56147   0.38475   0.00000  Uiso   1.00
C764   C     0.54483   0.60561   0.37386   0.00000  Uiso   1.00
C765   C     0.57916   0.63882   0.40083   0.00000  Uiso   1.00
H766   H     0.58116   0.63246   0.43780   0.00000  Uiso   1.00
H767   H     0.61950   0.63908   0.39159   0.00000  Uiso   1.00
H768   H     0.56221   0.33686   0.39306   0.00000  Uiso   1.00
H769   H     0.54379   0.61299   0.33714   0.00000  Uiso   1.00
H770   H     0.50415   0.60710   0.38199   0.00000  Uiso   1.00
H771   H     0.57095   0.55622   0.42142   0.00000  Uiso   1.00
H772   H     0.60581   0.55961   0.37479   0.00000  Uiso   1.00
C773   C     0.43412   0.43853   0.61525   0.00000  Uiso   1.00
C774   C     0.45516   0.39439   0.62615   0.00000  Uiso   1.00
C775   C     0.42083   0.36119   0.59917   0.00000  Uiso   1.00
H776   H     0.38049   0.36093   0.60840   0.00000  Uiso   1.00
H777   H     0.41885   0.36753   0.56220   0.00000  Uiso   1.00
H778   H     0.43777   0.66314   0.60695   0.00000  Uiso   1.00
H779   H     0.49584   0.39289   0.61801   0.00000  Uiso   1.00
H780   H     0.45620   0.38701   0.66286   0.00000  Uiso   1.00
H781   H     0.39419   0.44039   0.62521   0.00000  Uiso   1.00
H782   H     0.42905   0.44378   0.57858   0.00000  Uiso   1.00
H783   H     0.55487   0.54991   0.62897   0.00000  Uiso   1.00
H784   H     0.44513   0.45009   0.37103   0.00000  Uiso   1.00
C785   C     0.83314   0.42009   0.50024   0.00000  Uiso   1.00
C786   C     0.83353   0.57991   0.49976   0.00000  Uiso   1.00
C787   C     0.73386   0.49996   0.48818   0.00000  Uiso   1.00
C788   C     0.93281   0.50004   0.51182   0.00000  Uiso   1.00
C789   C     0.67885   0.50009   0.48180   0.00000  Uiso   1.00
C790   C     0.98781   0.49991   0.51820   0.00000  Uiso   1.00
C791   C     0.80439   0.35486   0.46390   0.00000  Uiso   1.00
C792   C     0.86227   0.64514   0.53610   0.00000  Uiso   1.00
C793   C     0.80464   0.64524   0.46357   0.00000  Uiso   1.00
C794   C     0.86203   0.35476   0.53643   0.00000  Uiso   1.00
C795   C     0.83374   0.62408   0.49957   0.00000  Uiso   1.00
C796   C     0.83293   0.37592   0.50043   0.00000  Uiso   1.00
C797   C     0.86393   0.52851   0.35955   0.00000  Uiso   1.00
C798   C     0.80273   0.47149   0.64045   0.00000  Uiso   1.00
C799   C     0.86376   0.52790   0.64521   0.00000  Uiso   1.00
C800   C     0.80291   0.47210   0.35479   0.00000  Uiso   1.00
H801   H     0.78169   0.62859   0.43588   0.00000  Uiso   1.00
H802   H     0.88498   0.37141   0.56412   0.00000  Uiso   1.00
N803   N     0.83332   0.49999   0.61907   0.00000  Uiso   1.00
N804   N     0.83335   0.50001   0.38093   0.00000  Uiso   1.00
O805   O     0.83333   0.43892   0.53821   0.00000  Uiso   1.00
O806   O     0.83334   0.56108   0.46179   0.00000  Uiso   1.00
O807   O     0.83333   0.43893   0.46176   0.00000  Uiso   1.00
O808   O     0.83334   0.56107   0.53824   0.00000  Uiso   1.00
O809   O     0.75725   0.50000   0.52928   0.00000  Uiso   1.00
O810   O     0.90942   0.50000   0.47072   0.00000  Uiso   1.00
O811   O     0.75725   0.50000   0.45284   0.00000  Uiso   1.00
O812   O     0.90942   0.50000   0.54716   0.00000  Uiso   1.00
Zn813  Zn    0.83333   0.49999   0.55104   0.00000  Uiso   1.00
Zn814  Zn    0.83333   0.50001   0.44896   0.00000  Uiso   1.00
H815   H     0.99189   0.50040   0.44718   0.00000  Uiso   1.00
H816   H     0.67478   0.49960   0.55282   0.00000  Uiso   1.00
H817   H     0.78166   0.37160   0.43614   0.00000  Uiso   1.00
H818   H     0.88500   0.62840   0.56386   0.00000  Uiso   1.00
C819   C     0.89922   0.56147   0.38475   0.00000  Uiso   1.00
C820   C     0.87816   0.60561   0.37386   0.00000  Uiso   1.00
C821   C     0.91249   0.63882   0.40083   0.00000  Uiso   1.00
H822   H     0.91449   0.63246   0.43780   0.00000  Uiso   1.00
H823   H     0.95283   0.63908   0.39159   0.00000  Uiso   1.00
H824   H     0.89554   0.33686   0.39306   0.00000  Uiso   1.00
H825   H     0.87712   0.61299   0.33714   0.00000  Uiso   1.00
H826   H     0.83748   0.60710   0.38199   0.00000  Uiso   1.00
H827   H     0.90429   0.55622   0.42142   0.00000  Uiso   1.00
H828   H     0.93914   0.55961   0.37479   0.00000  Uiso   1.00
C829   C     0.76745   0.43853   0.61525   0.00000  Uiso   1.00
C830   C     0.78850   0.39439   0.62615   0.00000  Uiso   1.00
C831   C     0.75417   0.36119   0.59917   0.00000  Uiso   1.00
H832   H     0.71382   0.36093   0.60840   0.00000  Uiso   1.00
H833   H     0.75218   0.36753   0.56220   0.00000  Uiso   1.00
H834   H     0.77111   0.66314   0.60695   0.00000  Uiso   1.00
H835   H     0.82918   0.39289   0.61801   0.00000  Uiso   1.00
H836   H     0.78953   0.38701   0.66286   0.00000  Uiso   1.00
H837   H     0.72752   0.44039   0.62521   0.00000  Uiso   1.00
H838   H     0.76238   0.44378   0.57858   0.00000  Uiso   1.00
H839   H     0.88820   0.54991   0.62897   0.00000  Uiso   1.00
H840   H     0.77846   0.45009   0.37103   0.00000  Uiso   1.00
C841   C     0.16647   0.75343   0.50024   0.00000  Uiso   1.00
C842   C     0.16686   0.91324   0.49976   0.00000  Uiso   1.00
C843   C     0.06719   0.83329   0.48818   0.00000  Uiso   1.00
C844   C     0.26614   0.83337   0.51182   0.00000  Uiso   1.00
C845   C     0.01219   0.83343   0.48180   0.00000  Uiso   1.00
C846   C     0.32115   0.83324   0.51820   0.00000  Uiso   1.00
C847   C     0.13773   0.68820   0.46390   0.00000  Uiso   1.00
C848   C     0.19560   0.97847   0.53610   0.00000  Uiso   1.00
C849   C     0.13797   0.97857   0.46357   0.00000  Uiso   1.00
C850   C     0.19536   0.68809   0.53643   0.00000  Uiso   1.00
C851   C     0.16707   0.95741   0.49957   0.00000  Uiso   1.00
C852   C     0.16626   0.70925   0.50043   0.00000  Uiso   1.00
C853   C     0.19727   0.86185   0.35955   0.00000  Uiso   1.00
C854   C     0.13607   0.80482   0.64045   0.00000  Uiso   1.00
C855   C     0.19709   0.86124   0.64521   0.00000  Uiso   1.00
C856   C     0.13624   0.80543   0.35479   0.00000  Uiso   1.00
H857   H     0.11502   0.96192   0.43588   0.00000  Uiso   1.00
H858   H     0.21831   0.70475   0.56412   0.00000  Uiso   1.00
N859   N     0.16665   0.83332   0.61907   0.00000  Uiso   1.00
N860   N     0.16668   0.83334   0.38093   0.00000  Uiso   1.00
O861   O     0.16666   0.77225   0.53821   0.00000  Uiso   1.00
O862   O     0.16667   0.89442   0.46179   0.00000  Uiso   1.00
O863   O     0.16666   0.77226   0.46176   0.00000  Uiso   1.00
O864   O     0.16667   0.89441   0.53824   0.00000  Uiso   1.00
O865   O     0.09058   0.83333   0.52928   0.00000  Uiso   1.00
O866   O     0.24275   0.83334   0.47072   0.00000  Uiso   1.00
O867   O     0.09058   0.83334   0.45284   0.00000  Uiso   1.00
O868   O     0.24275   0.83333   0.54716   0.00000  Uiso   1.00
Zn869  Zn    0.16667   0.83333   0.55104   0.00000  Uiso   1.00
Zn870  Zn    0.16667   0.83334   0.44896   0.00000  Uiso   1.00
H871   H     0.32522   0.83373   0.44718   0.00000  Uiso   1.00
H872   H     0.00811   0.83293   0.55282   0.00000  Uiso   1.00
H873   H     0.11499   0.70493   0.43614   0.00000  Uiso   1.00
H874   H     0.21834   0.96174   0.56386   0.00000  Uiso   1.00
C875   C     0.23255   0.89480   0.38475   0.00000  Uiso   1.00
C876   C     0.21150   0.93895   0.37386   0.00000  Uiso   1.00
C877   C     0.24582   0.97215   0.40083   0.00000  Uiso   1.00
H878   H     0.24782   0.96579   0.43780   0.00000  Uiso   1.00
H879   H     0.28616   0.97242   0.39159   0.00000  Uiso   1.00
H880   H     0.22887   0.67019   0.39306   0.00000  Uiso   1.00
H881   H     0.21046   0.94633   0.33714   0.00000  Uiso   1.00
H882   H     0.17082   0.94044   0.38199   0.00000  Uiso   1.00
H883   H     0.23762   0.88955   0.42142   0.00000  Uiso   1.00
H884   H     0.27247   0.89295   0.37479   0.00000  Uiso   1.00
C885   C     0.10078   0.77187   0.61525   0.00000  Uiso   1.00
C886   C     0.12183   0.72772   0.62615   0.00000  Uiso   1.00
C887   C     0.08750   0.69452   0.59917   0.00000  Uiso   1.00
H888   H     0.04716   0.69426   0.60840   0.00000  Uiso   1.00
H889   H     0.08552   0.70087   0.56220   0.00000  Uiso   1.00
H890   H     0.10444   0.99647   0.60695   0.00000  Uiso   1.00
H891   H     0.16251   0.72623   0.61801   0.00000  Uiso   1.00
H892   H     0.12287   0.72034   0.66286   0.00000  Uiso   1.00
H893   H     0.06086   0.77373   0.62521   0.00000  Uiso   1.00
H894   H     0.09571   0.77712   0.57858   0.00000  Uiso   1.00
H895   H     0.22154   0.88324   0.62897   0.00000  Uiso   1.00
H896   H     0.11180   0.78343   0.37103   0.00000  Uiso   1.00
C897   C     0.49981   0.75343   0.50024   0.00000  Uiso   1.00
C898   C     0.50019   0.91324   0.49976   0.00000  Uiso   1.00
C899   C     0.40052   0.83329   0.48818   0.00000  Uiso   1.00
C900   C     0.59948   0.83337   0.51182   0.00000  Uiso   1.00
C901   C     0.34552   0.83343   0.48180   0.00000  Uiso   1.00
C902   C     0.65448   0.83324   0.51820   0.00000  Uiso   1.00
C903   C     0.47106   0.68820   0.46390   0.00000  Uiso   1.00
C904   C     0.52894   0.97847   0.53610   0.00000  Uiso   1.00
C905   C     0.47130   0.97857   0.46357   0.00000  Uiso   1.00
C906   C     0.52869   0.68809   0.53643   0.00000  Uiso   1.00
C907   C     0.50040   0.95741   0.49957   0.00000  Uiso   1.00
C908   C     0.49959   0.70925   0.50043   0.00000  Uiso   1.00
C909   C     0.53060   0.86185   0.35955   0.00000  Uiso   1.00
C910   C     0.46940   0.80482   0.64045   0.00000  Uiso   1.00
C911   C     0.53043   0.86124   0.64521   0.00000  Uiso   1.00
C912   C     0.46957   0.80543   0.35479   0.00000  Uiso   1.00
H913   H     0.44835   0.96192   0.43588   0.00000  Uiso   1.00
H914   H     0.55164   0.70475   0.56412   0.00000  Uiso   1.00
N915   N     0.49999   0.83332   0.61907   0.00000  Uiso   1.00
N916   N     0.50001   0.83334   0.38093   0.00000  Uiso   1.00
O917   O     0.50000   0.77225   0.53821   0.00000  Uiso   1.00
O918   O     0.50000   0.89442   0.46179   0.00000  Uiso   1.00
O919   O     0.50000   0.77226   0.46176   0.00000  Uiso   1.00
O920   O     0.50000   0.89441   0.53824   0.00000  Uiso   1.00
O921   O     0.42392   0.83333   0.52928   0.00000  Uiso   1.00
O922   O     0.57608   0.83334   0.47072   0.00000  Uiso   1.00
O923   O     0.42392   0.83334   0.45284   0.00000  Uiso   1.00
O924   O     0.57608   0.83333   0.54716   0.00000  Uiso   1.00
Zn925  Zn    0.50000   0.83333   0.55104   0.00000  Uiso   1.00
Zn926  Zn    0.50000   0.83334   0.44896   0.00000  Uiso   1.00
H927   H     0.65855   0.83373   0.44718   0.00000  Uiso   1.00
H928   H     0.34145   0.83293   0.55282   0.00000  Uiso   1.00
H929   H     0.44833   0.70493   0.43614   0.00000  Uiso   1.00
H930   H     0.55167   0.96174   0.56386   0.00000  Uiso   1.00
C931   C     0.56588   0.89480   0.38475   0.00000  Uiso   1.00
C932   C     0.54483   0.93895   0.37386   0.00000  Uiso   1.00
C933   C     0.57916   0.97215   0.40083   0.00000  Uiso   1.00
H934   H     0.58116   0.96579   0.43780   0.00000  Uiso   1.00
H935   H     0.61950   0.97242   0.39159   0.00000  Uiso   1.00
H936   H     0.56221   0.67019   0.39306   0.00000  Uiso   1.00
H937   H     0.54379   0.94633   0.33714   0.00000  Uiso   1.00
H938   H     0.50415   0.94044   0.38199   0.00000  Uiso   1.00
H939   H     0.57095   0.88955   0.42142   0.00000  Uiso   1.00
H940   H     0.60581   0.89295   0.37479   0.00000  Uiso   1.00
C941   C     0.43412   0.77187   0.61525   0.00000  Uiso   1.00
C942   C     0.45516   0.72772   0.62615   0.00000  Uiso   1.00
C943   C     0.42083   0.69452   0.59917   0.00000  Uiso   1.00
H944   H     0.38049   0.69426   0.60840   0.00000  Uiso   1.00
H945   H     0.41885   0.70087   0.56220   0.00000  Uiso   1.00
H946   H     0.43777   0.99647   0.60695   0.00000  Uiso   1.00
H947   H     0.49584   0.72623   0.61801   0.00000  Uiso   1.00
H948   H     0.45620   0.72034   0.66286   0.00000  Uiso   1.00
H949   H     0.39419   0.77373   0.62521   0.00000  Uiso   1.00
H950   H     0.42905   0.77712   0.57858   0.00000  Uiso   1.00
H951   H     0.55487   0.88324   0.62897   0.00000  Uiso   1.00
H952   H     0.44513   0.78343   0.37103   0.00000  Uiso   1.00
C953   C     0.83314   0.75343   0.50024   0.00000  Uiso   1.00
C954   C     0.83353   0.91324   0.49976   0.00000  Uiso   1.00
C955   C     0.73386   0.83329   0.48818   0.00000  Uiso   1.00
C956   C     0.93281   0.83337   0.51182   0.00000  Uiso   1.00
C957   C     0.67885   0.83343   0.48180   0.00000  Uiso   1.00
C958   C     0.98781   0.83324   0.51820   0.00000  Uiso   1.00
C959   C     0.80439   0.68820   0.46390   0.00000  Uiso   1.00
C960   C     0.86227   0.97847   0.53610   0.00000  Uiso   1.00
C961   C     0.80464   0.97857   0.46357   0.00000  Uiso   1.00
C962   C     0.86203   0.68809   0.53643   0.00000  Uiso   1.00
C963   C     0.83374   0.95741   0.49957   0.00000  Uiso   1.00
C964   C     0.83293   0.70925   0.50043   0.00000  Uiso   1.00
C965   C     0.86393   0.86185   0.35955   0.00000  Uiso   1.00
C966   C     0.80273   0.80482   0.64045   0.00000  Uiso   1.00
C967   C     0.86376   0.86124   0.64521   0.00000  Uiso   1.00
C968   C     0.80291   0.80543   0.35479   0.00000  Uiso   1.00
H969   H     0.78169   0.96192   0.43588   0.00000  Uiso   1.00
H970   H     0.88498   0.70475   0.56412   0.00000  Uiso   1.00
N971   N     0.83332   0.83332   0.61907   0.00000  Uiso   1.00
N972   N     0.83335   0.83334   0.38093   0.00000  Uiso   1.00
O973   O     0.83333   0.77225   0.53821   0.00000  Uiso   1.00
O974   O     0.83334   0.89442   0.46179   0.00000  Uiso   1.00
O975   O     0.83333   0.77226   0.46176   0.00000  Uiso   1.00
O976   O     0.83334   0.89441   0.53824   0.00000  Uiso   1.00
O977   O     0.75725   0.83333   0.52928   0.00000  Uiso   1.00
O978   O     0.90942   0.83334   0.47072   0.00000  Uiso   1.00
O979   O     0.75725   0.83334   0.45284   0.00000  Uiso   1.00
O980   O     0.90942   0.83333   0.54716   0.00000  Uiso   1.00
Zn981  Zn    0.83333   0.83333   0.55104   0.00000  Uiso   1.00
Zn982  Zn    0.83333   0.83334   0.44896   0.00000  Uiso   1.00
H983   H     0.99189   0.83373   0.44718   0.00000  Uiso   1.00
H984   H     0.67478   0.83293   0.55282   0.00000  Uiso   1.00
H985   H     0.78166   0.70493   0.43614   0.00000  Uiso   1.00
H986   H     0.88500   0.96174   0.56386   0.00000  Uiso   1.00
C987   C     0.89922   0.89480   0.38475   0.00000  Uiso   1.00
C988   C     0.87816   0.93895   0.37386   0.00000  Uiso   1.00
C989   C     0.91249   0.97215   0.40083   0.00000  Uiso   1.00
H990   H     0.91449   0.96579   0.43780   0.00000  Uiso   1.00
H991   H     0.95283   0.97242   0.39159   0.00000  Uiso   1.00
H992   H     0.89554   0.67019   0.39306   0.00000  Uiso   1.00
H993   H     0.87712   0.94633   0.33714   0.00000  Uiso   1.00
H994   H     0.83748   0.94044   0.38199   0.00000  Uiso   1.00
H995   H     0.90429   0.88955   0.42142   0.00000  Uiso   1.00
H996   H     0.93914   0.89295   0.37479   0.00000  Uiso   1.00
C997   C     0.76745   0.77187   0.61525   0.00000  Uiso   1.00
C998   C     0.78850   0.72772   0.62615   0.00000  Uiso   1.00
C999   C     0.75417   0.69452   0.59917   0.00000  Uiso   1.00
H1000  H     0.71382   0.69426   0.60840   0.00000  Uiso   1.00
H1001  H     0.75218   0.70087   0.56220   0.00000  Uiso   1.00
H1002  H     0.77111   0.99647   0.60695   0.00000  Uiso   1.00
H1003  H     0.82918   0.72623   0.61801   0.00000  Uiso   1.00
H1004  H     0.78953   0.72034   0.66286   0.00000  Uiso   1.00
H1005  H     0.72752   0.77373   0.62521   0.00000  Uiso   1.00
H1006  H     0.76238   0.77712   0.57858   0.00000  Uiso   1.00
H1007  H     0.88820   0.88324   0.62897   0.00000  Uiso   1.00
H1008  H     0.77846   0.78343   0.37103   0.00000  Uiso   1.00
C1009  C     0.16647   0.08676   0.83357   0.00000  Uiso   1.00
C1010  C     0.16686   0.24657   0.83310   0.00000  Uiso   1.00
C1011  C     0.06719   0.16663   0.82151   0.00000  Uiso   1.00
C1012  C     0.26614   0.16671   0.84515   0.00000  Uiso   1.00
C1013  C     0.01219   0.16676   0.81514   0.00000  Uiso   1.00
C1014  C     0.32115   0.16657   0.85153   0.00000  Uiso   1.00
C1015  C     0.13773   0.02153   0.79723   0.00000  Uiso   1.00
C1016  C     0.19560   0.31180   0.86943   0.00000  Uiso   1.00
C1017  C     0.13797   0.31191   0.79690   0.00000  Uiso   1.00
C1018  C     0.19536   0.02143   0.86976   0.00000  Uiso   1.00
C1019  C     0.16707   0.29075   0.83290   0.00000  Uiso   1.00
C1020  C     0.16626   0.04259   0.83376   0.00000  Uiso   1.00
C1021  C     0.19727   0.19518   0.69288   0.00000  Uiso   1.00
C1022  C     0.13607   0.13815   0.97379   0.00000  Uiso   1.00
C1023  C     0.19709   0.19457   0.97854   0.00000  Uiso   1.00
C1024  C     0.13624   0.13876   0.68813   0.00000  Uiso   1.00
H1025  H     0.11502   0.29525   0.76921   0.00000  Uiso   1.00
H1026  H     0.21831   0.03808   0.89746   0.00000  Uiso   1.00
N1027  N     0.16665   0.16666   0.95240   0.00000  Uiso   1.00
N1028  N     0.16668   0.16668   0.71427   0.00000  Uiso   1.00
O1029  O     0.16666   0.10558   0.87154   0.00000  Uiso   1.00
O1030  O     0.16667   0.22775   0.79513   0.00000  Uiso   1.00
O1031  O     0.16666   0.10559   0.79510   0.00000  Uiso   1.00
O1032  O     0.16667   0.22774   0.87157   0.00000  Uiso   1.00
O1033  O     0.09058   0.16666   0.86261   0.00000  Uiso   1.00
O1034  O     0.24275   0.16667   0.80405   0.00000  Uiso   1.00
O1035  O     0.09058   0.16667   0.78617   0.00000  Uiso   1.00
O1036  O     0.24275   0.16666   0.88050   0.00000  Uiso   1.00
Zn1037 Zn    0.16667   0.16666   0.88437   0.00000  Uiso   1.00
Zn1038 Zn    0.16667   0.16667   0.78229   0.00000  Uiso   1.00
H1039  H     0.32522   0.16707   0.78052   0.00000  Uiso   1.00
H1040  H     0.00811   0.16627   0.88615   0.00000  Uiso   1.00
H1041  H     0.11499   0.03826   0.76947   0.00000  Uiso   1.00
H1042  H     0.21834   0.29507   0.89719   0.00000  Uiso   1.00
C1043  C     0.23255   0.22813   0.71808   0.00000  Uiso   1.00
C1044  C     0.21150   0.27228   0.70719   0.00000  Uiso   1.00
C1045  C     0.24582   0.30548   0.73417   0.00000  Uiso   1.00
H1046  H     0.24782   0.29913   0.77114   0.00000  Uiso   1.00
H1047  H     0.28616   0.30575   0.72492   0.00000  Uiso   1.00
H1048  H     0.22887   0.00352   0.72639   0.00000  Uiso   1.00
H1049  H     0.21046   0.27966   0.67047   0.00000  Uiso   1.00
H1050  H     0.17082   0.27377   0.71533   0.00000  Uiso   1.00
H1051  H     0.23762   0.22288   0.75475   0.00000  Uiso   1.00
H1052  H     0.27247   0.22628   0.70812   0.00000  Uiso   1.00
C1053  C     0.10078   0.10520   0.94858   0.00000  Uiso   1.00
C1054  C     0.12183   0.06105   0.95948   0.00000  Uiso   1.00
C1055  C     0.08750   0.02785   0.93250   0.00000  Uiso   1.00
H1056  H     0.04716   0.02760   0.94173   0.00000  Uiso   1.00
H1057  H     0.08552   0.03420   0.89553   0.00000  Uiso   1.00
H1058  H     0.10444   0.32981   0.94029   0.00000  Uiso   1.00
H1059  H     0.16251   0.05956   0.95134   0.00000  Uiso   1.00
H1060  H     0.12287   0.05368   0.99620   0.00000  Uiso   1.00
H1061  H     0.06086   0.10706   0.95854   0.00000  Uiso   1.00
H1062  H     0.09571   0.11045   0.91192   0.00000  Uiso   1.00
H1063  H     0.22154   0.21657   0.96230   0.00000  Uiso   1.00
H1064  H     0.11180   0.11676   0.70436   0.00000  Uiso   1.00
C1065  C     0.49981   0.08676   0.83357   0.00000  Uiso   1.00
C1066  C     0.50019   0.24657   0.83310   0.00000  Uiso   1.00
C1067  C     0.40052   0.16663   0.82151   0.00000  Uiso   1.00
C1068  C     0.59948   0.16671   0.84515   0.00000  Uiso   1.00
C1069  C     0.34552   0.16676   0.81514   0.00000  Uiso   1.00
C1070  C     0.65448   0.16657   0.85153   0.00000  Uiso   1.00
C1071  C     0.47106   0.02153   0.79723   0.00000  Uiso   1.00
C1072  C     0.52894   0.31180   0.86943   0.00000  Uiso   1.00
C1073  C     0.47130   0.31191   0.79690   0.00000  Uiso   1.00
C1074  C     0.52869   0.02143   0.86976   0.00000  Uiso   1.00
C1075  C     0.50040   0.29075   0.83290   0.00000  Uiso   1.00
C1076  C     0.49959   0.04259   0.83376   0.00000  Uiso   1.00
C1077  C     0.53060   0.19518   0.69288   0.00000  Uiso   1.00
C1078  C     0.46940   0.13815   0.97379   0.00000  Uiso   1.00
C1079  C     0.53043   0.19457   0.97854   0.00000  Uiso   1.00
C1080  C     0.46957   0.13876   0.68813   0.00000  Uiso   1.00
H1081  H     0.44835   0.29525   0.76921   0.00000  Uiso   1.00
H1082  H     0.55164   0.03808   0.89746   0.00000  Uiso   1.00
N1083  N     0.49999   0.16666   0.95240   0.00000  Uiso   1.00
N1084  N     0.50001   0.16668   0.71427   0.00000  Uiso   1.00
O1085  O     0.50000   0.10558   0.87154   0.00000  Uiso   1.00
O1086  O     0.50000   0.22775   0.79513   0.00000  Uiso   1.00
O1087  O     0.50000   0.10559   0.79510   0.00000  Uiso   1.00
O1088  O     0.50000   0.22774   0.87157   0.00000  Uiso   1.00
O1089  O     0.42392   0.16666   0.86261   0.00000  Uiso   1.00
O1090  O     0.57608   0.16667   0.80405   0.00000  Uiso   1.00
O1091  O     0.42392   0.16667   0.78617   0.00000  Uiso   1.00
O1092  O     0.57608   0.16666   0.88050   0.00000  Uiso   1.00
Zn1093 Zn    0.50000   0.16666   0.88437   0.00000  Uiso   1.00
Zn1094 Zn    0.50000   0.16667   0.78229   0.00000  Uiso   1.00
H1095  H     0.65855   0.16707   0.78052   0.00000  Uiso   1.00
H1096  H     0.34145   0.16627   0.88615   0.00000  Uiso   1.00
H1097  H     0.44833   0.03826   0.76947   0.00000  Uiso   1.00
H1098  H     0.55167   0.29507   0.89719   0.00000  Uiso   1.00
C1099  C     0.56588   0.22813   0.71808   0.00000  Uiso   1.00
C1100  C     0.54483   0.27228   0.70719   0.00000  Uiso   1.00
C1101  C     0.57916   0.30548   0.73417   0.00000  Uiso   1.00
H1102  H     0.58116   0.29913   0.77114   0.00000  Uiso   1.00
H1103  H     0.61950   0.30575   0.72492   0.00000  Uiso   1.00
H1104  H     0.56221   0.00352   0.72639   0.00000  Uiso   1.00
H1105  H     0.54379   0.27966   0.67047   0.00000  Uiso   1.00
H1106  H     0.50415   0.27377   0.71533   0.00000  Uiso   1.00
H1107  H     0.57095   0.22288   0.75475   0.00000  Uiso   1.00
H1108  H     0.60581   0.22628   0.70812   0.00000  Uiso   1.00
C1109  C     0.43412   0.10520   0.94858   0.00000  Uiso   1.00
C1110  C     0.45516   0.06105   0.95948   0.00000  Uiso   1.00
C1111  C     0.42083   0.02785   0.93250   0.00000  Uiso   1.00
H1112  H     0.38049   0.02760   0.94173   0.00000  Uiso   1.00
H1113  H     0.41885   0.03420   0.89553   0.00000  Uiso   1.00
H1114  H     0.43777   0.32981   0.94029   0.00000  Uiso   1.00
H1115  H     0.49584   0.05956   0.95134   0.00000  Uiso   1.00
H1116  H     0.45620   0.05368   0.99620   0.00000  Uiso   1.00
H1117  H     0.39419   0.10706   0.95854   0.00000  Uiso   1.00
H1118  H     0.42905   0.11045   0.91192   0.00000  Uiso   1.00
H1119  H     0.55487   0.21657   0.96230   0.00000  Uiso   1.00
H1120  H     0.44513   0.11676   0.70436   0.00000  Uiso   1.00
C1121  C     0.83314   0.08676   0.83357   0.00000  Uiso   1.00
C1122  C     0.83353   0.24657   0.83310   0.00000  Uiso   1.00
C1123  C     0.73386   0.16663   0.82151   0.00000  Uiso   1.00
C1124  C     0.93281   0.16671   0.84515   0.00000  Uiso   1.00
C1125  C     0.67885   0.16676   0.81514   0.00000  Uiso   1.00
C1126  C     0.98781   0.16657   0.85153   0.00000  Uiso   1.00
C1127  C     0.80439   0.02153   0.79723   0.00000  Uiso   1.00
C1128  C     0.86227   0.31180   0.86943   0.00000  Uiso   1.00
C1129  C     0.80464   0.31191   0.79690   0.00000  Uiso   1.00
C1130  C     0.86203   0.02143   0.86976   0.00000  Uiso   1.00
C1131  C     0.83374   0.29075   0.83290   0.00000  Uiso   1.00
C1132  C     0.83293   0.04259   0.83376   0.00000  Uiso   1.00
C1133  C     0.86393   0.19518   0.69288   0.00000  Uiso   1.00
C1134  C     0.80273   0.13815   0.97379   0.00000  Uiso   1.00
C1135  C     0.86376   0.19457   0.97854   0.00000  Uiso   1.00
C1136  C     0.80291   0.13876   0.68813   0.00000  Uiso   1.00
H1137  H     0.78169   0.29525   0.76921   0.00000  Uiso   1.00
H1138  H     0.88498   0.03808   0.89746   0.00000  Uiso   1.00
N1139  N     0.83332   0.16666   0.95240   0.00000  Uiso   1.00
N1140  N     0.83335   0.16668   0.71427   0.00000  Uiso   1.00
O1141  O     0.83333   0.10558   0.87154   0.00000  Uiso   1.00
O1142  O     0.83334   0.22775   0.79513   0.00000  Uiso   1.00
O1143  O     0.83333   0.10559   0.79510   0.00000  Uiso   1.00
O1144  O     0.83334   0.22774   0.87157   0.00000  Uiso   1.00
O1145  O     0.75725   0.16666   0.86261   0.00000  Uiso   1.00
O1146  O     0.90942   0.16667   0.80405   0.00000  Uiso   1.00
O1147  O     0.75725   0.16667   0.78617   0.00000  Uiso   1.00
O1148  O     0.90942   0.16666   0.88050   0.00000  Uiso   1.00
Zn1149 Zn    0.83333   0.16666   0.88437   0.00000  Uiso   1.00
Zn1150 Zn    0.83333   0.16667   0.78229   0.00000  Uiso   1.00
H1151  H     0.99189   0.16707   0.78052   0.00000  Uiso   1.00
H1152  H     0.67478   0.16627   0.88615   0.00000  Uiso   1.00
H1153  H     0.78166   0.03826   0.76947   0.00000  Uiso   1.00
H1154  H     0.88500   0.29507   0.89719   0.00000  Uiso   1.00
C1155  C     0.89922   0.22813   0.71808   0.00000  Uiso   1.00
C1156  C     0.87816   0.27228   0.70719   0.00000  Uiso   1.00
C1157  C     0.91249   0.30548   0.73417   0.00000  Uiso   1.00
H1158  H     0.91449   0.29913   0.77114   0.00000  Uiso   1.00
H1159  H     0.95283   0.30575   0.72492   0.00000  Uiso   1.00
H1160  H     0.89554   0.00352   0.72639   0.00000  Uiso   1.00
H1161  H     0.87712   0.27966   0.67047   0.00000  Uiso   1.00
H1162  H     0.83748   0.27377   0.71533   0.00000  Uiso   1.00
H1163  H     0.90429   0.22288   0.75475   0.00000  Uiso   1.00
H1164  H     0.93914   0.22628   0.70812   0.00000  Uiso   1.00
C1165  C     0.76745   0.10520   0.94858   0.00000  Uiso   1.00
C1166  C     0.78850   0.06105   0.95948   0.00000  Uiso   1.00
C1167  C     0.75417   0.02785   0.93250   0.00000  Uiso   1.00
H1168  H     0.71382   0.02760   0.94173   0.00000  Uiso   1.00
H1169  H     0.75218   0.03420   0.89553   0.00000  Uiso   1.00
H1170  H     0.77111   0.32981   0.94029   0.00000  Uiso   1.00
H1171  H     0.82918   0.05956   0.95134   0.00000  Uiso   1.00
H1172  H     0.78953   0.05368   0.99620   0.00000  Uiso   1.00
H1173  H     0.72752   0.10706   0.95854   0.00000  Uiso   1.00
H1174  H     0.76238   0.11045   0.91192   0.00000  Uiso   1.00
H1175  H     0.88820   0.21657   0.96230   0.00000  Uiso   1.00
H1176  H     0.77846   0.11676   0.70436   0.00000  Uiso   1.00
C1177  C     0.16647   0.42009   0.83357   0.00000  Uiso   1.00
C1178  C     0.16686   0.57991   0.83310   0.00000  Uiso   1.00
C1179  C     0.06719   0.49996   0.82151   0.00000  Uiso   1.00
C1180  C     0.26614   0.50004   0.84515   0.00000  Uiso   1.00
C1181  C     0.01219   0.50009   0.81514   0.00000  Uiso   1.00
C1182  C     0.32115   0.49991   0.85153   0.00000  Uiso   1.00
C1183  C     0.13773   0.35486   0.79723   0.00000  Uiso   1.00
C1184  C     0.19560   0.64514   0.86943   0.00000  Uiso   1.00
C1185  C     0.13797   0.64524   0.79690   0.00000  Uiso   1.00
C1186  C     0.19536   0.35476   0.86976   0.00000  Uiso   1.00
C1187  C     0.16707   0.62408   0.83290   0.00000  Uiso   1.00
C1188  C     0.16626   0.37592   0.83376   0.00000  Uiso   1.00
C1189  C     0.19727   0.52851   0.69288   0.00000  Uiso   1.00
C1190  C     0.13607   0.47149   0.97379   0.00000  Uiso   1.00
C1191  C     0.19709   0.52790   0.97854   0.00000  Uiso   1.00
C1192  C     0.13624   0.47210   0.68813   0.00000  Uiso   1.00
H1193  H     0.11502   0.62859   0.76921   0.00000  Uiso   1.00
H1194  H     0.21831   0.37141   0.89746   0.00000  Uiso   1.00
N1195  N     0.16665   0.49999   0.95240   0.00000  Uiso   1.00
N1196  N     0.16668   0.50001   0.71427   0.00000  Uiso   1.00
O1197  O     0.16666   0.43892   0.87154   0.00000  Uiso   1.00
O1198  O     0.16667   0.56108   0.79513   0.00000  Uiso   1.00
O1199  O     0.16666   0.43893   0.79510   0.00000  Uiso   1.00
O1200  O     0.16667   0.56107   0.87157   0.00000  Uiso   1.00
O1201  O     0.09058   0.50000   0.86261   0.00000  Uiso   1.00
O1202  O     0.24275   0.50000   0.80405   0.00000  Uiso   1.00
O1203  O     0.09058   0.50000   0.78617   0.00000  Uiso   1.00
O1204  O     0.24275   0.50000   0.88050   0.00000  Uiso   1.00
Zn1205 Zn    0.16667   0.49999   0.88437   0.00000  Uiso   1.00
Zn1206 Zn    0.16667   0.50001   0.78229   0.00000  Uiso   1.00
H1207  H     0.32522   0.50040   0.78052   0.00000  Uiso   1.00
H1208  H     0.00811   0.49960   0.88615   0.00000  Uiso   1.00
H1209  H     0.11499   0.37160   0.76947   0.00000  Uiso   1.00
H1210  H     0.21834   0.62840   0.89719   0.00000  Uiso   1.00
C1211  C     0.23255   0.56147   0.71808   0.00000  Uiso   1.00
C1212  C     0.21150   0.60561   0.70719   0.00000  Uiso   1.00
C1213  C     0.24582   0.63882   0.73417   0.00000  Uiso   1.00
H1214  H     0.24782   0.63246   0.77114   0.00000  Uiso   1.00
H1215  H     0.28616   0.63908   0.72492   0.00000  Uiso   1.00
H1216  H     0.22887   0.33686   0.72639   0.00000  Uiso   1.00
H1217  H     0.21046   0.61299   0.67047   0.00000  Uiso   1.00
H1218  H     0.17082   0.60710   0.71533   0.00000  Uiso   1.00
H1219  H     0.23762   0.55622   0.75475   0.00000  Uiso   1.00
H1220  H     0.27247   0.55961   0.70812   0.00000  Uiso   1.00
C1221  C     0.10078   0.43853   0.94858   0.00000  Uiso   1.00
C1222  C     0.12183   0.39439   0.95948   0.00000  Uiso   1.00
C1223  C     0.08750   0.36119   0.93250   0.00000  Uiso   1.00
H1224  H     0.04716   0.36093   0.94173   0.00000  Uiso   1.00
H1225  H     0.08552   0.36753   0.89553   0.00000  Uiso   1.00
H1226  H     0.10444   0.66314   0.94029   0.00000  Uiso   1.00
H1227  H     0.16251   0.39289   0.95134   0.00000  Uiso   1.00
H1228  H     0.12287   0.38701   0.99620   0.00000  Uiso   1.00
H1229  H     0.06086   0.44039   0.95854   0.00000  Uiso   1.00
H1230  H     0.09571   0.44378   0.91192   0.00000  Uiso   1.00
H1231  H     0.22154   0.54991   0.96230   0.00000  Uiso   1.00
H1232  H     0.11180   0.45009   0.70436   0.00000  Uiso   1.00
C1233  C     0.49981   0.42009   0.83357   0.00000  Uiso   1.00
C1234  C     0.50019   0.57991   0.83310   0.00000  Uiso   1.00
C1235  C     0.40052   0.49996   0.82151   0.00000  Uiso   1.00
C1236  C     0.59948   0.50004   0.84515   0.00000  Uiso   1.00
C1237  C     0.34552   0.50009   0.81514   0.00000  Uiso   1.00
C1238  C     0.65448   0.49991   0.85153   0.00000  Uiso   1.00
C1239  C     0.47106   0.35486   0.79723   0.00000  Uiso   1.00
C1240  C     0.52894   0.64514   0.86943   0.00000  Uiso   1.00
C1241  C     0.47130   0.64524   0.79690   0.00000  Uiso   1.00
C1242  C     0.52869   0.35476   0.86976   0.00000  Uiso   1.00
C1243  C     0.50040   0.62408   0.83290   0.00000  Uiso   1.00
C1244  C     0.49959   0.37592   0.83376   0.00000  Uiso   1.00
C1245  C     0.53060   0.52851   0.69288   0.00000  Uiso   1.00
C1246  C     0.46940   0.47149   0.97379   0.00000  Uiso   1.00
C1247  C     0.53043   0.52790   0.97854   0.00000  Uiso   1.00
C1248  C     0.46957   0.47210   0.68813   0.00000  Uiso   1.00
H1249  H     0.44835   0.62859   0.76921   0.00000  Uiso   1.00
H1250  H     0.55164   0.37141   0.89746   0.00000  Uiso   1.00
N1251  N     0.49999   0.49999   0.95240   0.00000  Uiso   1.00
N1252  N     0.50001   0.50001   0.71427   0.00000  Uiso   1.00
O1253  O     0.50000   0.43892   0.87154   0.00000  Uiso   1.00
O1254  O     0.50000   0.56108   0.79513   0.00000  Uiso   1.00
O1255  O     0.50000   0.43893   0.79510   0.00000  Uiso   1.00
O1256  O     0.50000   0.56107   0.87157   0.00000  Uiso   1.00
O1257  O     0.42392   0.50000   0.86261   0.00000  Uiso   1.00
O1258  O     0.57608   0.50000   0.80405   0.00000  Uiso   1.00
O1259  O     0.42392   0.50000   0.78617   0.00000  Uiso   1.00
O1260  O     0.57608   0.50000   0.88050   0.00000  Uiso   1.00
Zn1261 Zn    0.50000   0.49999   0.88437   0.00000  Uiso   1.00
Zn1262 Zn    0.50000   0.50001   0.78229   0.00000  Uiso   1.00
H1263  H     0.65855   0.50040   0.78052   0.00000  Uiso   1.00
H1264  H     0.34145   0.49960   0.88615   0.00000  Uiso   1.00
H1265  H     0.44833   0.37160   0.76947   0.00000  Uiso   1.00
H1266  H     0.55167   0.62840   0.89719   0.00000  Uiso   1.00
C1267  C     0.56588   0.56147   0.71808   0.00000  Uiso   1.00
C1268  C     0.54483   0.60561   0.70719   0.00000  Uiso   1.00
C1269  C     0.57916   0.63882   0.73417   0.00000  Uiso   1.00
H1270  H     0.58116   0.63246   0.77114   0.00000  Uiso   1.00
H1271  H     0.61950   0.63908   0.72492   0.00000  Uiso   1.00
H1272  H     0.56221   0.33686   0.72639   0.00000  Uiso   1.00
H1273  H     0.54379   0.61299   0.67047   0.00000  Uiso   1.00
H1274  H     0.50415   0.60710   0.71533   0.00000  Uiso   1.00
H1275  H     0.57095   0.55622   0.75475   0.00000  Uiso   1.00
H1276  H     0.60581   0.55961   0.70812   0.00000  Uiso   1.00
C1277  C     0.43412   0.43853   0.94858   0.00000  Uiso   1.00
C1278  C     0.45516   0.39439   0.95948   0.00000  Uiso   1.00
C1279  C     0.42083   0.36119   0.93250   0.00000  Uiso   1.00
H1280  H     0.38049   0.36093   0.94173   0.00000  Uiso   1.00
H1281  H     0.41885   0.36753   0.89553   0.00000  Uiso   1.00
H1282  H     0.43777   0.66314   0.94029   0.00000  Uiso   1.00
H1283  H     0.49584   0.39289   0.95134   0.00000  Uiso   1.00
H1284  H     0.45620   0.38701   0.99620   0.00000  Uiso   1.00
H1285  H     0.39419   0.44039   0.95854   0.00000  Uiso   1.00
H1286  H     0.42905   0.44378   0.91192   0.00000  Uiso   1.00
H1287  H     0.55487   0.54991   0.96230   0.00000  Uiso   1.00
H1288  H     0.44513   0.45009   0.70436   0.00000  Uiso   1.00
C1289  C     0.83314   0.42009   0.83357   0.00000  Uiso   1.00
C1290  C     0.83353   0.57991   0.83310   0.00000  Uiso   1.00
C1291  C     0.73386   0.49996   0.82151   0.00000  Uiso   1.00
C1292  C     0.93281   0.50004   0.84515   0.00000  Uiso   1.00
C1293  C     0.67885   0.50009   0.81514   0.00000  Uiso   1.00
C1294  C     0.98781   0.49991   0.85153   0.00000  Uiso   1.00
C1295  C     0.80439   0.35486   0.79723   0.00000  Uiso   1.00
C1296  C     0.86227   0.64514   0.86943   0.00000  Uiso   1.00
C1297  C     0.80464   0.64524   0.79690   0.00000  Uiso   1.00
C1298  C     0.86203   0.35476   0.86976   0.00000  Uiso   1.00
C1299  C     0.83374   0.62408   0.83290   0.00000  Uiso   1.00
C1300  C     0.83293   0.37592   0.83376   0.00000  Uiso   1.00
C1301  C     0.86393   0.52851   0.69288   0.00000  Uiso   1.00
C1302  C     0.80273   0.47149   0.97379   0.00000  Uiso   1.00
C1303  C     0.86376   0.52790   0.97854   0.00000  Uiso   1.00
C1304  C     0.80291   0.47210   0.68813   0.00000  Uiso   1.00
H1305  H     0.78169   0.62859   0.76921   0.00000  Uiso   1.00
H1306  H     0.88498   0.37141   0.89746   0.00000  Uiso   1.00
N1307  N     0.83332   0.49999   0.95240   0.00000  Uiso   1.00
N1308  N     0.83335   0.50001   0.71427   0.00000  Uiso   1.00
O1309  O     0.83333   0.43892   0.87154   0.00000  Uiso   1.00
O1310  O     0.83334   0.56108   0.79513   0.00000  Uiso   1.00
O1311  O     0.83333   0.43893   0.79510   0.00000  Uiso   1.00
O1312  O     0.83334   0.56107   0.87157   0.00000  Uiso   1.00
O1313  O     0.75725   0.50000   0.86261   0.00000  Uiso   1.00
O1314  O     0.90942   0.50000   0.80405   0.00000  Uiso   1.00
O1315  O     0.75725   0.50000   0.78617   0.00000  Uiso   1.00
O1316  O     0.90942   0.50000   0.88050   0.00000  Uiso   1.00
Zn1317 Zn    0.83333   0.49999   0.88437   0.00000  Uiso   1.00
Zn1318 Zn    0.83333   0.50001   0.78229   0.00000  Uiso   1.00
H1319  H     0.99189   0.50040   0.78052   0.00000  Uiso   1.00
H1320  H     0.67478   0.49960   0.88615   0.00000  Uiso   1.00
H1321  H     0.78166   0.37160   0.76947   0.00000  Uiso   1.00
H1322  H     0.88500   0.62840   0.89719   0.00000  Uiso   1.00
C1323  C     0.89922   0.56147   0.71808   0.00000  Uiso   1.00
C1324  C     0.87816   0.60561   0.70719   0.00000  Uiso   1.00
C1325  C     0.91249   0.63882   0.73417   0.00000  Uiso   1.00
H1326  H     0.91449   0.63246   0.77114   0.00000  Uiso   1.00
H1327  H     0.95283   0.63908   0.72492   0.00000  Uiso   1.00
H1328  H     0.89554   0.33686   0.72639   0.00000  Uiso   1.00
H1329  H     0.87712   0.61299   0.67047   0.00000  Uiso   1.00
H1330  H     0.83748   0.60710   0.71533   0.00000  Uiso   1.00
H1331  H     0.90429   0.55622   0.75475   0.00000  Uiso   1.00
H1332  H     0.93914   0.55961   0.70812   0.00000  Uiso   1.00
C1333  C     0.76745   0.43853   0.94858   0.00000  Uiso   1.00
C1334  C     0.78850   0.39439   0.95948   0.00000  Uiso   1.00
C1335  C     0.75417   0.36119   0.93250   0.00000  Uiso   1.00
H1336  H     0.71382   0.36093   0.94173   0.00000  Uiso   1.00
H1337  H     0.75218   0.36753   0.89553   0.00000  Uiso   1.00
H1338  H     0.77111   0.66314   0.94029   0.00000  Uiso   1.00
H1339  H     0.82918   0.39289   0.95134   0.00000  Uiso   1.00
H1340  H     0.78953   0.38701   0.99620   0.00000  Uiso   1.00
H1341  H     0.72752   0.44039   0.95854   0.00000  Uiso   1.00
H1342  H     0.76238   0.44378   0.91192   0.00000  Uiso   1.00
H1343  H     0.88820   0.54991   0.96230   0.00000  Uiso   1.00
H1344  H     0.77846   0.45009   0.70436   0.00000  Uiso   1.00
C1345  C     0.16647   0.75343   0.83357   0.00000  Uiso   1.00
C1346  C     0.16686   0.91324   0.83310   0.00000  Uiso   1.00
C1347  C     0.06719   0.83329   0.82151   0.00000  Uiso   1.00
C1348  C     0.26614   0.83337   0.84515   0.00000  Uiso   1.00
C1349  C     0.01219   0.83343   0.81514   0.00000  Uiso   1.00
C1350  C     0.32115   0.83324   0.85153   0.00000  Uiso   1.00
C1351  C     0.13773   0.68820   0.79723   0.00000  Uiso   1.00
C1352  C     0.19560   0.97847   0.86943   0.00000  Uiso   1.00
C1353  C     0.13797   0.97857   0.79690   0.00000  Uiso   1.00
C1354  C     0.19536   0.68809   0.86976   0.00000  Uiso   1.00
C1355  C     0.16707   0.95741   0.83290   0.00000  Uiso   1.00
C1356  C     0.16626   0.70925   0.83376   0.00000  Uiso   1.00
C1357  C     0.19727   0.86185   0.69288   0.00000  Uiso   1.00
C1358  C     0.13607   0.80482   0.97379   0.00000  Uiso   1.00
C1359  C     0.19709   0.86124   0.97854   0.00000  Uiso   1.00
C1360  C     0.13624   0.80543   0.68813   0.00000  Uiso   1.00
H1361  H     0.11502   0.96192   0.76921   0.00000  Uiso   1.00
H1362  H     0.21831   0.70475   0.89746   0.00000  Uiso   1.00
N1363  N     0.16665   0.83332   0.95240   0.00000  Uiso   1.00
N1364  N     0.16668   0.83334   0.71427   0.00000  Uiso   1.00
O1365  O     0.16666   0.77225   0.87154   0.00000  Uiso   1.00
O1366  O     0.16667   0.89442   0.79513   0.00000  Uiso   1.00
O1367  O     0.16666   0.77226   0.79510   0.00000  Uiso   1.00
O1368  O     0.16667   0.89441   0.87157   0.00000  Uiso   1.00
O1369  O     0.09058   0.83333   0.86261   0.00000  Uiso   1.00
O1370  O     0.24275   0.83334   0.80405   0.00000  Uiso   1.00
O1371  O     0.09058   0.83334   0.78617   0.00000  Uiso   1.00
O1372  O     0.24275   0.83333   0.88050   0.00000  Uiso   1.00
Zn1373 Zn    0.16667   0.83333   0.88437   0.00000  Uiso   1.00
Zn1374 Zn    0.16667   0.83334   0.78229   0.00000  Uiso   1.00
H1375  H     0.32522   0.83373   0.78052   0.00000  Uiso   1.00
H1376  H     0.00811   0.83293   0.88615   0.00000  Uiso   1.00
H1377  H     0.11499   0.70493   0.76947   0.00000  Uiso   1.00
H1378  H     0.21834   0.96174   0.89719   0.00000  Uiso   1.00
C1379  C     0.23255   0.89480   0.71808   0.00000  Uiso   1.00
C1380  C     0.21150   0.93895   0.70719   0.00000  Uiso   1.00
C1381  C     0.24582   0.97215   0.73417   0.00000  Uiso   1.00
H1382  H     0.24782   0.96579   0.77114   0.00000  Uiso   1.00
H1383  H     0.28616   0.97242   0.72492   0.00000  Uiso   1.00
H1384  H     0.22887   0.67019   0.72639   0.00000  Uiso   1.00
H1385  H     0.21046   0.94633   0.67047   0.00000  Uiso   1.00
H1386  H     0.17082   0.94044   0.71533   0.00000  Uiso   1.00
H1387  H     0.23762   0.88955   0.75475   0.00000  Uiso   1.00
H1388  H     0.27247   0.89295   0.70812   0.00000  Uiso   1.00
C1389  C     0.10078   0.77187   0.94858   0.00000  Uiso   1.00
C1390  C     0.12183   0.72772   0.95948   0.00000  Uiso   1.00
C1391  C     0.08750   0.69452   0.93250   0.00000  Uiso   1.00
H1392  H     0.04716   0.69426   0.94173   0.00000  Uiso   1.00
H1393  H     0.08552   0.70087   0.89553   0.00000  Uiso   1.00
H1394  H     0.10444   0.99647   0.94029   0.00000  Uiso   1.00
H1395  H     0.16251   0.72623   0.95134   0.00000  Uiso   1.00
H1396  H     0.12287   0.72034   0.99620   0.00000  Uiso   1.00
H1397  H     0.06086   0.77373   0.95854   0.00000  Uiso   1.00
H1398  H     0.09571   0.77712   0.91192   0.00000  Uiso   1.00
H1399  H     0.22154   0.88324   0.96230   0.00000  Uiso   1.00
H1400  H     0.11180   0.78343   0.70436   0.00000  Uiso   1.00
C1401  C     0.49981   0.75343   0.83357   0.00000  Uiso   1.00
C1402  C     0.50019   0.91324   0.83310   0.00000  Uiso   1.00
C1403  C     0.40052   0.83329   0.82151   0.00000  Uiso   1.00
C1404  C     0.59948   0.83337   0.84515   0.00000  Uiso   1.00
C1405  C     0.34552   0.83343   0.81514   0.00000  Uiso   1.00
C1406  C     0.65448   0.83324   0.85153   0.00000  Uiso   1.00
C1407  C     0.47106   0.68820   0.79723   0.00000  Uiso   1.00
C1408  C     0.52894   0.97847   0.86943   0.00000  Uiso   1.00
C1409  C     0.47130   0.97857   0.79690   0.00000  Uiso   1.00
C1410  C     0.52869   0.68809   0.86976   0.00000  Uiso   1.00
C1411  C     0.50040   0.95741   0.83290   0.00000  Uiso   1.00
C1412  C     0.49959   0.70925   0.83376   0.00000  Uiso   1.00
C1413  C     0.53060   0.86185   0.69288   0.00000  Uiso   1.00
C1414  C     0.46940   0.80482   0.97379   0.00000  Uiso   1.00
C1415  C     0.53043   0.86124   0.97854   0.00000  Uiso   1.00
C1416  C     0.46957   0.80543   0.68813   0.00000  Uiso   1.00
H1417  H     0.44835   0.96192   0.76921   0.00000  Uiso   1.00
H1418  H     0.55164   0.70475   0.89746   0.00000  Uiso   1.00
N1419  N     0.49999   0.83332   0.95240   0.00000  Uiso   1.00
N1420  N     0.50001   0.83334   0.71427   0.00000  Uiso   1.00
O1421  O     0.50000   0.77225   0.87154   0.00000  Uiso   1.00
O1422  O     0.50000   0.89442   0.79513   0.00000  Uiso   1.00
O1423  O     0.50000   0.77226   0.79510   0.00000  Uiso   1.00
O1424  O     0.50000   0.89441   0.87157   0.00000  Uiso   1.00
O1425  O     0.42392   0.83333   0.86261   0.00000  Uiso   1.00
O1426  O     0.57608   0.83334   0.80405   0.00000  Uiso   1.00
O1427  O     0.42392   0.83334   0.78617   0.00000  Uiso   1.00
O1428  O     0.57608   0.83333   0.88050   0.00000  Uiso   1.00
Zn1429 Zn    0.50000   0.83333   0.88437   0.00000  Uiso   1.00
Zn1430 Zn    0.50000   0.83334   0.78229   0.00000  Uiso   1.00
H1431  H     0.65855   0.83373   0.78052   0.00000  Uiso   1.00
H1432  H     0.34145   0.83293   0.88615   0.00000  Uiso   1.00
H1433  H     0.44833   0.70493   0.76947   0.00000  Uiso   1.00
H1434  H     0.55167   0.96174   0.89719   0.00000  Uiso   1.00
C1435  C     0.56588   0.89480   0.71808   0.00000  Uiso   1.00
C1436  C     0.54483   0.93895   0.70719   0.00000  Uiso   1.00
C1437  C     0.57916   0.97215   0.73417   0.00000  Uiso   1.00
H1438  H     0.58116   0.96579   0.77114   0.00000  Uiso   1.00
H1439  H     0.61950   0.97242   0.72492   0.00000  Uiso   1.00
H1440  H     0.56221   0.67019   0.72639   0.00000  Uiso   1.00
H1441  H     0.54379   0.94633   0.67047   0.00000  Uiso   1.00
H1442  H     0.50415   0.94044   0.71533   0.00000  Uiso   1.00
H1443  H     0.57095   0.88955   0.75475   0.00000  Uiso   1.00
H1444  H     0.60581   0.89295   0.70812   0.00000  Uiso   1.00
C1445  C     0.43412   0.77187   0.94858   0.00000  Uiso   1.00
C1446  C     0.45516   0.72772   0.95948   0.00000  Uiso   1.00
C1447  C     0.42083   0.69452   0.93250   0.00000  Uiso   1.00
H1448  H     0.38049   0.69426   0.94173   0.00000  Uiso   1.00
H1449  H     0.41885   0.70087   0.89553   0.00000  Uiso   1.00
H1450  H     0.43777   0.99647   0.94029   0.00000  Uiso   1.00
H1451  H     0.49584   0.72623   0.95134   0.00000  Uiso   1.00
H1452  H     0.45620   0.72034   0.99620   0.00000  Uiso   1.00
H1453  H     0.39419   0.77373   0.95854   0.00000  Uiso   1.00
H1454  H     0.42905   0.77712   0.91192   0.00000  Uiso   1.00
H1455  H     0.55487   0.88324   0.96230   0.00000  Uiso   1.00
H1456  H     0.44513   0.78343   0.70436   0.00000  Uiso   1.00
C1457  C     0.83314   0.75343   0.83357   0.00000  Uiso   1.00
C1458  C     0.83353   0.91324   0.83310   0.00000  Uiso   1.00
C1459  C     0.73386   0.83329   0.82151   0.00000  Uiso   1.00
C1460  C     0.93281   0.83337   0.84515   0.00000  Uiso   1.00
C1461  C     0.67885   0.83343   0.81514   0.00000  Uiso   1.00
C1462  C     0.98781   0.83324   0.85153   0.00000  Uiso   1.00
C1463  C     0.80439   0.68820   0.79723   0.00000  Uiso   1.00
C1464  C     0.86227   0.97847   0.86943   0.00000  Uiso   1.00
C1465  C     0.80464   0.97857   0.79690   0.00000  Uiso   1.00
C1466  C     0.86203   0.68809   0.86976   0.00000  Uiso   1.00
C1467  C     0.83374   0.95741   0.83290   0.00000  Uiso   1.00
C1468  C     0.83293   0.70925   0.83376   0.00000  Uiso   1.00
C1469  C     0.86393   0.86185   0.69288   0.00000  Uiso   1.00
C1470  C     0.80273   0.80482   0.97379   0.00000  Uiso   1.00
C1471  C     0.86376   0.86124   0.97854   0.00000  Uiso   1.00
C1472  C     0.80291   0.80543   0.68813   0.00000  Uiso   1.00
H1473  H     0.78169   0.96192   0.76921   0.00000  Uiso   1.00
H1474  H     0.88498   0.70475   0.89746   0.00000  Uiso   1.00
N1475  N     0.83332   0.83332   0.95240   0.00000  Uiso   1.00
N1476  N     0.83335   0.83334   0.71427   0.00000  Uiso   1.00
O1477  O     0.83333   0.77225   0.87154   0.00000  Uiso   1.00
O1478  O     0.83334   0.89442   0.79513   0.00000  Uiso   1.00
O1479  O     0.83333   0.77226   0.79510   0.00000  Uiso   1.00
O1480  O     0.83334   0.89441   0.87157   0.00000  Uiso   1.00
O1481  O     0.75725   0.83333   0.86261   0.00000  Uiso   1.00
O1482  O     0.90942   0.83334   0.80405   0.00000  Uiso   1.00
O1483  O     0.75725   0.83334   0.78617   0.00000  Uiso   1.00
O1484  O     0.90942   0.83333   0.88050   0.00000  Uiso   1.00
Zn1485 Zn    0.83333   0.83333   0.88437   0.00000  Uiso   1.00
Zn1486 Zn    0.83333   0.83334   0.78229   0.00000  Uiso   1.00
H1487  H     0.99189   0.83373   0.78052   0.00000  Uiso   1.00
H1488  H     0.67478   0.83293   0.88615   0.00000  Uiso   1.00
H1489  H     0.78166   0.70493   0.76947   0.00000  Uiso   1.00
H1490  H     0.88500   0.96174   0.89719   0.00000  Uiso   1.00
C1491  C     0.89922   0.89480   0.71808   0.00000  Uiso   1.00
C1492  C     0.87816   0.93895   0.70719   0.00000  Uiso   1.00
C1493  C     0.91249   0.97215   0.73417   0.00000  Uiso   1.00
H1494  H     0.91449   0.96579   0.77114   0.00000  Uiso   1.00
H1495  H     0.95283   0.97242   0.72492   0.00000  Uiso   1.00
H1496  H     0.89554   0.67019   0.72639   0.00000  Uiso   1.00
H1497  H     0.87712   0.94633   0.67047   0.00000  Uiso   1.00
H1498  H     0.83748   0.94044   0.71533   0.00000  Uiso   1.00
H1499  H     0.90429   0.88955   0.75475   0.00000  Uiso   1.00
H1500  H     0.93914   0.89295   0.70812   0.00000  Uiso   1.00
C1501  C     0.76745   0.77187   0.94858   0.00000  Uiso   1.00
C1502  C     0.78850   0.72772   0.95948   0.00000  Uiso   1.00
C1503  C     0.75417   0.69452   0.93250   0.00000  Uiso   1.00
H1504  H     0.71382   0.69426   0.94173   0.00000  Uiso   1.00
H1505  H     0.75218   0.70087   0.89553   0.00000  Uiso   1.00
H1506  H     0.77111   0.99647   0.94029   0.00000  Uiso   1.00
H1507  H     0.82918   0.72623   0.95134   0.00000  Uiso   1.00
H1508  H     0.78953   0.72034   0.99620   0.00000  Uiso   1.00
H1509  H     0.72752   0.77373   0.95854   0.00000  Uiso   1.00
H1510  H     0.76238   0.77712   0.91192   0.00000  Uiso   1.00
H1511  H     0.88820   0.88324   0.96230   0.00000  Uiso   1.00
H1512  H     0.77846   0.78343   0.70436   0.00000  Uiso   1.00
loop_
_geom_bond_atom_site_label_1
_geom_bond_atom_site_label_2
_geom_bond_distance
_geom_bond_site_symmetry_2
_ccdc_geom_bond_type
C1     O21     1.290   .     A
C1     O23     1.285   .     A
C1     C12     1.410   .     S
C2     O22     1.290   .     A
C2     C11     1.410   .     S
C2     O24     1.285   .     A
C3     O27     1.285   .     A
C3     O25     1.286   .     A
C3     C5      1.402   .     S
C4     O26     1.286   .     A
C4     O28     1.285   .     A
C4     C6      1.402   .     S
C5     C118    1.327   1_455 S
C5     H143    1.088   1_455 S
C6     C61     1.327   .     S
C6     H88     1.088   .     S
C7     C12     1.397   .     A
C7     H33     1.084   .     S
C7     C345    1.372   1_545 S
C8     H34     1.084   .     S
C8     C11     1.397   .     A
C8     C178    1.372   .     S
C9     C11     1.393   .     A
C9     H17     1.083   .     S
C9     C175    1.372   .     S
C10    C12     1.393   .     A
C10    H18     1.083   .     S
C10    C344    1.372   1_545 S
C13    N20     1.391   .     A
C13    C35     1.510   .     S
C13    C1023   1.420   1_554 S
C14    C45     1.510   .     S
C14    N19     1.391   .     A
C14    C520    1.420   .     S
C15    N19     1.353   .     A
C15    H55     1.083   .     S
C15    C517    1.420   .     S
C16    H56     1.083   .     S
C16    N20     1.353   .     A
C16    C1022   1.420   1_554 S
N19    Zn29    2.027   .     S
N20    Zn30    2.027   .     S
O21    Zn29    1.994   .     S
O22    Zn30    1.994   .     S
O23    Zn30    1.980   .     S
O24    Zn29    1.980   .     S
O25    Zn29    1.974   .     S
O26    Zn30    1.974   .     S
O27    Zn30    1.978   .     S
O28    Zn29    1.978   .     S
H31    C61     1.088   .     S
H32    C118    1.088   1_455 S
C35    H43     1.092   .     S
C35    C36     1.536   .     S
C35    H44     1.112   .     S
C36    H42     1.110   .     S
C36    H41     1.111   .     S
C36    C37     1.527   .     S
C37    H38     1.110   .     S
C37    H39     1.111   .     S
C37    H208    1.111   .     S
H40    C373    1.111   1_545 S
C45    H53     1.112   .     S
C45    C46     1.536   .     S
C45    H54     1.092   .     S
C46    H51     1.110   .     S
C46    H52     1.111   .     S
C46    C47     1.527   .     S
C47    H49     1.110   .     S
C47    H48     1.111   .     S
C47    H386    1.111   1_545 S
H50    C215    1.111   .     S
C57    O77     1.290   .     A
C57    O79     1.285   .     A
C57    C68     1.410   .     S
C58    O78     1.290   .     A
C58    C67     1.410   .     S
C58    O80     1.285   .     A
C59    O83     1.285   .     A
C59    O81     1.286   .     A
C59    C61     1.402   .     S
C60    O82     1.286   .     A
C60    O84     1.285   .     A
C60    C62     1.402   .     S
C62    C117    1.327   .     S
C62    H144    1.088   .     S
C63    C68     1.397   .     A
C63    H89     1.084   .     S
C63    C401    1.372   1_545 S
C64    H90     1.084   .     S
C64    C67     1.397   .     A
C64    C234    1.372   .     S
C65    C67     1.393   .     A
C65    H73     1.083   .     S
C65    C231    1.372   .     S
C66    C68     1.393   .     A
C66    H74     1.083   .     S
C66    C400    1.372   1_545 S
C69    N76     1.391   .     A
C69    C91     1.510   .     S
C69    C1079   1.420   1_554 S
C70    C101    1.510   .     S
C70    N75     1.391   .     A
C70    C576    1.420   .     S
C71    N75     1.353   .     A
C71    H111    1.083   .     S
C71    C573    1.420   .     S
C72    H112    1.083   .     S
C72    N76     1.353   .     A
C72    C1078   1.420   1_554 S
N75    Zn85    2.027   .     S
N76    Zn86    2.027   .     S
O77    Zn85    1.994   .     S
O78    Zn86    1.994   .     S
O79    Zn86    1.980   .     S
O80    Zn85    1.980   .     S
O81    Zn85    1.974   .     S
O82    Zn86    1.974   .     S
O83    Zn86    1.978   .     S
O84    Zn85    1.978   .     S
H87    C117    1.088   .     S
C91    H99     1.092   .     S
C91    C92     1.536   .     S
C91    H100    1.112   .     S
C92    H98     1.110   .     S
C92    H97     1.111   .     S
C92    C93     1.527   .     S
C93    H94     1.110   .     S
C93    H95     1.111   .     S
C93    H264    1.111   .     S
H96    C429    1.111   1_545 S
C101   H109    1.112   .     S
C101   C102    1.536   .     S
C101   H110    1.092   .     S
C102   H107    1.110   .     S
C102   H108    1.111   .     S
C102   C103    1.527   .     S
C103   H105    1.110   .     S
C103   H104    1.111   .     S
C103   H442    1.111   1_545 S
H106   C271    1.111   .     S
C113   O133    1.290   .     A
C113   O135    1.285   .     A
C113   C124    1.410   .     S
C114   O134    1.290   .     A
C114   C123    1.410   .     S
C114   O136    1.285   .     A
C115   O139    1.285   .     A
C115   O137    1.286   .     A
C115   C117    1.402   .     S
C116   O138    1.286   .     A
C116   O140    1.285   .     A
C116   C118    1.402   .     S
C118   C5      1.327   1_655 S
C118   H32     1.088   1_655 S
C119   C124    1.397   .     A
C119   H145    1.084   .     S
C119   C457    1.372   1_545 S
C120   H146    1.084   .     S
C120   C123    1.397   .     A
C120   C290    1.372   .     S
C121   C123    1.393   .     A
C121   H129    1.083   .     S
C121   C287    1.372   .     S
C122   C124    1.393   .     A
C122   H130    1.083   .     S
C122   C456    1.372   1_545 S
C125   N132    1.391   .     A
C125   C147    1.510   .     S
C125   C1135   1.420   1_554 S
C126   C157    1.510   .     S
C126   N131    1.391   .     A
C126   C632    1.420   .     S
C127   N131    1.353   .     A
C127   H167    1.083   .     S
C127   C629    1.420   .     S
C128   H168    1.083   .     S
C128   N132    1.353   .     A
C128   C1134   1.420   1_554 S
N131   Zn141   2.027   .     S
N132   Zn142   2.027   .     S
O133   Zn141   1.994   .     S
O134   Zn142   1.994   .     S
O135   Zn142   1.980   .     S
O136   Zn141   1.980   .     S
O137   Zn141   1.974   .     S
O138   Zn142   1.974   .     S
O139   Zn142   1.978   .     S
O140   Zn141   1.978   .     S
H143   C5      1.088   1_655 S
C147   H155    1.092   .     S
C147   C148    1.536   .     S
C147   H156    1.112   .     S
C148   H154    1.110   .     S
C148   H153    1.111   .     S
C148   C149    1.527   .     S
C149   H150    1.110   .     S
C149   H151    1.111   .     S
C149   H320    1.111   .     S
H152   C485    1.111   1_545 S
C157   H165    1.112   .     S
C157   C158    1.536   .     S
C157   H166    1.092   .     S
C158   H163    1.110   .     S
C158   H164    1.111   .     S
C158   C159    1.527   .     S
C159   H161    1.110   .     S
C159   H160    1.111   .     S
C159   H498    1.111   1_545 S
H162   C327    1.111   .     S
C169   O189    1.290   .     A
C169   O191    1.285   .     A
C169   C180    1.410   .     S
C170   O190    1.290   .     A
C170   C179    1.410   .     S
C170   O192    1.285   .     A
C171   O195    1.285   .     A
C171   O193    1.286   .     A
C171   C173    1.402   .     S
C172   O194    1.286   .     A
C172   O196    1.285   .     A
C172   C174    1.402   .     S
C173   C286    1.327   1_455 S
C173   H311    1.088   1_455 S
C174   C229    1.327   .     S
C174   H256    1.088   .     S
C175   C180    1.397   .     A
C175   H201    1.084   .     S
C176   H202    1.084   .     S
C176   C179    1.397   .     A
C176   C346    1.372   .     S
C177   C179    1.393   .     A
C177   H185    1.083   .     S
C177   C343    1.372   .     S
C178   C180    1.393   .     A
C178   H186    1.083   .     S
C181   N188    1.391   .     A
C181   C203    1.510   .     S
C181   C1191   1.420   1_554 S
C182   C213    1.510   .     S
C182   N187    1.391   .     A
C182   C688    1.420   .     S
C183   N187    1.353   .     A
C183   H223    1.083   .     S
C183   C685    1.420   .     S
C184   H224    1.083   .     S
C184   N188    1.353   .     A
C184   C1190   1.420   1_554 S
N187   Zn197   2.027   .     S
N188   Zn198   2.027   .     S
O189   Zn197   1.994   .     S
O190   Zn198   1.994   .     S
O191   Zn198   1.980   .     S
O192   Zn197   1.980   .     S
O193   Zn197   1.974   .     S
O194   Zn198   1.974   .     S
O195   Zn198   1.978   .     S
O196   Zn197   1.978   .     S
H199   C229    1.088   .     S
H200   C286    1.088   1_455 S
C203   H211    1.092   .     S
C203   C204    1.536   .     S
C203   H212    1.112   .     S
C204   H210    1.110   .     S
C204   H209    1.111   .     S
C204   C205    1.527   .     S
C205   H206    1.110   .     S
C205   H207    1.111   .     S
C205   H376    1.111   .     S
C213   H221    1.112   .     S
C213   C214    1.536   .     S
C213   H222    1.092   .     S
C214   H219    1.110   .     S
C214   H220    1.111   .     S
C214   C215    1.527   .     S
C215   H217    1.110   .     S
C215   H216    1.111   .     S
H218   C383    1.111   .     S
C225   O245    1.290   .     A
C225   O247    1.285   .     A
C225   C236    1.410   .     S
C226   O246    1.290   .     A
C226   C235    1.410   .     S
C226   O248    1.285   .     A
C227   O251    1.285   .     A
C227   O249    1.286   .     A
C227   C229    1.402   .     S
C228   O250    1.286   .     A
C228   O252    1.285   .     A
C228   C230    1.402   .     S
C230   C285    1.327   .     S
C230   H312    1.088   .     S
C231   C236    1.397   .     A
C231   H257    1.084   .     S
C232   H258    1.084   .     S
C232   C235    1.397   .     A
C232   C402    1.372   .     S
C233   C235    1.393   .     A
C233   H241    1.083   .     S
C233   C399    1.372   .     S
C234   C236    1.393   .     A
C234   H242    1.083   .     S
C237   N244    1.391   .     A
C237   C259    1.510   .     S
C237   C1247   1.420   1_554 S
C238   C269    1.510   .     S
C238   N243    1.391   .     A
C238   C744    1.420   .     S
C239   N243    1.353   .     A
C239   H279    1.083   .     S
C239   C741    1.420   .     S
C240   H280    1.083   .     S
C240   N244    1.353   .     A
C240   C1246   1.420   1_554 S
N243   Zn253   2.027   .     S
N244   Zn254   2.027   .     S
O245   Zn253   1.994   .     S
O246   Zn254   1.994   .     S
O247   Zn254   1.980   .     S
O248   Zn253   1.980   .     S
O249   Zn253   1.974   .     S
O250   Zn254   1.974   .     S
O251   Zn254   1.978   .     S
O252   Zn253   1.978   .     S
H255   C285    1.088   .     S
C259   H267    1.092   .     S
C259   C260    1.536   .     S
C259   H268    1.112   .     S
C260   H266    1.110   .     S
C260   H265    1.111   .     S
C260   C261    1.527   .     S
C261   H262    1.110   .     S
C261   H263    1.111   .     S
C261   H432    1.111   .     S
C269   H277    1.112   .     S
C269   C270    1.536   .     S
C269   H278    1.092   .     S
C270   H275    1.110   .     S
C270   H276    1.111   .     S
C270   C271    1.527   .     S
C271   H273    1.110   .     S
C271   H272    1.111   .     S
H274   C439    1.111   .     S
C281   O301    1.290   .     A
C281   O303    1.285   .     A
C281   C292    1.410   .     S
C282   O302    1.290   .     A
C282   C291    1.410   .     S
C282   O304    1.285   .     A
C283   O307    1.285   .     A
C283   O305    1.286   .     A
C283   C285    1.402   .     S
C284   O306    1.286   .     A
C284   O308    1.285   .     A
C284   C286    1.402   .     S
C286   C173    1.327   1_655 S
C286   H200    1.088   1_655 S
C287   C292    1.397   .     A
C287   H313    1.084   .     S
C288   H314    1.084   .     S
C288   C291    1.397   .     A
C288   C458    1.372   .     S
C289   C291    1.393   .     A
C289   H297    1.083   .     S
C289   C455    1.372   .     S
C290   C292    1.393   .     A
C290   H298    1.083   .     S
C293   N300    1.391   .     A
C293   C315    1.510   .     S
C293   C1303   1.420   1_554 S
C294   C325    1.510   .     S
C294   N299    1.391   .     A
C294   C800    1.420   .     S
C295   N299    1.353   .     A
C295   H335    1.083   .     S
C295   C797    1.420   .     S
C296   H336    1.083   .     S
C296   N300    1.353   .     A
C296   C1302   1.420   1_554 S
N299   Zn309   2.027   .     S
N300   Zn310   2.027   .     S
O301   Zn309   1.994   .     S
O302   Zn310   1.994   .     S
O303   Zn310   1.980   .     S
O304   Zn309   1.980   .     S
O305   Zn309   1.974   .     S
O306   Zn310   1.974   .     S
O307   Zn310   1.978   .     S
O308   Zn309   1.978   .     S
H311   C173    1.088   1_655 S
C315   H323    1.092   .     S
C315   C316    1.536   .     S
C315   H324    1.112   .     S
C316   H322    1.110   .     S
C316   H321    1.111   .     S
C316   C317    1.527   .     S
C317   H318    1.110   .     S
C317   H319    1.111   .     S
C317   H488    1.111   .     S
C325   H333    1.112   .     S
C325   C326    1.536   .     S
C325   H334    1.092   .     S
C326   H331    1.110   .     S
C326   H332    1.111   .     S
C326   C327    1.527   .     S
C327   H329    1.110   .     S
C327   H328    1.111   .     S
H330   C495    1.111   .     S
C337   O357    1.290   .     A
C337   O359    1.285   .     A
C337   C348    1.410   .     S
C338   O358    1.290   .     A
C338   C347    1.410   .     S
C338   O360    1.285   .     A
C339   O363    1.285   .     A
C339   O361    1.286   .     A
C339   C341    1.402   .     S
C340   O362    1.286   .     A
C340   O364    1.285   .     A
C340   C342    1.402   .     S
C341   C454    1.327   1_455 S
C341   H479    1.088   1_455 S
C342   C397    1.327   .     S
C342   H424    1.088   .     S
C343   C348    1.397   .     A
C343   H369    1.084   .     S
C344   H370    1.084   .     S
C344   C347    1.397   .     A
C344   C10     1.372   1_565 S
C345   C347    1.393   .     A
C345   H353    1.083   .     S
C345   C7      1.372   1_565 S
C346   C348    1.393   .     A
C346   H354    1.083   .     S
C349   N356    1.391   .     A
C349   C371    1.510   .     S
C349   C1359   1.420   1_554 S
C350   C381    1.510   .     S
C350   N355    1.391   .     A
C350   C856    1.420   .     S
C351   N355    1.353   .     A
C351   H391    1.083   .     S
C351   C853    1.420   .     S
C352   H392    1.083   .     S
C352   N356    1.353   .     A
C352   C1358   1.420   1_554 S
N355   Zn365   2.027   .     S
N356   Zn366   2.027   .     S
O357   Zn365   1.994   .     S
O358   Zn366   1.994   .     S
O359   Zn366   1.980   .     S
O360   Zn365   1.980   .     S
O361   Zn365   1.974   .     S
O362   Zn366   1.974   .     S
O363   Zn366   1.978   .     S
O364   Zn365   1.978   .     S
H367   C397    1.088   .     S
H368   C454    1.088   1_455 S
C371   H379    1.092   .     S
C371   C372    1.536   .     S
C371   H380    1.112   .     S
C372   H378    1.110   .     S
C372   H377    1.111   .     S
C372   C373    1.527   .     S
C373   H374    1.110   .     S
C373   H375    1.111   .     S
C373   H40     1.111   1_565 S
C381   H389    1.112   .     S
C381   C382    1.536   .     S
C381   H390    1.092   .     S
C382   H387    1.110   .     S
C382   H388    1.111   .     S
C382   C383    1.527   .     S
C383   H385    1.110   .     S
C383   H384    1.111   .     S
H386   C47     1.111   1_565 S
C393   O413    1.290   .     A
C393   O415    1.285   .     A
C393   C404    1.410   .     S
C394   O414    1.290   .     A
C394   C403    1.410   .     S
C394   O416    1.285   .     A
C395   O419    1.285   .     A
C395   O417    1.286   .     A
C395   C397    1.402   .     S
C396   O418    1.286   .     A
C396   O420    1.285   .     A
C396   C398    1.402   .     S
C398   C453    1.327   .     S
C398   H480    1.088   .     S
C399   C404    1.397   .     A
C399   H425    1.084   .     S
C400   H426    1.084   .     S
C400   C403    1.397   .     A
C400   C66     1.372   1_565 S
C401   C403    1.393   .     A
C401   H409    1.083   .     S
C401   C63     1.372   1_565 S
C402   C404    1.393   .     A
C402   H410    1.083   .     S
C405   N412    1.391   .     A
C405   C427    1.510   .     S
C405   C1415   1.420   1_554 S
C406   C437    1.510   .     S
C406   N411    1.391   .     A
C406   C912    1.420   .     S
C407   N411    1.353   .     A
C407   H447    1.083   .     S
C407   C909    1.420   .     S
C408   H448    1.083   .     S
C408   N412    1.353   .     A
C408   C1414   1.420   1_554 S
N411   Zn421   2.027   .     S
N412   Zn422   2.027   .     S
O413   Zn421   1.994   .     S
O414   Zn422   1.994   .     S
O415   Zn422   1.980   .     S
O416   Zn421   1.980   .     S
O417   Zn421   1.974   .     S
O418   Zn422   1.974   .     S
O419   Zn422   1.978   .     S
O420   Zn421   1.978   .     S
H423   C453    1.088   .     S
C427   H435    1.092   .     S
C427   C428    1.536   .     S
C427   H436    1.112   .     S
C428   H434    1.110   .     S
C428   H433    1.111   .     S
C428   C429    1.527   .     S
C429   H430    1.110   .     S
C429   H431    1.111   .     S
C429   H96     1.111   1_565 S
C437   H445    1.112   .     S
C437   C438    1.536   .     S
C437   H446    1.092   .     S
C438   H443    1.110   .     S
C438   H444    1.111   .     S
C438   C439    1.527   .     S
C439   H441    1.110   .     S
C439   H440    1.111   .     S
H442   C103    1.111   1_565 S
C449   O469    1.290   .     A
C449   O471    1.285   .     A
C449   C460    1.410   .     S
C450   O470    1.290   .     A
C450   C459    1.410   .     S
C450   O472    1.285   .     A
C451   O475    1.285   .     A
C451   O473    1.286   .     A
C451   C453    1.402   .     S
C452   O474    1.286   .     A
C452   O476    1.285   .     A
C452   C454    1.402   .     S
C454   C341    1.327   1_655 S
C454   H368    1.088   1_655 S
C455   C460    1.397   .     A
C455   H481    1.084   .     S
C456   H482    1.084   .     S
C456   C459    1.397   .     A
C456   C122    1.372   1_565 S
C457   C459    1.393   .     A
C457   H465    1.083   .     S
C457   C119    1.372   1_565 S
C458   C460    1.393   .     A
C458   H466    1.083   .     S
C461   N468    1.391   .     A
C461   C483    1.510   .     S
C461   C1471   1.420   1_554 S
C462   C493    1.510   .     S
C462   N467    1.391   .     A
C462   C968    1.420   .     S
C463   N467    1.353   .     A
C463   H503    1.083   .     S
C463   C965    1.420   .     S
C464   H504    1.083   .     S
C464   N468    1.353   .     A
C464   C1470   1.420   1_554 S
N467   Zn477   2.027   .     S
N468   Zn478   2.027   .     S
O469   Zn477   1.994   .     S
O470   Zn478   1.994   .     S
O471   Zn478   1.980   .     S
O472   Zn477   1.980   .     S
O473   Zn477   1.974   .     S
O474   Zn478   1.974   .     S
O475   Zn478   1.978   .     S
O476   Zn477   1.978   .     S
H479   C341    1.088   1_655 S
C483   H491    1.092   .     S
C483   C484    1.536   .     S
C483   H492    1.112   .     S
C484   H490    1.110   .     S
C484   H489    1.111   .     S
C484   C485    1.527   .     S
C485   H486    1.110   .     S
C485   H487    1.111   .     S
C485   H152    1.111   1_565 S
C493   H501    1.112   .     S
C493   C494    1.536   .     S
C493   H502    1.092   .     S
C494   H499    1.110   .     S
C494   H500    1.111   .     S
C494   C495    1.527   .     S
C495   H497    1.110   .     S
C495   H496    1.111   .     S
H498   C159    1.111   1_565 S
C505   O525    1.290   .     A
C505   O527    1.285   .     A
C505   C516    1.410   .     S
C506   O526    1.290   .     A
C506   C515    1.410   .     S
C506   O528    1.285   .     A
C507   O531    1.285   .     A
C507   O529    1.286   .     A
C507   C509    1.402   .     S
C508   O530    1.286   .     A
C508   O532    1.285   .     A
C508   C510    1.402   .     S
C509   C622    1.327   1_455 S
C509   H647    1.088   1_455 S
C510   C565    1.327   .     S
C510   H592    1.088   .     S
C511   C516    1.397   .     A
C511   H537    1.084   .     S
C511   C849    1.372   1_545 S
C512   H538    1.084   .     S
C512   C515    1.397   .     A
C512   C682    1.372   .     S
C513   C515    1.393   .     A
C513   H521    1.083   .     S
C513   C679    1.372   .     S
C514   C516    1.393   .     A
C514   H522    1.083   .     S
C514   C848    1.372   1_545 S
C517   N524    1.391   .     A
C517   C539    1.510   .     S
C518   C549    1.510   .     S
C518   N523    1.391   .     A
C518   C1024   1.420   .     S
C519   N523    1.353   .     A
C519   H559    1.083   .     S
C519   C1021   1.420   .     S
C520   H560    1.083   .     S
C520   N524    1.353   .     A
N523   Zn533   2.027   .     S
N524   Zn534   2.027   .     S
O525   Zn533   1.994   .     S
O526   Zn534   1.994   .     S
O527   Zn534   1.980   .     S
O528   Zn533   1.980   .     S
O529   Zn533   1.974   .     S
O530   Zn534   1.974   .     S
O531   Zn534   1.978   .     S
O532   Zn533   1.978   .     S
H535   C565    1.088   .     S
H536   C622    1.088   1_455 S
C539   H547    1.092   .     S
C539   C540    1.536   .     S
C539   H548    1.112   .     S
C540   H546    1.110   .     S
C540   H545    1.111   .     S
C540   C541    1.527   .     S
C541   H542    1.110   .     S
C541   H543    1.111   .     S
C541   H712    1.111   .     S
H544   C877    1.111   1_545 S
C549   H557    1.112   .     S
C549   C550    1.536   .     S
C549   H558    1.092   .     S
C550   H555    1.110   .     S
C550   H556    1.111   .     S
C550   C551    1.527   .     S
C551   H553    1.110   .     S
C551   H552    1.111   .     S
C551   H890    1.111   1_545 S
H554   C719    1.111   .     S
C561   O581    1.290   .     A
C561   O583    1.285   .     A
C561   C572    1.410   .     S
C562   O582    1.290   .     A
C562   C571    1.410   .     S
C562   O584    1.285   .     A
C563   O587    1.285   .     A
C563   O585    1.286   .     A
C563   C565    1.402   .     S
C564   O586    1.286   .     A
C564   O588    1.285   .     A
C564   C566    1.402   .     S
C566   C621    1.327   .     S
C566   H648    1.088   .     S
C567   C572    1.397   .     A
C567   H593    1.084   .     S
C567   C905    1.372   1_545 S
C568   H594    1.084   .     S
C568   C571    1.397   .     A
C568   C738    1.372   .     S
C569   C571    1.393   .     A
C569   H577    1.083   .     S
C569   C735    1.372   .     S
C570   C572    1.393   .     A
C570   H578    1.083   .     S
C570   C904    1.372   1_545 S
C573   N580    1.391   .     A
C573   C595    1.510   .     S
C574   C605    1.510   .     S
C574   N579    1.391   .     A
C574   C1080   1.420   .     S
C575   N579    1.353   .     A
C575   H615    1.083   .     S
C575   C1077   1.420   .     S
C576   H616    1.083   .     S
C576   N580    1.353   .     A
N579   Zn589   2.027   .     S
N580   Zn590   2.027   .     S
O581   Zn589   1.994   .     S
O582   Zn590   1.994   .     S
O583   Zn590   1.980   .     S
O584   Zn589   1.980   .     S
O585   Zn589   1.974   .     S
O586   Zn590   1.974   .     S
O587   Zn590   1.978   .     S
O588   Zn589   1.978   .     S
H591   C621    1.088   .     S
C595   H603    1.092   .     S
C595   C596    1.536   .     S
C595   H604    1.112   .     S
C596   H602    1.110   .     S
C596   H601    1.111   .     S
C596   C597    1.527   .     S
C597   H598    1.110   .     S
C597   H599    1.111   .     S
C597   H768    1.111   .     S
H600   C933    1.111   1_545 S
C605   H613    1.112   .     S
C605   C606    1.536   .     S
C605   H614    1.092   .     S
C606   H611    1.110   .     S
C606   H612    1.111   .     S
C606   C607    1.527   .     S
C607   H609    1.110   .     S
C607   H608    1.111   .     S
C607   H946    1.111   1_545 S
H610   C775    1.111   .     S
C617   O637    1.290   .     A
C617   O639    1.285   .     A
C617   C628    1.410   .     S
C618   O638    1.290   .     A
C618   C627    1.410   .     S
C618   O640    1.285   .     A
C619   O643    1.285   .     A
C619   O641    1.286   .     A
C619   C621    1.402   .     S
C620   O642    1.286   .     A
C620   O644    1.285   .     A
C620   C622    1.402   .     S
C622   C509    1.327   1_655 S
C622   H536    1.088   1_655 S
C623   C628    1.397   .     A
C623   H649    1.084   .     S
C623   C961    1.372   1_545 S
C624   H650    1.084   .     S
C624   C627    1.397   .     A
C624   C794    1.372   .     S
C625   C627    1.393   .     A
C625   H633    1.083   .     S
C625   C791    1.372   .     S
C626   C628    1.393   .     A
C626   H634    1.083   .     S
C626   C960    1.372   1_545 S
C629   N636    1.391   .     A
C629   C651    1.510   .     S
C630   C661    1.510   .     S
C630   N635    1.391   .     A
C630   C1136   1.420   .     S
C631   N635    1.353   .     A
C631   H671    1.083   .     S
C631   C1133   1.420   .     S
C632   H672    1.083   .     S
C632   N636    1.353   .     A
N635   Zn645   2.027   .     S
N636   Zn646   2.027   .     S
O637   Zn645   1.994   .     S
O638   Zn646   1.994   .     S
O639   Zn646   1.980   .     S
O640   Zn645   1.980   .     S
O641   Zn645   1.974   .     S
O642   Zn646   1.974   .     S
O643   Zn646   1.978   .     S
O644   Zn645   1.978   .     S
H647   C509    1.088   1_655 S
C651   H659    1.092   .     S
C651   C652    1.536   .     S
C651   H660    1.112   .     S
C652   H658    1.110   .     S
C652   H657    1.111   .     S
C652   C653    1.527   .     S
C653   H654    1.110   .     S
C653   H655    1.111   .     S
C653   H824    1.111   .     S
H656   C989    1.111   1_545 S
C661   H669    1.112   .     S
C661   C662    1.536   .     S
C661   H670    1.092   .     S
C662   H667    1.110   .     S
C662   H668    1.111   .     S
C662   C663    1.527   .     S
C663   H665    1.110   .     S
C663   H664    1.111   .     S
C663   H1002   1.111   1_545 S
H666   C831    1.111   .     S
C673   O693    1.290   .     A
C673   O695    1.285   .     A
C673   C684    1.410   .     S
C674   O694    1.290   .     A
C674   C683    1.410   .     S
C674   O696    1.285   .     A
C675   O699    1.285   .     A
C675   O697    1.286   .     A
C675   C677    1.402   .     S
C676   O698    1.286   .     A
C676   O700    1.285   .     A
C676   C678    1.402   .     S
C677   C790    1.327   1_455 S
C677   H815    1.088   1_455 S
C678   C733    1.327   .     S
C678   H760    1.088   .     S
C679   C684    1.397   .     A
C679   H705    1.084   .     S
C680   H706    1.084   .     S
C680   C683    1.397   .     A
C680   C850    1.372   .     S
C681   C683    1.393   .     A
C681   H689    1.083   .     S
C681   C847    1.372   .     S
C682   C684    1.393   .     A
C682   H690    1.083   .     S
C685   N692    1.391   .     A
C685   C707    1.510   .     S
C686   C717    1.510   .     S
C686   N691    1.391   .     A
C686   C1192   1.420   .     S
C687   N691    1.353   .     A
C687   H727    1.083   .     S
C687   C1189   1.420   .     S
C688   H728    1.083   .     S
C688   N692    1.353   .     A
N691   Zn701   2.027   .     S
N692   Zn702   2.027   .     S
O693   Zn701   1.994   .     S
O694   Zn702   1.994   .     S
O695   Zn702   1.980   .     S
O696   Zn701   1.980   .     S
O697   Zn701   1.974   .     S
O698   Zn702   1.974   .     S
O699   Zn702   1.978   .     S
O700   Zn701   1.978   .     S
H703   C733    1.088   .     S
H704   C790    1.088   1_455 S
C707   H715    1.092   .     S
C707   C708    1.536   .     S
C707   H716    1.112   .     S
C708   H714    1.110   .     S
C708   H713    1.111   .     S
C708   C709    1.527   .     S
C709   H710    1.110   .     S
C709   H711    1.111   .     S
C709   H880    1.111   .     S
C717   H725    1.112   .     S
C717   C718    1.536   .     S
C717   H726    1.092   .     S
C718   H723    1.110   .     S
C718   H724    1.111   .     S
C718   C719    1.527   .     S
C719   H721    1.110   .     S
C719   H720    1.111   .     S
H722   C887    1.111   .     S
C729   O749    1.290   .     A
C729   O751    1.285   .     A
C729   C740    1.410   .     S
C730   O750    1.290   .     A
C730   C739    1.410   .     S
C730   O752    1.285   .     A
C731   O755    1.285   .     A
C731   O753    1.286   .     A
C731   C733    1.402   .     S
C732   O754    1.286   .     A
C732   O756    1.285   .     A
C732   C734    1.402   .     S
C734   C789    1.327   .     S
C734   H816    1.088   .     S
C735   C740    1.397   .     A
C735   H761    1.084   .     S
C736   H762    1.084   .     S
C736   C739    1.397   .     A
C736   C906    1.372   .     S
C737   C739    1.393   .     A
C737   H745    1.083   .     S
C737   C903    1.372   .     S
C738   C740    1.393   .     A
C738   H746    1.083   .     S
C741   N748    1.391   .     A
C741   C763    1.510   .     S
C742   C773    1.510   .     S
C742   N747    1.391   .     A
C742   C1248   1.420   .     S
C743   N747    1.353   .     A
C743   H783    1.083   .     S
C743   C1245   1.420   .     S
C744   H784    1.083   .     S
C744   N748    1.353   .     A
N747   Zn757   2.027   .     S
N748   Zn758   2.027   .     S
O749   Zn757   1.994   .     S
O750   Zn758   1.994   .     S
O751   Zn758   1.980   .     S
O752   Zn757   1.980   .     S
O753   Zn757   1.974   .     S
O754   Zn758   1.974   .     S
O755   Zn758   1.978   .     S
O756   Zn757   1.978   .     S
H759   C789    1.088   .     S
C763   H771    1.092   .     S
C763   C764    1.536   .     S
C763   H772    1.112   .     S
C764   H770    1.110   .     S
C764   H769    1.111   .     S
C764   C765    1.527   .     S
C765   H766    1.110   .     S
C765   H767    1.111   .     S
C765   H936    1.111   .     S
C773   H781    1.112   .     S
C773   C774    1.536   .     S
C773   H782    1.092   .     S
C774   H779    1.110   .     S
C774   H780    1.111   .     S
C774   C775    1.527   .     S
C775   H777    1.110   .     S
C775   H776    1.111   .     S
H778   C943    1.111   .     S
C785   O805    1.290   .     A
C785   O807    1.285   .     A
C785   C796    1.410   .     S
C786   O806    1.290   .     A
C786   C795    1.410   .     S
C786   O808    1.285   .     A
C787   O811    1.285   .     A
C787   O809    1.286   .     A
C787   C789    1.402   .     S
C788   O810    1.286   .     A
C788   O812    1.285   .     A
C788   C790    1.402   .     S
C790   C677    1.327   1_655 S
C790   H704    1.088   1_655 S
C791   C796    1.397   .     A
C791   H817    1.084   .     S
C792   H818    1.084   .     S
C792   C795    1.397   .     A
C792   C962    1.372   .     S
C793   C795    1.393   .     A
C793   H801    1.083   .     S
C793   C959    1.372   .     S
C794   C796    1.393   .     A
C794   H802    1.083   .     S
C797   N804    1.391   .     A
C797   C819    1.510   .     S
C798   C829    1.510   .     S
C798   N803    1.391   .     A
C798   C1304   1.420   .     S
C799   N803    1.353   .     A
C799   H839    1.083   .     S
C799   C1301   1.420   .     S
C800   H840    1.083   .     S
C800   N804    1.353   .     A
N803   Zn813   2.027   .     S
N804   Zn814   2.027   .     S
O805   Zn813   1.994   .     S
O806   Zn814   1.994   .     S
O807   Zn814   1.980   .     S
O808   Zn813   1.980   .     S
O809   Zn813   1.974   .     S
O810   Zn814   1.974   .     S
O811   Zn814   1.978   .     S
O812   Zn813   1.978   .     S
H815   C677    1.088   1_655 S
C819   H827    1.092   .     S
C819   C820    1.536   .     S
C819   H828    1.112   .     S
C820   H826    1.110   .     S
C820   H825    1.111   .     S
C820   C821    1.527   .     S
C821   H822    1.110   .     S
C821   H823    1.111   .     S
C821   H992    1.111   .     S
C829   H837    1.112   .     S
C829   C830    1.536   .     S
C829   H838    1.092   .     S
C830   H835    1.110   .     S
C830   H836    1.111   .     S
C830   C831    1.527   .     S
C831   H833    1.110   .     S
C831   H832    1.111   .     S
H834   C999    1.111   .     S
C841   O861    1.290   .     A
C841   O863    1.285   .     A
C841   C852    1.410   .     S
C842   O862    1.290   .     A
C842   C851    1.410   .     S
C842   O864    1.285   .     A
C843   O867    1.285   .     A
C843   O865    1.286   .     A
C843   C845    1.402   .     S
C844   O866    1.286   .     A
C844   O868    1.285   .     A
C844   C846    1.402   .     S
C845   C958    1.327   1_455 S
C845   H983    1.088   1_455 S
C846   C901    1.327   .     S
C846   H928    1.088   .     S
C847   C852    1.397   .     A
C847   H873    1.084   .     S
C848   H874    1.084   .     S
C848   C851    1.397   .     A
C848   C514    1.372   1_565 S
C849   C851    1.393   .     A
C849   H857    1.083   .     S
C849   C511    1.372   1_565 S
C850   C852    1.393   .     A
C850   H858    1.083   .     S
C853   N860    1.391   .     A
C853   C875    1.510   .     S
C854   C885    1.510   .     S
C854   N859    1.391   .     A
C854   C1360   1.420   .     S
C855   N859    1.353   .     A
C855   H895    1.083   .     S
C855   C1357   1.420   .     S
C856   H896    1.083   .     S
C856   N860    1.353   .     A
N859   Zn869   2.027   .     S
N860   Zn870   2.027   .     S
O861   Zn869   1.994   .     S
O862   Zn870   1.994   .     S
O863   Zn870   1.980   .     S
O864   Zn869   1.980   .     S
O865   Zn869   1.974   .     S
O866   Zn870   1.974   .     S
O867   Zn870   1.978   .     S
O868   Zn869   1.978   .     S
H871   C901    1.088   .     S
H872   C958    1.088   1_455 S
C875   H883    1.092   .     S
C875   C876    1.536   .     S
C875   H884    1.112   .     S
C876   H882    1.110   .     S
C876   H881    1.111   .     S
C876   C877    1.527   .     S
C877   H878    1.110   .     S
C877   H879    1.111   .     S
C877   H544    1.111   1_565 S
C885   H893    1.112   .     S
C885   C886    1.536   .     S
C885   H894    1.092   .     S
C886   H891    1.110   .     S
C886   H892    1.111   .     S
C886   C887    1.527   .     S
C887   H889    1.110   .     S
C887   H888    1.111   .     S
H890   C551    1.111   1_565 S
C897   O917    1.290   .     A
C897   O919    1.285   .     A
C897   C908    1.410   .     S
C898   O918    1.290   .     A
C898   C907    1.410   .     S
C898   O920    1.285   .     A
C899   O923    1.285   .     A
C899   O921    1.286   .     A
C899   C901    1.402   .     S
C900   O922    1.286   .     A
C900   O924    1.285   .     A
C900   C902    1.402   .     S
C902   C957    1.327   .     S
C902   H984    1.088   .     S
C903   C908    1.397   .     A
C903   H929    1.084   .     S
C904   H930    1.084   .     S
C904   C907    1.397   .     A
C904   C570    1.372   1_565 S
C905   C907    1.393   .     A
C905   H913    1.083   .     S
C905   C567    1.372   1_565 S
C906   C908    1.393   .     A
C906   H914    1.083   .     S
C909   N916    1.391   .     A
C909   C931    1.510   .     S
C910   C941    1.510   .     S
C910   N915    1.391   .     A
C910   C1416   1.420   .     S
C911   N915    1.353   .     A
C911   H951    1.083   .     S
C911   C1413   1.420   .     S
C912   H952    1.083   .     S
C912   N916    1.353   .     A
N915   Zn925   2.027   .     S
N916   Zn926   2.027   .     S
O917   Zn925   1.994   .     S
O918   Zn926   1.994   .     S
O919   Zn926   1.980   .     S
O920   Zn925   1.980   .     S
O921   Zn925   1.974   .     S
O922   Zn926   1.974   .     S
O923   Zn926   1.978   .     S
O924   Zn925   1.978   .     S
H927   C957    1.088   .     S
C931   H939    1.092   .     S
C931   C932    1.536   .     S
C931   H940    1.112   .     S
C932   H938    1.110   .     S
C932   H937    1.111   .     S
C932   C933    1.527   .     S
C933   H934    1.110   .     S
C933   H935    1.111   .     S
C933   H600    1.111   1_565 S
C941   H949    1.112   .     S
C941   C942    1.536   .     S
C941   H950    1.092   .     S
C942   H947    1.110   .     S
C942   H948    1.111   .     S
C942   C943    1.527   .     S
C943   H945    1.110   .     S
C943   H944    1.111   .     S
H946   C607    1.111   1_565 S
C953   O973    1.290   .     A
C953   O975    1.285   .     A
C953   C964    1.410   .     S
C954   O974    1.290   .     A
C954   C963    1.410   .     S
C954   O976    1.285   .     A
C955   O979    1.285   .     A
C955   O977    1.286   .     A
C955   C957    1.402   .     S
C956   O978    1.286   .     A
C956   O980    1.285   .     A
C956   C958    1.402   .     S
C958   C845    1.327   1_655 S
C958   H872    1.088   1_655 S
C959   C964    1.397   .     A
C959   H985    1.084   .     S
C960   H986    1.084   .     S
C960   C963    1.397   .     A
C960   C626    1.372   1_565 S
C961   C963    1.393   .     A
C961   H969    1.083   .     S
C961   C623    1.372   1_565 S
C962   C964    1.393   .     A
C962   H970    1.083   .     S
C965   N972    1.391   .     A
C965   C987    1.510   .     S
C966   C997    1.510   .     S
C966   N971    1.391   .     A
C966   C1472   1.420   .     S
C967   N971    1.353   .     A
C967   H1007   1.083   .     S
C967   C1469   1.420   .     S
C968   H1008   1.083   .     S
C968   N972    1.353   .     A
N971   Zn981   2.027   .     S
N972   Zn982   2.027   .     S
O973   Zn981   1.994   .     S
O974   Zn982   1.994   .     S
O975   Zn982   1.980   .     S
O976   Zn981   1.980   .     S
O977   Zn981   1.974   .     S
O978   Zn982   1.974   .     S
O979   Zn982   1.978   .     S
O980   Zn981   1.978   .     S
H983   C845    1.088   1_655 S
C987   H995    1.092   .     S
C987   C988    1.536   .     S
C987   H996    1.112   .     S
C988   H994    1.110   .     S
C988   H993    1.111   .     S
C988   C989    1.527   .     S
C989   H990    1.110   .     S
C989   H991    1.111   .     S
C989   H656    1.111   1_565 S
C997   H1005   1.112   .     S
C997   C998    1.536   .     S
C997   H1006   1.092   .     S
C998   H1003   1.110   .     S
C998   H1004   1.111   .     S
C998   C999    1.527   .     S
C999   H1001   1.110   .     S
C999   H1000   1.111   .     S
H1002  C663    1.111   1_565 S
C1009  O1029   1.290   .     A
C1009  O1031   1.285   .     A
C1009  C1020   1.410   .     S
C1010  O1030   1.290   .     A
C1010  C1019   1.410   .     S
C1010  O1032   1.285   .     A
C1011  O1035   1.285   .     A
C1011  O1033   1.286   .     A
C1011  C1013   1.402   .     S
C1012  O1034   1.286   .     A
C1012  O1036   1.285   .     A
C1012  C1014   1.402   .     S
C1013  C1126   1.327   1_455 S
C1013  H1151   1.088   1_455 S
C1014  C1069   1.327   .     S
C1014  H1096   1.088   .     S
C1015  C1020   1.397   .     A
C1015  H1041   1.084   .     S
C1015  C1353   1.372   1_545 S
C1016  H1042   1.084   .     S
C1016  C1019   1.397   .     A
C1016  C1186   1.372   .     S
C1017  C1019   1.393   .     A
C1017  H1025   1.083   .     S
C1017  C1183   1.372   .     S
C1018  C1020   1.393   .     A
C1018  H1026   1.083   .     S
C1018  C1352   1.372   1_545 S
C1021  N1028   1.391   .     A
C1021  C1043   1.510   .     S
C1022  C1053   1.510   .     S
C1022  N1027   1.391   .     A
C1022  C16     1.420   1_556 S
C1023  N1027   1.353   .     A
C1023  H1063   1.083   .     S
C1023  C13     1.420   1_556 S
C1024  H1064   1.083   .     S
C1024  N1028   1.353   .     A
N1027  Zn1037  2.027   .     S
N1028  Zn1038  2.027   .     S
O1029  Zn1037  1.994   .     S
O1030  Zn1038  1.994   .     S
O1031  Zn1038  1.980   .     S
O1032  Zn1037  1.980   .     S
O1033  Zn1037  1.974   .     S
O1034  Zn1038  1.974   .     S
O1035  Zn1038  1.978   .     S
O1036  Zn1037  1.978   .     S
H1039  C1069   1.088   .     S
H1040  C1126   1.088   1_455 S
C1043  H1051   1.092   .     S
C1043  C1044   1.536   .     S
C1043  H1052   1.112   .     S
C1044  H1050   1.110   .     S
C1044  H1049   1.111   .     S
C1044  C1045   1.527   .     S
C1045  H1046   1.110   .     S
C1045  H1047   1.111   .     S
C1045  H1216   1.111   .     S
H1048  C1381   1.111   1_545 S
C1053  H1061   1.112   .     S
C1053  C1054   1.536   .     S
C1053  H1062   1.092   .     S
C1054  H1059   1.110   .     S
C1054  H1060   1.111   .     S
C1054  C1055   1.527   .     S
C1055  H1057   1.110   .     S
C1055  H1056   1.111   .     S
C1055  H1394   1.111   1_545 S
H1058  C1223   1.111   .     S
C1065  O1085   1.290   .     A
C1065  O1087   1.285   .     A
C1065  C1076   1.410   .     S
C1066  O1086   1.290   .     A
C1066  C1075   1.410   .     S
C1066  O1088   1.285   .     A
C1067  O1091   1.285   .     A
C1067  O1089   1.286   .     A
C1067  C1069   1.402   .     S
C1068  O1090   1.286   .     A
C1068  O1092   1.285   .     A
C1068  C1070   1.402   .     S
C1070  C1125   1.327   .     S
C1070  H1152   1.088   .     S
C1071  C1076   1.397   .     A
C1071  H1097   1.084   .     S
C1071  C1409   1.372   1_545 S
C1072  H1098   1.084   .     S
C1072  C1075   1.397   .     A
C1072  C1242   1.372   .     S
C1073  C1075   1.393   .     A
C1073  H1081   1.083   .     S
C1073  C1239   1.372   .     S
C1074  C1076   1.393   .     A
C1074  H1082   1.083   .     S
C1074  C1408   1.372   1_545 S
C1077  N1084   1.391   .     A
C1077  C1099   1.510   .     S
C1078  C1109   1.510   .     S
C1078  N1083   1.391   .     A
C1078  C72     1.420   1_556 S
C1079  N1083   1.353   .     A
C1079  H1119   1.083   .     S
C1079  C69     1.420   1_556 S
C1080  H1120   1.083   .     S
C1080  N1084   1.353   .     A
N1083  Zn1093  2.027   .     S
N1084  Zn1094  2.027   .     S
O1085  Zn1093  1.994   .     S
O1086  Zn1094  1.994   .     S
O1087  Zn1094  1.980   .     S
O1088  Zn1093  1.980   .     S
O1089  Zn1093  1.974   .     S
O1090  Zn1094  1.974   .     S
O1091  Zn1094  1.978   .     S
O1092  Zn1093  1.978   .     S
H1095  C1125   1.088   .     S
C1099  H1107   1.092   .     S
C1099  C1100   1.536   .     S
C1099  H1108   1.112   .     S
C1100  H1106   1.110   .     S
C1100  H1105   1.111   .     S
C1100  C1101   1.527   .     S
C1101  H1102   1.110   .     S
C1101  H1103   1.111   .     S
C1101  H1272   1.111   .     S
H1104  C1437   1.111   1_545 S
C1109  H1117   1.112   .     S
C1109  C1110   1.536   .     S
C1109  H1118   1.092   .     S
C1110  H1115   1.110   .     S
C1110  H1116   1.111   .     S
C1110  C1111   1.527   .     S
C1111  H1113   1.110   .     S
C1111  H1112   1.111   .     S
C1111  H1450   1.111   1_545 S
H1114  C1279   1.111   .     S
C1121  O1141   1.290   .     A
C1121  O1143   1.285   .     A
C1121  C1132   1.410   .     S
C1122  O1142   1.290   .     A
C1122  C1131   1.410   .     S
C1122  O1144   1.285   .     A
C1123  O1147   1.285   .     A
C1123  O1145   1.286   .     A
C1123  C1125   1.402   .     S
C1124  O1146   1.286   .     A
C1124  O1148   1.285   .     A
C1124  C1126   1.402   .     S
C1126  C1013   1.327   1_655 S
C1126  H1040   1.088   1_655 S
C1127  C1132   1.397   .     A
C1127  H1153   1.084   .     S
C1127  C1465   1.372   1_545 S
C1128  H1154   1.084   .     S
C1128  C1131   1.397   .     A
C1128  C1298   1.372   .     S
C1129  C1131   1.393   .     A
C1129  H1137   1.083   .     S
C1129  C1295   1.372   .     S
C1130  C1132   1.393   .     A
C1130  H1138   1.083   .     S
C1130  C1464   1.372   1_545 S
C1133  N1140   1.391   .     A
C1133  C1155   1.510   .     S
C1134  C1165   1.510   .     S
C1134  N1139   1.391   .     A
C1134  C128    1.420   1_556 S
C1135  N1139   1.353   .     A
C1135  H1175   1.083   .     S
C1135  C125    1.420   1_556 S
C1136  H1176   1.083   .     S
C1136  N1140   1.353   .     A
N1139  Zn1149  2.027   .     S
N1140  Zn1150  2.027   .     S
O1141  Zn1149  1.994   .     S
O1142  Zn1150  1.994   .     S
O1143  Zn1150  1.980   .     S
O1144  Zn1149  1.980   .     S
O1145  Zn1149  1.974   .     S
O1146  Zn1150  1.974   .     S
O1147  Zn1150  1.978   .     S
O1148  Zn1149  1.978   .     S
H1151  C1013   1.088   1_655 S
C1155  H1163   1.092   .     S
C1155  C1156   1.536   .     S
C1155  H1164   1.112   .     S
C1156  H1162   1.110   .     S
C1156  H1161   1.111   .     S
C1156  C1157   1.527   .     S
C1157  H1158   1.110   .     S
C1157  H1159   1.111   .     S
C1157  H1328   1.111   .     S
H1160  C1493   1.111   1_545 S
C1165  H1173   1.112   .     S
C1165  C1166   1.536   .     S
C1165  H1174   1.092   .     S
C1166  H1171   1.110   .     S
C1166  H1172   1.111   .     S
C1166  C1167   1.527   .     S
C1167  H1169   1.110   .     S
C1167  H1168   1.111   .     S
C1167  H1506   1.111   1_545 S
H1170  C1335   1.111   .     S
C1177  O1197   1.290   .     A
C1177  O1199   1.285   .     A
C1177  C1188   1.410   .     S
C1178  O1198   1.290   .     A
C1178  C1187   1.410   .     S
C1178  O1200   1.285   .     A
C1179  O1203   1.285   .     A
C1179  O1201   1.286   .     A
C1179  C1181   1.402   .     S
C1180  O1202   1.286   .     A
C1180  O1204   1.285   .     A
C1180  C1182   1.402   .     S
C1181  C1294   1.327   1_455 S
C1181  H1319   1.088   1_455 S
C1182  C1237   1.327   .     S
C1182  H1264   1.088   .     S
C1183  C1188   1.397   .     A
C1183  H1209   1.084   .     S
C1184  H1210   1.084   .     S
C1184  C1187   1.397   .     A
C1184  C1354   1.372   .     S
C1185  C1187   1.393   .     A
C1185  H1193   1.083   .     S
C1185  C1351   1.372   .     S
C1186  C1188   1.393   .     A
C1186  H1194   1.083   .     S
C1189  N1196   1.391   .     A
C1189  C1211   1.510   .     S
C1190  C1221   1.510   .     S
C1190  N1195   1.391   .     A
C1190  C184    1.420   1_556 S
C1191  N1195   1.353   .     A
C1191  H1231   1.083   .     S
C1191  C181    1.420   1_556 S
C1192  H1232   1.083   .     S
C1192  N1196   1.353   .     A
N1195  Zn1205  2.027   .     S
N1196  Zn1206  2.027   .     S
O1197  Zn1205  1.994   .     S
O1198  Zn1206  1.994   .     S
O1199  Zn1206  1.980   .     S
O1200  Zn1205  1.980   .     S
O1201  Zn1205  1.974   .     S
O1202  Zn1206  1.974   .     S
O1203  Zn1206  1.978   .     S
O1204  Zn1205  1.978   .     S
H1207  C1237   1.088   .     S
H1208  C1294   1.088   1_455 S
C1211  H1219   1.092   .     S
C1211  C1212   1.536   .     S
C1211  H1220   1.112   .     S
C1212  H1218   1.110   .     S
C1212  H1217   1.111   .     S
C1212  C1213   1.527   .     S
C1213  H1214   1.110   .     S
C1213  H1215   1.111   .     S
C1213  H1384   1.111   .     S
C1221  H1229   1.112   .     S
C1221  C1222   1.536   .     S
C1221  H1230   1.092   .     S
C1222  H1227   1.110   .     S
C1222  H1228   1.111   .     S
C1222  C1223   1.527   .     S
C1223  H1225   1.110   .     S
C1223  H1224   1.111   .     S
H1226  C1391   1.111   .     S
C1233  O1253   1.290   .     A
C1233  O1255   1.285   .     A
C1233  C1244   1.410   .     S
C1234  O1254   1.290   .     A
C1234  C1243   1.410   .     S
C1234  O1256   1.285   .     A
C1235  O1259   1.285   .     A
C1235  O1257   1.286   .     A
C1235  C1237   1.402   .     S
C1236  O1258   1.286   .     A
C1236  O1260   1.285   .     A
C1236  C1238   1.402   .     S
C1238  C1293   1.327   .     S
C1238  H1320   1.088   .     S
C1239  C1244   1.397   .     A
C1239  H1265   1.084   .     S
C1240  H1266   1.084   .     S
C1240  C1243   1.397   .     A
C1240  C1410   1.372   .     S
C1241  C1243   1.393   .     A
C1241  H1249   1.083   .     S
C1241  C1407   1.372   .     S
C1242  C1244   1.393   .     A
C1242  H1250   1.083   .     S
C1245  N1252   1.391   .     A
C1245  C1267   1.510   .     S
C1246  C1277   1.510   .     S
C1246  N1251   1.391   .     A
C1246  C240    1.420   1_556 S
C1247  N1251   1.353   .     A
C1247  H1287   1.083   .     S
C1247  C237    1.420   1_556 S
C1248  H1288   1.083   .     S
C1248  N1252   1.353   .     A
N1251  Zn1261  2.027   .     S
N1252  Zn1262  2.027   .     S
O1253  Zn1261  1.994   .     S
O1254  Zn1262  1.994   .     S
O1255  Zn1262  1.980   .     S
O1256  Zn1261  1.980   .     S
O1257  Zn1261  1.974   .     S
O1258  Zn1262  1.974   .     S
O1259  Zn1262  1.978   .     S
O1260  Zn1261  1.978   .     S
H1263  C1293   1.088   .     S
C1267  H1275   1.092   .     S
C1267  C1268   1.536   .     S
C1267  H1276   1.112   .     S
C1268  H1274   1.110   .     S
C1268  H1273   1.111   .     S
C1268  C1269   1.527   .     S
C1269  H1270   1.110   .     S
C1269  H1271   1.111   .     S
C1269  H1440   1.111   .     S
C1277  H1285   1.112   .     S
C1277  C1278   1.536   .     S
C1277  H1286   1.092   .     S
C1278  H1283   1.110   .     S
C1278  H1284   1.111   .     S
C1278  C1279   1.527   .     S
C1279  H1281   1.110   .     S
C1279  H1280   1.111   .     S
H1282  C1447   1.111   .     S
C1289  O1309   1.290   .     A
C1289  O1311   1.285   .     A
C1289  C1300   1.410   .     S
C1290  O1310   1.290   .     A
C1290  C1299   1.410   .     S
C1290  O1312   1.285   .     A
C1291  O1315   1.285   .     A
C1291  O1313   1.286   .     A
C1291  C1293   1.402   .     S
C1292  O1314   1.286   .     A
C1292  O1316   1.285   .     A
C1292  C1294   1.402   .     S
C1294  C1181   1.327   1_655 S
C1294  H1208   1.088   1_655 S
C1295  C1300   1.397   .     A
C1295  H1321   1.084   .     S
C1296  H1322   1.084   .     S
C1296  C1299   1.397   .     A
C1296  C1466   1.372   .     S
C1297  C1299   1.393   .     A
C1297  H1305   1.083   .     S
C1297  C1463   1.372   .     S
C1298  C1300   1.393   .     A
C1298  H1306   1.083   .     S
C1301  N1308   1.391   .     A
C1301  C1323   1.510   .     S
C1302  C1333   1.510   .     S
C1302  N1307   1.391   .     A
C1302  C296    1.420   1_556 S
C1303  N1307   1.353   .     A
C1303  H1343   1.083   .     S
C1303  C293    1.420   1_556 S
C1304  H1344   1.083   .     S
C1304  N1308   1.353   .     A
N1307  Zn1317  2.027   .     S
N1308  Zn1318  2.027   .     S
O1309  Zn1317  1.994   .     S
O1310  Zn1318  1.994   .     S
O1311  Zn1318  1.980   .     S
O1312  Zn1317  1.980   .     S
O1313  Zn1317  1.974   .     S
O1314  Zn1318  1.974   .     S
O1315  Zn1318  1.978   .     S
O1316  Zn1317  1.978   .     S
H1319  C1181   1.088   1_655 S
C1323  H1331   1.092   .     S
C1323  C1324   1.536   .     S
C1323  H1332   1.112   .     S
C1324  H1330   1.110   .     S
C1324  H1329   1.111   .     S
C1324  C1325   1.527   .     S
C1325  H1326   1.110   .     S
C1325  H1327   1.111   .     S
C1325  H1496   1.111   .     S
C1333  H1341   1.112   .     S
C1333  C1334   1.536   .     S
C1333  H1342   1.092   .     S
C1334  H1339   1.110   .     S
C1334  H1340   1.111   .     S
C1334  C1335   1.527   .     S
C1335  H1337   1.110   .     S
C1335  H1336   1.111   .     S
H1338  C1503   1.111   .     S
C1345  O1365   1.290   .     A
C1345  O1367   1.285   .     A
C1345  C1356   1.410   .     S
C1346  O1366   1.290   .     A
C1346  C1355   1.410   .     S
C1346  O1368   1.285   .     A
C1347  O1371   1.285   .     A
C1347  O1369   1.286   .     A
C1347  C1349   1.402   .     S
C1348  O1370   1.286   .     A
C1348  O1372   1.285   .     A
C1348  C1350   1.402   .     S
C1349  C1462   1.327   1_455 S
C1349  H1487   1.088   1_455 S
C1350  C1405   1.327   .     S
C1350  H1432   1.088   .     S
C1351  C1356   1.397   .     A
C1351  H1377   1.084   .     S
C1352  H1378   1.084   .     S
C1352  C1355   1.397   .     A
C1352  C1018   1.372   1_565 S
C1353  C1355   1.393   .     A
C1353  H1361   1.083   .     S
C1353  C1015   1.372   1_565 S
C1354  C1356   1.393   .     A
C1354  H1362   1.083   .     S
C1357  N1364   1.391   .     A
C1357  C1379   1.510   .     S
C1358  C1389   1.510   .     S
C1358  N1363   1.391   .     A
C1358  C352    1.420   1_556 S
C1359  N1363   1.353   .     A
C1359  H1399   1.083   .     S
C1359  C349    1.420   1_556 S
C1360  H1400   1.083   .     S
C1360  N1364   1.353   .     A
N1363  Zn1373  2.027   .     S
N1364  Zn1374  2.027   .     S
O1365  Zn1373  1.994   .     S
O1366  Zn1374  1.994   .     S
O1367  Zn1374  1.980   .     S
O1368  Zn1373  1.980   .     S
O1369  Zn1373  1.974   .     S
O1370  Zn1374  1.974   .     S
O1371  Zn1374  1.978   .     S
O1372  Zn1373  1.978   .     S
H1375  C1405   1.088   .     S
H1376  C1462   1.088   1_455 S
C1379  H1387   1.092   .     S
C1379  C1380   1.536   .     S
C1379  H1388   1.112   .     S
C1380  H1386   1.110   .     S
C1380  H1385   1.111   .     S
C1380  C1381   1.527   .     S
C1381  H1382   1.110   .     S
C1381  H1383   1.111   .     S
C1381  H1048   1.111   1_565 S
C1389  H1397   1.112   .     S
C1389  C1390   1.536   .     S
C1389  H1398   1.092   .     S
C1390  H1395   1.110   .     S
C1390  H1396   1.111   .     S
C1390  C1391   1.527   .     S
C1391  H1393   1.110   .     S
C1391  H1392   1.111   .     S
H1394  C1055   1.111   1_565 S
C1401  O1421   1.290   .     A
C1401  O1423   1.285   .     A
C1401  C1412   1.410   .     S
C1402  O1422   1.290   .     A
C1402  C1411   1.410   .     S
C1402  O1424   1.285   .     A
C1403  O1427   1.285   .     A
C1403  O1425   1.286   .     A
C1403  C1405   1.402   .     S
C1404  O1426   1.286   .     A
C1404  O1428   1.285   .     A
C1404  C1406   1.402   .     S
C1406  C1461   1.327   .     S
C1406  H1488   1.088   .     S
C1407  C1412   1.397   .     A
C1407  H1433   1.084   .     S
C1408  H1434   1.084   .     S
C1408  C1411   1.397   .     A
C1408  C1074   1.372   1_565 S
C1409  C1411   1.393   .     A
C1409  H1417   1.083   .     S
C1409  C1071   1.372   1_565 S
C1410  C1412   1.393   .     A
C1410  H1418   1.083   .     S
C1413  N1420   1.391   .     A
C1413  C1435   1.510   .     S
C1414  C1445   1.510   .     S
C1414  N1419   1.391   .     A
C1414  C408    1.420   1_556 S
C1415  N1419   1.353   .     A
C1415  H1455   1.083   .     S
C1415  C405    1.420   1_556 S
C1416  H1456   1.083   .     S
C1416  N1420   1.353   .     A
N1419  Zn1429  2.027   .     S
N1420  Zn1430  2.027   .     S
O1421  Zn1429  1.994   .     S
O1422  Zn1430  1.994   .     S
O1423  Zn1430  1.980   .     S
O1424  Zn1429  1.980   .     S
O1425  Zn1429  1.974   .     S
O1426  Zn1430  1.974   .     S
O1427  Zn1430  1.978   .     S
O1428  Zn1429  1.978   .     S
H1431  C1461   1.088   .     S
C1435  H1443   1.092   .     S
C1435  C1436   1.536   .     S
C1435  H1444   1.112   .     S
C1436  H1442   1.110   .     S
C1436  H1441   1.111   .     S
C1436  C1437   1.527   .     S
C1437  H1438   1.110   .     S
C1437  H1439   1.111   .     S
C1437  H1104   1.111   1_565 S
C1445  H1453   1.112   .     S
C1445  C1446   1.536   .     S
C1445  H1454   1.092   .     S
C1446  H1451   1.110   .     S
C1446  H1452   1.111   .     S
C1446  C1447   1.527   .     S
C1447  H1449   1.110   .     S
C1447  H1448   1.111   .     S
H1450  C1111   1.111   1_565 S
C1457  O1477   1.290   .     A
C1457  O1479   1.285   .     A
C1457  C1468   1.410   .     S
C1458  O1478   1.290   .     A
C1458  C1467   1.410   .     S
C1458  O1480   1.285   .     A
C1459  O1483   1.285   .     A
C1459  O1481   1.286   .     A
C1459  C1461   1.402   .     S
C1460  O1482   1.286   .     A
C1460  O1484   1.285   .     A
C1460  C1462   1.402   .     S
C1462  C1349   1.327   1_655 S
C1462  H1376   1.088   1_655 S
C1463  C1468   1.397   .     A
C1463  H1489   1.084   .     S
C1464  H1490   1.084   .     S
C1464  C1467   1.397   .     A
C1464  C1130   1.372   1_565 S
C1465  C1467   1.393   .     A
C1465  H1473   1.083   .     S
C1465  C1127   1.372   1_565 S
C1466  C1468   1.393   .     A
C1466  H1474   1.083   .     S
C1469  N1476   1.391   .     A
C1469  C1491   1.510   .     S
C1470  C1501   1.510   .     S
C1470  N1475   1.391   .     A
C1470  C464    1.420   1_556 S
C1471  N1475   1.353   .     A
C1471  H1511   1.083   .     S
C1471  C461    1.420   1_556 S
C1472  H1512   1.083   .     S
C1472  N1476   1.353   .     A
N1475  Zn1485  2.027   .     S
N1476  Zn1486  2.027   .     S
O1477  Zn1485  1.994   .     S
O1478  Zn1486  1.994   .     S
O1479  Zn1486  1.980   .     S
O1480  Zn1485  1.980   .     S
O1481  Zn1485  1.974   .     S
O1482  Zn1486  1.974   .     S
O1483  Zn1486  1.978   .     S
O1484  Zn1485  1.978   .     S
H1487  C1349   1.088   1_655 S
C1491  H1499   1.092   .     S
C1491  C1492   1.536   .     S
C1491  H1500   1.112   .     S
C1492  H1498   1.110   .     S
C1492  H1497   1.111   .     S
C1492  C1493   1.527   .     S
C1493  H1494   1.110   .     S
C1493  H1495   1.111   .     S
C1493  H1160   1.111   1_565 S
C1501  H1509   1.112   .     S
C1501  C1502   1.536   .     S
C1501  H1510   1.092   .     S
C1502  H1507   1.110   .     S
C1502  H1508   1.111   .     S
C1502  C1503   1.527   .     S
C1503  H1505   1.110   .     S
C1503  H1504   1.111   .     S
H1506  C1167   1.111   1_565 S
